@<TRIPOS>MOLECULE
ZINC31045561_730
50   53    1
SMALL
USER_CHARGES


@<TRIPOS>ATOM
      1 C1          2.3492   53.6638   28.6386 C.ar      1 UNK         0.0000 
      2 C2          1.7690   53.1214   29.7829 C.ar      1 UNK         0.0000 
      3 C3          2.5473   52.3707   30.6592 C.ar      1 UNK         0.0000 
      4 C4          3.8953   52.1501   30.3955 C.ar      1 UNK         0.0000 
      5 C5          4.4644   52.6819   29.2437 C.ar      1 UNK         0.0000 
      6 C6          3.7085   53.4529   28.3565 C.ar      1 UNK         0.0000 
      7 C7          4.3494   54.0477   27.1301 C.2       1 UNK         0.0000 
      8 N8          5.5851   53.7708   26.7308 N.2       1 UNK         0.0000 
      9 C9          5.6932   54.4891   25.6428 C.2       1 UNK         0.0000 
     10 O10         4.5993   55.2418   25.3873 O.3       1 UNK         0.0000 
     11 N11         3.6890   54.8963   26.3743 N.2       1 UNK         0.0000 
     12 C12         6.8315   54.5517   24.6338 C.3       1 UNK         0.0000 
     13 N13         6.2184   54.8103   23.2312 N.4       1 UNK         0.0000 
     14 C14         7.2599   55.2848   22.1936 C.3       1 UNK         0.0000 
     15 C15         6.5144   55.6707   20.8971 C.3       1 UNK         0.0000 
     16 C16         5.6237   54.5405   20.3298 C.3       1 UNK         0.0000 
     17 C17         4.6864   53.9700   21.4249 C.3       1 UNK         0.0000 
     18 H18         3.9100   54.7012   21.6619 H         1 UNK         0.0000 
     19 C19         5.4369   53.5755   22.7230 C.3       1 UNK         0.0000 
     20 C20         3.9675   52.7234   20.8692 C.2       1 UNK         0.0000 
     21 O21         4.5503   51.6358   20.8814 O.2       1 UNK         0.0000 
     22 N22         2.7047   52.8926   20.4226 N.am      1 UNK         0.0000 
     23 C23         1.8809   51.8616   19.9403 C.ar      1 UNK         0.0000 
     24 C24         2.3127   51.0007   18.9228 C.ar      1 UNK         0.0000 
     25 C25         1.4967   49.9606   18.4823 C.ar      1 UNK         0.0000 
     26 C26         0.2364   49.7782   19.0502 C.ar      1 UNK         0.0000 
     27 C27        -0.2078   50.6408   20.0531 C.ar      1 UNK         0.0000 
     28 C28         0.6100   51.6803   20.4998 C.ar      1 UNK         0.0000 
     29 F29         0.1674   52.4925   21.4870 F         1 UNK         0.0000 
     30 Br30       -0.8748   48.3503   18.4608 Br        1 UNK         0.0000 
     31 Cl31        1.8408   51.6978   32.0815 Cl        1 UNK         0.0000 
     32 H32         1.7289   54.2471   27.9732 H         1 UNK         0.0000 
     33 H33         0.7205   53.2823   29.9890 H         1 UNK         0.0000 
     34 H34         4.5019   51.5786   31.0827 H         1 UNK         0.0000 
     35 H35         5.5051   52.4980   29.0416 H         1 UNK         0.0000 
     36 H36         7.4173   53.6351   24.5458 H         1 UNK         0.0000 
     37 H37         7.5024   55.3898   24.8241 H         1 UNK         0.0000 
     38 H38         7.9965   54.4967   22.0623 H         1 UNK         0.0000 
     39 H39         7.7620   56.1527   22.6171 H         1 UNK         0.0000 
     40 H40         7.2429   55.9685   20.1406 H         1 UNK         0.0000 
     41 H41         5.9052   56.5567   21.0816 H         1 UNK         0.0000 
     42 H42         6.3044   53.7724   19.9600 H         1 UNK         0.0000 
     43 H43         5.0506   54.9642   19.5013 H         1 UNK         0.0000 
     44 H44         4.7238   53.3008   23.5032 H         1 UNK         0.0000 
     45 H45         6.1794   52.7858   22.5874 H         1 UNK         0.0000 
     46 H46         2.2736   53.8118   20.4807 H         1 UNK         0.0000 
     47 H47         3.2896   51.1258   18.4770 H         1 UNK         0.0000 
     48 H48         1.8555   49.2987   17.7053 H         1 UNK         0.0000 
     49 H49        -1.1828   50.4986   20.4943 H         1 UNK         0.0000 
     50 H50         5.5510   55.5588   23.3670 H         1 UNK         0.0000 
@<TRIPOS>BOND
     1    1    6 ar   
     2    1    2 ar   
     3    1   32 1    
     4    2    3 ar   
     5    2   33 1    
     6    3    4 ar   
     7    3   31 1    
     8    4    5 ar   
     9    4   34 1    
    10    5    6 ar   
    11    5   35 1    
    12    6    7 1    
    13    7   11 2    
    14    7    8 1    
    15    8    9 2    
    16    9   10 1    
    17    9   12 1    
    18   10   11 1    
    19   12   13 1    
    20   12   36 1    
    21   12   37 1    
    22   13   19 1    
    23   13   14 1    
    24   13   50 1    
    25   14   15 1    
    26   14   38 1    
    27   14   39 1    
    28   15   16 1    
    29   15   40 1    
    30   15   41 1    
    31   16   17 1    
    32   16   42 1    
    33   16   43 1    
    34   17   18 1    
    35   17   19 1    
    36   17   20 1    
    37   19   44 1    
    38   19   45 1    
    39   20   21 2    
    40   20   22 am   BACKBONE|DICT|INTERRES
    41   22   23 1    
    42   22   46 1    
    43   23   28 ar   
    44   23   24 ar   
    45   24   25 ar   
    46   24   47 1    
    47   25   26 ar   
    48   25   48 1    
    49   26   27 ar   
    50   26   30 1    
    51   27   28 ar   
    52   27   49 1    
    53   28   29 1    
@<TRIPOS>SUBSTRUCTURE
     1 UNK         1 GROUP             0       ****    0 ROOT    
