@<TRIPOS>MOLECULE
ZINC13988374_3520
46   47    1
SMALL
USER_CHARGES


@<TRIPOS>ATOM
      1 C1          2.3764   46.6472   16.3342 C.3       1 UNK         0.0000 
      2 C2          1.0070   46.7040   17.0619 C.3       1 UNK         0.0000 
      3 C3         -0.0015   47.4904   16.1869 C.3       1 UNK         0.0000 
      4 C4          0.4724   45.2519   17.2130 C.3       1 UNK         0.0000 
      5 C5          1.1264   47.4028   18.4550 C.2       1 UNK         0.0000 
      6 O6          0.5777   46.8965   19.4375 O.2       1 UNK         0.0000 
      7 N7          1.8135   48.5771   18.4816 N.am      1 UNK         0.0000 
      8 C8          1.8654   49.6101   19.3863 C.2       1 UNK         0.0000 
      9 S9          1.0094   49.7291   20.8385 S.2       1 UNK         0.0000 
     10 N10         2.7044   50.5833   18.9148 N.pl3     1 UNK         0.0000 
     11 N11         2.8423   51.8825   19.4210 N.am      1 UNK         0.0000 
     12 C12         3.7377   52.1486   20.3948 C.2       1 UNK         0.0000 
     13 O13         4.4394   51.2976   20.9500 O.2       1 UNK         0.0000 
     14 C14         3.8536   53.6376   20.7601 C.3       1 UNK         0.0000 
     15 O15         4.7566   53.8442   21.8423 O.3       1 UNK         0.0000 
     16 C16         4.3224   53.8752   23.1558 C.ar      1 UNK         0.0000 
     17 C17         2.9967   53.6955   23.5695 C.ar      1 UNK         0.0000 
     18 C18         2.6565   53.7268   24.9189 C.ar      1 UNK         0.0000 
     19 C19         3.6472   53.9464   25.9052 C.ar      1 UNK         0.0000 
     20 C20         3.3311   53.9517   27.2863 C.ar      1 UNK         0.0000 
     21 C21         4.3310   54.1363   28.2356 C.ar      1 UNK         0.0000 
     22 C22         5.6485   54.3421   27.8476 C.ar      1 UNK         0.0000 
     23 C23         5.9921   54.3475   26.5007 C.ar      1 UNK         0.0000 
     24 C24         5.0034   54.1403   25.4995 C.ar      1 UNK         0.0000 
     25 C25         5.3128   54.0977   24.1122 C.ar      1 UNK         0.0000 
     26 Br26        7.1043   54.3076   23.5076 Br        1 UNK         0.0000 
     27 Br27        3.8957   54.0969   30.0816 Br        1 UNK         0.0000 
     28 H28         2.3265   46.0316   15.4351 H         1 UNK         0.0000 
     29 H29         3.1664   46.2314   16.9609 H         1 UNK         0.0000 
     30 H30         2.7040   47.6362   16.0111 H         1 UNK         0.0000 
     31 H31        -0.9841   47.5598   16.6576 H         1 UNK         0.0000 
     32 H32         0.3362   48.5094   15.9906 H         1 UNK         0.0000 
     33 H33        -0.1434   47.0108   15.2178 H         1 UNK         0.0000 
     34 H34        -0.5311   45.2337   17.6431 H         1 UNK         0.0000 
     35 H35         0.4130   44.7426   16.2501 H         1 UNK         0.0000 
     36 H36         1.1050   44.6446   17.8610 H         1 UNK         0.0000 
     37 H37         2.3014   48.7712   17.6168 H         1 UNK         0.0000 
     38 H38         3.4415   50.3619   18.2514 H         1 UNK         0.0000 
     39 H39         2.2518   52.5628   18.9667 H         1 UNK         0.0000 
     40 H40         4.2624   54.1708   19.9012 H         1 UNK         0.0000 
     41 H41         2.8854   54.0788   20.9596 H         1 UNK         0.0000 
     42 H42         2.2092   53.5016   22.8592 H         1 UNK         0.0000 
     43 H43         1.6308   53.5690   25.2208 H         1 UNK         0.0000 
     44 H44         2.3092   53.7914   27.5999 H         1 UNK         0.0000 
     45 H45         6.4112   54.4939   28.5984 H         1 UNK         0.0000 
     46 H46         7.0247   54.4910   26.2224 H         1 UNK         0.0000 
@<TRIPOS>BOND
     1    1    2 1    
     2    1   28 1    
     3    1   29 1    
     4    1   30 1    
     5    2    3 1    
     6    2    4 1    
     7    2    5 1    
     8    3   31 1    
     9    3   32 1    
    10    3   33 1    
    11    4   34 1    
    12    4   35 1    
    13    4   36 1    
    14    5    6 2    
    15    5    7 am   BACKBONE|DICT|INTERRES
    16    7    8 am   BACKBONE|DICT|INTERRES
    17    7   37 1    
    18    8    9 2    
    19    8   10 1    
    20   10   11 1    
    21   10   38 1    
    22   11   12 am   BACKBONE|DICT|INTERRES
    23   11   39 1    
    24   12   13 2    
    25   12   14 1    
    26   14   15 1    
    27   14   40 1    
    28   14   41 1    
    29   15   16 1    
    30   16   25 ar   
    31   16   17 ar   
    32   17   18 ar   
    33   17   42 1    
    34   18   19 ar   
    35   18   43 1    
    36   19   24 ar   
    37   19   20 ar   
    38   20   21 ar   
    39   20   44 1    
    40   21   22 ar   
    41   21   27 1    
    42   22   23 ar   
    43   22   45 1    
    44   23   24 ar   
    45   23   46 1    
    46   24   25 ar   
    47   25   26 1    
@<TRIPOS>SUBSTRUCTURE
     1 UNK         1 GROUP             0       ****    0 ROOT    
