ZINC13499785_3214
                    3D
 Schrodinger Suite 2024-2.
 60 64  0  0  1  0            999 V2000
    5.6451   54.2104   18.8328 C   0  0  0  0  0  0
    4.4241   53.4480   19.3868 C   0  0  0  0  0  0
    4.2185   53.5038   20.9029 C   0  0  0  0  0  0
    5.2504   54.0035   21.6529 N   0  0  0  0  0  0
    5.0657   54.0966   22.9724 C   0  0  0  0  0  0
    3.8718   53.7602   23.6463 C   0  0  0  0  0  0
    3.9075   53.9478   25.0572 C   0  0  0  0  0  0
    5.1797   54.3753   25.4499 C   0  0  0  0  0  0
    6.2886   54.6346   24.1084 S   0  0  0  0  0  0
    5.5927   54.6278   26.8943 C   0  0  0  0  0  0
    4.5782   53.9494   27.8482 C   0  0  2  0  0  0
    4.7806   52.8760   27.8417 H   0  0  0  0  0  0
    3.1238   54.2286   27.4150 C   0  0  0  0  0  0
    2.7837   53.6276   26.0399 C   0  0  0  0  0  0
    4.8041   54.4507   29.2842 C   0  0  0  0  0  0
    2.8315   53.2461   22.8348 C   0  0  0  0  0  0
    3.0231   53.0812   21.4612 N   0  0  0  0  0  0
    1.8358   52.4955   21.0296 C   0  0  0  0  0  0
    1.0001   52.3828   22.0450 N   0  0  0  0  0  0
    1.6034   52.8301   23.2057 N   0  0  0  0  0  0
    1.4122   51.9721   19.3983 S   0  0  0  0  0  0
    2.5121   50.5215   19.2699 C   0  0  0  0  0  0
    1.7658   49.1808   19.2267 C   0  0  0  0  0  0
    1.1273   48.8079   20.2108 O   0  0  0  0  0  0
    1.9045   48.4814   18.0818 N   0  0  0  0  0  0
    1.4763   47.1845   17.7455 C   0  0  0  0  0  0
    1.9954   46.6776   16.5526 C   0  0  0  0  0  0
    1.6829   45.3858   16.1405 C   0  0  0  0  0  0
    0.8568   44.5820   16.9263 C   0  0  0  0  0  0
    0.3057   45.0950   18.1099 C   0  0  0  0  0  0
    0.6124   46.3931   18.5178 C   0  0  0  0  0  0
    0.6162   43.2841   16.4446 N   0  0  0  0  0  0
    0.2766   42.1746   17.1319 C   0  0  0  0  0  0
    0.1331   42.0968   18.3538 O   0  0  0  0  0  0
    0.0890   40.9240   16.2803 C   0  0  0  0  0  0
    5.6895   54.1331   17.7466 H   0  0  0  0  0  0
    5.5962   55.2703   19.0854 H   0  0  0  0  0  0
    6.5800   53.8126   19.2263 H   0  0  0  0  0  0
    4.5061   52.4044   19.0901 H   0  0  0  0  0  0
    3.5326   53.8505   18.9062 H   0  0  0  0  0  0
    6.5951   54.2403   27.0824 H   0  0  0  0  0  0
    5.6250   55.6966   27.0800 H   0  0  0  0  0  0
    2.4322   53.8291   28.1598 H   0  0  0  0  0  0
    2.9337   55.3000   27.4236 H   0  0  0  0  0  0
    1.8281   54.0259   25.6955 H   0  0  0  0  0  0
    2.6558   52.5475   26.1224 H   0  0  0  0  0  0
    4.4093   55.4558   29.4217 H   0  0  0  0  0  0
    4.3047   53.8071   30.0107 H   0  0  0  0  0  0
    5.8651   54.4972   29.5281 H   0  0  0  0  0  0
    3.2254   50.4890   20.0929 H   0  0  0  0  0  0
    3.1042   50.6454   18.3621 H   0  0  0  0  0  0
    2.5521   48.8881   17.4073 H   0  0  0  0  0  0
    2.6651   47.2782   15.9512 H   0  0  0  0  0  0
    2.1102   45.0117   15.2215 H   0  0  0  0  0  0
   -0.3600   44.5034   18.7206 H   0  0  0  0  0  0
    0.1773   46.7579   19.4349 H   0  0  0  0  0  0
    0.7945   43.1600   15.4596 H   0  0  0  0  0  0
   -0.8953   40.9334   15.8136 H   0  0  0  0  0  0
    0.1762   40.0206   16.8841 H   0  0  0  0  0  0
    0.8422   40.8703   15.4924 H   0  0  0  0  0  0
  1  2  1  0  0  0
  1 36  1  0  0  0
  1 37  1  0  0  0
  1 38  1  0  0  0
  2  3  1  0  0  0
  2 39  1  0  0  0
  2 40  1  0  0  0
  3 17  1  0  0  0
  3  4  2  0  0  0
  4  5  1  0  0  0
  5  9  1  0  0  0
  5  6  2  0  0  0
  6  7  1  0  0  0
  6 16  1  0  0  0
  7 14  1  0  0  0
  7  8  2  0  0  0
  8  9  1  0  0  0
  8 10  1  0  0  0
 10 11  1  0  0  0
 10 41  1  0  0  0
 10 42  1  0  0  0
 11 12  1  0  0  0
 11 13  1  0  0  0
 11 15  1  0  0  0
 13 14  1  0  0  0
 13 43  1  0  0  0
 13 44  1  0  0  0
 14 45  1  0  0  0
 14 46  1  0  0  0
 15 47  1  0  0  0
 15 48  1  0  0  0
 15 49  1  0  0  0
 16 20  2  0  0  0
 16 17  1  0  0  0
 17 18  1  0  0  0
 18 19  2  0  0  0
 18 21  1  0  0  0
 19 20  1  0  0  0
 21 22  1  0  0  0
 22 23  1  0  0  0
 22 50  1  0  0  0
 22 51  1  0  0  0
 23 24  2  0  0  0
 23 25  1  0  0  0
 25 26  1  0  0  0
 25 52  1  0  0  0
 26 31  2  0  0  0
 26 27  1  0  0  0
 27 28  2  0  0  0
 27 53  1  0  0  0
 28 29  1  0  0  0
 28 54  1  0  0  0
 29 30  2  0  0  0
 29 32  1  0  0  0
 30 31  1  0  0  0
 30 55  1  0  0  0
 31 56  1  0  0  0
 32 33  1  0  0  0
 32 57  1  0  0  0
 33 34  2  0  0  0
 33 35  1  0  0  0
 35 58  1  0  0  0
 35 59  1  0  0  0
 35 60  1  0  0  0
M  END
> <i_i_glide_confnum>
94

> <i_i_glide_lignum>
3215

> <i_i_glide_posenum>
334

> <i_i_glide_rotatable_bonds>
8

> <i_m_Source_File_Index>
2110

> <b_m_subgroup_collapsed>
0

> <r_i_docking_score>
-6.31338

> <r_i_glide_ecoul>
-9.46311

> <r_i_glide_eff_state_penalty>
0

> <r_i_glide_einternal>
4.56622

> <r_i_glide_emodel>
-70.1531

> <r_i_glide_energy>
-51.0288

> <r_i_glide_erotb>
0.499785

> <r_i_glide_esite>
-0.211166

> <r_i_glide_evdw>
-41.5657

> <r_i_glide_gscore>
-6.31338

> <r_i_glide_hbond>
-0.32

> <r_i_glide_ligand_efficiency>
-0.185688

> <r_i_glide_ligand_efficiency_ln>
-1.3948

> <r_i_glide_ligand_efficiency_sa>
-0.601556

> <r_i_glide_lipo>
-2.42047

> <r_i_glide_metal>
0

> <r_i_glide_rewards>
-0.36378

> <s_i_glide_gridfile>
wee1_glide-grid

> <s_m_Source_File>
wee1_decoys_glide_SP.sdf

> <s_m_Source_Path>
/Users/zhangxujun/Desktop

> <s_m_entry_id>
2385

> <s_m_entry_name>
wee1_decoys_glide_SP.2110

> <s_m_subgroup_title>
wee1_decoys_glide_SP

> <s_m_subgroupid>
wee1_decoys_glide_SP


$$$$
