@<TRIPOS>MOLECULE
ZINC32534144_1671
35   37    1
SMALL
USER_CHARGES


@<TRIPOS>ATOM
      1 C1          1.4562   52.5232   24.1407 C.3       1 UNK         0.0000 
      2 C2          2.0849   52.1708   22.8149 C.ar      1 UNK         0.0000 
      3 C3          3.0263   52.7945   21.9960 C.ar      1 UNK         0.0000 
      4 C4          3.1236   51.9271   20.8947 C.ar      1 UNK         0.0000 
      5 N5          2.3837   50.8509   20.9864 N.2       1 UNK         0.0000 
      6 N6          1.7623   51.0094   22.1554 N.pl3     1 UNK         0.0000 
      7 H7          1.1105   50.3209   22.5025 H         1 UNK         0.0000 
      8 O8          3.9047   52.1287   19.7868 O.3       1 UNK         0.0000 
      9 C9          4.6395   53.2715   19.7881 C.2       1 UNK         0.0000 
     10 C10         4.6999   54.1901   20.7806 C.2       1 UNK         0.0000 
     11 C11         3.8846   54.0636   22.0893 C.3       1 UNK         0.0000 
     12 H12         3.2182   54.9267   22.1226 H         1 UNK         0.0000 
     13 C13         4.7024   54.1608   23.3863 C.ar      1 UNK         0.0000 
     14 C14         4.0734   54.4963   24.5887 C.ar      1 UNK         0.0000 
     15 C15         4.8063   54.5899   25.7694 C.ar      1 UNK         0.0000 
     16 C16         6.1919   54.3712   25.7570 C.ar      1 UNK         0.0000 
     17 C17         6.8217   54.0987   24.5468 C.ar      1 UNK         0.0000 
     18 C18         6.0865   53.9627   23.3816 C.ar      1 UNK         0.0000 
     19 O19         6.9912   54.3981   26.8807 O.3       1 UNK         0.0000 
     20 C20         6.3669   54.3338   28.1595 C.3       1 UNK         0.0000 
     21 C21         5.5740   55.3109   20.6337 C.1       1 UNK         0.0000 
     22 N22         6.3050   56.2057   20.5382 N.1       1 UNK         0.0000 
     23 N23         5.3474   53.2964   18.6154 N.pl3     1 UNK         0.0000 
     24 H24         1.1255   53.5599   24.1633 H         1 UNK         0.0000 
     25 H25         0.5791   51.9138   24.3612 H         1 UNK         0.0000 
     26 H26         2.1562   52.3837   24.9647 H         1 UNK         0.0000 
     27 H27         3.0153   54.7003   24.6110 H         1 UNK         0.0000 
     28 H28         4.2876   54.8373   26.6824 H         1 UNK         0.0000 
     29 H29         7.8888   53.9471   24.4859 H         1 UNK         0.0000 
     30 H30         6.6155   53.7074   22.4810 H         1 UNK         0.0000 
     31 H31         7.1211   54.0968   28.9113 H         1 UNK         0.0000 
     32 H32         5.6163   53.5418   28.2103 H         1 UNK         0.0000 
     33 H33         5.9036   55.2866   28.4197 H         1 UNK         0.0000 
     34 H34         5.9299   54.0811   18.3643 H         1 UNK         0.0000 
     35 H35         5.4949   52.4160   18.1248 H         1 UNK         0.0000 
@<TRIPOS>BOND
     1    1    2 1    
     2    1   24 1    
     3    1   25 1    
     4    1   26 1    
     5    2    6 ar   
     6    2    3 ar   
     7    3   11 1    
     8    3    4 ar   
     9    4    5 ar   
    10    4    8 1    
    11    5    6 ar   
    12    6    7 1    
    13    8    9 1    
    14    9   10 2    
    15    9   23 1    
    16   10   11 1    
    17   10   21 1    
    18   11   12 1    
    19   11   13 1    
    20   13   18 ar   
    21   13   14 ar   
    22   14   15 ar   
    23   14   27 1    
    24   15   16 ar   
    25   15   28 1    
    26   16   17 ar   
    27   16   19 1    
    28   17   18 ar   
    29   17   29 1    
    30   18   30 1    
    31   19   20 1    
    32   20   31 1    
    33   20   32 1    
    34   20   33 1    
    35   21   22 3    
    36   23   34 1    
    37   23   35 1    
@<TRIPOS>SUBSTRUCTURE
     1 UNK         1 GROUP             0       ****    0 ROOT    
