ZINC15080955_2491
                    3D
 Schrodinger Suite 2024-2.
 55 58  0  0  1  0            999 V2000
    2.1367   53.1863   25.4642 C   0  0  0  0  0  0
    1.0907   52.4971   26.3219 C   0  0  0  0  0  0
    0.8405   53.0239   27.5947 C   0  0  0  0  0  0
   -0.0956   52.4311   28.4367 C   0  0  0  0  0  0
   -0.7829   51.2975   28.0151 C   0  0  0  0  0  0
   -0.5209   50.7419   26.7634 C   0  0  0  0  0  0
    0.4061   51.3355   25.9039 C   0  0  0  0  0  0
    0.6640   50.6897   24.6820 N   0  0  0  0  0  0
    0.2858   51.1329   23.4639 C   0  0  0  0  0  0
   -0.4132   52.1362   23.3054 O   0  0  0  0  0  0
    0.7374   50.2764   22.2354 C   0  0  2  0  0  0
    1.5471   49.6570   22.6276 H   0  0  0  0  0  0
    1.3570   51.1227   21.0521 C   0  0  1  0  0  0
    1.8665   50.4011   20.4113 H   0  0  0  0  0  0
    0.2476   51.6588   20.1319 C   0  0  0  0  0  0
   -1.0654   51.1964   20.2135 C   0  0  0  0  0  0
   -1.7167   51.7409   19.1466 N   0  0  0  0  0  0
   -2.6714   51.5365   18.8891 H   0  0  0  0  0  0
   -0.9423   52.5454   18.4206 N   0  0  0  0  0  0
    1.5053   53.9207   19.0757 H   0  0  0  0  0  0
    0.2395   52.4965   18.9974 C   0  0  0  0  0  0
    1.3033   53.1822   18.4816 O   0  0  0  0  0  0
   -1.6152   50.1297   21.1460 C   0  0  0  0  0  0
   -0.4149   49.3314   21.7277 C   0  0  1  0  0  0
    0.1190   48.3458   20.6530 C   0  0  0  0  0  0
   -0.8974   48.4842   22.7583 O   0  0  0  0  0  0
    2.4936   52.0834   21.4430 C   0  0  0  0  0  0
    2.2222   53.2967   22.0770 C   0  0  0  0  0  0
    3.2601   54.0936   22.5439 C   0  0  0  0  0  0
    4.5834   53.6961   22.3925 C   0  0  0  0  0  0
    4.8671   52.5202   21.6829 C   0  0  0  0  0  0
    3.8266   51.7172   21.2201 C   0  0  0  0  0  0
    5.5169   54.5035   23.0073 O   0  0  0  0  0  0
    6.9036   54.2334   22.8818 C   0  0  0  0  0  0
    1.6573   53.9369   24.8371 H   0  0  0  0  0  0
    2.8951   53.6754   26.0762 H   0  0  0  0  0  0
    2.6704   52.4770   24.8335 H   0  0  0  0  0  0
    1.3674   53.9045   27.9325 H   0  0  0  0  0  0
   -0.2888   52.8459   29.4153 H   0  0  0  0  0  0
   -1.5070   50.8321   28.6683 H   0  0  0  0  0  0
   -1.0420   49.8373   26.4807 H   0  0  0  0  0  0
    1.1294   49.7959   24.7466 H   0  0  0  0  0  0
   -2.1789   50.6079   21.9478 H   0  0  0  0  0  0
   -2.3226   49.4702   20.6412 H   0  0  0  0  0  0
    0.1829   48.8113   19.6693 H   0  0  0  0  0  0
    1.1271   48.0040   20.8814 H   0  0  0  0  0  0
   -0.5205   47.4698   20.5324 H   0  0  0  0  0  0
   -0.8774   48.9617   23.5916 H   0  0  0  0  0  0
    1.2053   53.6263   22.2224 H   0  0  0  0  0  0
    3.0368   55.0092   23.0682 H   0  0  0  0  0  0
    5.8798   52.1842   21.5352 H   0  0  0  0  0  0
    4.0633   50.7955   20.7092 H   0  0  0  0  0  0
    7.4438   54.8648   23.5856 H   0  0  0  0  0  0
    7.1582   53.2004   23.1190 H   0  0  0  0  0  0
    7.2540   54.4972   21.8841 H   0  0  0  0  0  0
  1  2  1  0  0  0
  1 35  1  0  0  0
  1 36  1  0  0  0
  1 37  1  0  0  0
  2  7  2  0  0  0
  2  3  1  0  0  0
  3  4  2  0  0  0
  3 38  1  0  0  0
  4  5  1  0  0  0
  4 39  1  0  0  0
  5  6  2  0  0  0
  5 40  1  0  0  0
  6  7  1  0  0  0
  6 41  1  0  0  0
  7  8  1  0  0  0
  8  9  1  0  0  0
  8 42  1  0  0  0
  9 10  2  0  0  0
  9 11  1  0  0  0
 11 12  1  0  0  0
 11 24  1  0  0  0
 11 13  1  0  0  0
 13 14  1  0  0  0
 13 15  1  0  0  0
 13 27  1  0  0  0
 15 21  1  0  0  0
 15 16  2  0  0  0
 16 23  1  0  0  0
 16 17  1  0  0  0
 17 19  1  0  0  0
 17 18  1  0  0  0
 19 21  2  0  0  0
 20 22  1  0  0  0
 21 22  1  0  0  0
 23 24  1  0  0  0
 23 43  1  0  0  0
 23 44  1  0  0  0
 24 25  1  0  0  0
 24 26  1  0  0  0
 25 45  1  0  0  0
 25 46  1  0  0  0
 25 47  1  0  0  0
 26 48  1  0  0  0
 27 32  2  0  0  0
 27 28  1  0  0  0
 28 29  2  0  0  0
 28 49  1  0  0  0
 29 30  1  0  0  0
 29 50  1  0  0  0
 30 31  2  0  0  0
 30 33  1  0  0  0
 31 32  1  0  0  0
 31 51  1  0  0  0
 32 52  1  0  0  0
 33 34  1  0  0  0
 34 53  1  0  0  0
 34 54  1  0  0  0
 34 55  1  0  0  0
M  END
> <i_i_glide_confnum>
13

> <i_i_glide_lignum>
2492

> <i_i_glide_posenum>
352

> <i_i_glide_rotatable_bonds>
7

> <i_m_Source_File_Index>
2894

> <b_m_subgroup_collapsed>
0

> <r_i_docking_score>
-3.98846

> <r_i_glide_ecoul>
-6.39704

> <r_i_glide_eff_state_penalty>
0

> <r_i_glide_einternal>
2.42864

> <r_i_glide_emodel>
-44.0213

> <r_i_glide_energy>
-34.5949

> <r_i_glide_erotb>
0.473953

> <r_i_glide_esite>
-0.0218534

> <r_i_glide_evdw>
-28.1978

> <r_i_glide_gscore>
-3.98846

> <r_i_glide_hbond>
-0.32

> <r_i_glide_ligand_efficiency>
-0.132949

> <r_i_glide_ligand_efficiency_ln>
-0.906221

> <r_i_glide_ligand_efficiency_sa>
-0.413102

> <r_i_glide_lipo>
-1.06779

> <r_i_glide_metal>
0

> <r_i_glide_rewards>
-0.683315

> <s_i_glide_gridfile>
wee1_glide-grid

> <s_m_Source_File>
wee1_decoys_glide_SP.sdf

> <s_m_Source_Path>
/Users/zhangxujun/Desktop

> <s_m_entry_id>
3169

> <s_m_entry_name>
wee1_decoys_glide_SP.2894

> <s_m_subgroup_title>
wee1_decoys_glide_SP

> <s_m_subgroupid>
wee1_decoys_glide_SP


$$$$
