ZINC16517861_3236
                    3D
 Schrodinger Suite 2024-2.
 62 65  0  0  1  0            999 V2000
   -2.4013   56.0636   14.3365 C   0  0  0  0  0  0
   -2.0365   55.0780   15.4315 C   0  0  0  0  0  0
   -3.0332   54.3572   16.0872 C   0  0  0  0  0  0
   -2.6982   53.4443   17.0851 C   0  0  0  0  0  0
   -1.3562   53.2411   17.4538 C   0  0  0  0  0  0
   -0.3490   53.9487   16.7670 C   0  0  0  0  0  0
   -0.6996   54.8625   15.7671 C   0  0  0  0  0  0
    1.1316   53.7462   17.0745 C   0  0  0  0  0  0
   -0.9623   52.3576   18.4849 N   0  0  0  0  0  0
   -1.6895   51.8779   19.5174 C   0  0  0  0  0  0
   -2.8932   52.0962   19.6810 O   0  0  0  0  0  0
   -0.8996   51.2084   20.3864 N   0  0  0  0  0  0
   -1.2705   50.6277   21.5535 C   0  0  0  0  0  0
   -2.4347   50.3540   21.8645 O   0  0  0  0  0  0
   -0.1018   50.2877   22.5124 C   0  0  0  0  0  0
   -0.4646   50.3637   23.9454 N   0  0  0  0  0  0
    0.6837   49.8962   24.7571 C   0  0  0  0  0  0
    0.3224   49.9082   26.2601 C   0  0  0  0  0  0
   -0.0735   51.2716   26.6504 N   0  0  0  0  0  0
   -1.2173   51.7933   25.8772 C   0  0  0  0  0  0
   -0.9300   51.7141   24.3533 C   0  0  0  0  0  0
    0.7759   52.2191   27.8990 S   0  0  0  0  0  0
   -0.0955   53.3180   28.3267 O   0  0  0  0  0  0
    1.3784   51.2968   28.8694 O   0  0  0  0  0  0
    2.1530   53.0182   27.0788 C   0  0  0  0  0  0
    2.0076   53.5269   25.7919 C   0  0  0  0  0  0
    3.0829   54.0965   25.1202 C   0  0  0  0  0  0
    4.3354   54.2216   25.7621 C   0  0  0  0  0  0
    5.4510   54.7909   25.1039 C   0  0  0  0  0  0
    6.6667   54.9145   25.7657 C   0  0  0  0  0  0
    6.7961   54.4938   27.0863 C   0  0  0  0  0  0
    5.7237   53.9176   27.7592 C   0  0  0  0  0  0
    4.4762   53.7639   27.1082 C   0  0  0  0  0  0
    3.3676   53.1603   27.7508 C   0  0  0  0  0  0
   -3.3022   55.7460   13.8098 H   0  0  0  0  0  0
   -1.6096   56.1290   13.5887 H   0  0  0  0  0  0
   -2.5715   57.0561   14.7551 H   0  0  0  0  0  0
   -4.0713   54.4992   15.8233 H   0  0  0  0  0  0
   -3.5040   52.8965   17.5467 H   0  0  0  0  0  0
    0.0722   55.4105   15.2453 H   0  0  0  0  0  0
    1.3919   52.6886   17.0166 H   0  0  0  0  0  0
    1.7787   54.2781   16.3754 H   0  0  0  0  0  0
    1.3616   54.0899   18.0816 H   0  0  0  0  0  0
    0.0255   52.1540   18.4865 H   0  0  0  0  0  0
    0.0897   51.2230   20.1956 H   0  0  0  0  0  0
    0.2046   49.2678   22.2724 H   0  0  0  0  0  0
    0.7573   50.9308   22.3060 H   0  0  0  0  0  0
    1.0106   48.8974   24.4627 H   0  0  0  0  0  0
    1.4859   50.6155   24.5773 H   0  0  0  0  0  0
    1.1757   49.6104   26.8688 H   0  0  0  0  0  0
   -0.4880   49.2115   26.4818 H   0  0  0  0  0  0
   -1.4090   52.8236   26.1764 H   0  0  0  0  0  0
   -2.1008   51.2064   26.1328 H   0  0  0  0  0  0
   -0.0838   52.3523   24.1142 H   0  0  0  0  0  0
   -1.8141   52.0333   23.8010 H   0  0  0  0  0  0
    1.0528   53.4901   25.3031 H   0  0  0  0  0  0
    2.9603   54.4651   24.1116 H   0  0  0  0  0  0
    5.3544   55.1257   24.0816 H   0  0  0  0  0  0
    7.5041   55.3446   25.2378 H   0  0  0  0  0  0
    7.7392   54.6024   27.6013 H   0  0  0  0  0  0
    5.8425   53.5820   28.7795 H   0  0  0  0  0  0
    3.4796   52.7947   28.7615 H   0  0  0  0  0  0
  1  2  1  0  0  0
  1 35  1  0  0  0
  1 36  1  0  0  0
  1 37  1  0  0  0
  2  7  2  0  0  0
  2  3  1  0  0  0
  3  4  2  0  0  0
  3 38  1  0  0  0
  4  5  1  0  0  0
  4 39  1  0  0  0
  5  6  2  0  0  0
  5  9  1  0  0  0
  6  7  1  0  0  0
  6  8  1  0  0  0
  7 40  1  0  0  0
  8 41  1  0  0  0
  8 42  1  0  0  0
  8 43  1  0  0  0
  9 10  1  0  0  0
  9 44  1  0  0  0
 10 11  2  0  0  0
 10 12  1  0  0  0
 12 13  1  0  0  0
 12 45  1  0  0  0
 13 14  2  0  0  0
 13 15  1  0  0  0
 15 16  1  0  0  0
 15 46  1  0  0  0
 15 47  1  0  0  0
 16 21  1  0  0  0
 16 17  1  0  0  0
 17 18  1  0  0  0
 17 48  1  0  0  0
 17 49  1  0  0  0
 18 19  1  0  0  0
 18 50  1  0  0  0
 18 51  1  0  0  0
 19 20  1  0  0  0
 19 22  1  0  0  0
 20 21  1  0  0  0
 20 52  1  0  0  0
 20 53  1  0  0  0
 21 54  1  0  0  0
 21 55  1  0  0  0
 22 23  2  0  0  0
 22 24  2  0  0  0
 22 25  1  0  0  0
 25 34  2  0  0  0
 25 26  1  0  0  0
 26 27  2  0  0  0
 26 56  1  0  0  0
 27 28  1  0  0  0
 27 57  1  0  0  0
 28 33  2  0  0  0
 28 29  1  0  0  0
 29 30  2  0  0  0
 29 58  1  0  0  0
 30 31  1  0  0  0
 30 59  1  0  0  0
 31 32  2  0  0  0
 31 60  1  0  0  0
 32 33  1  0  0  0
 32 61  1  0  0  0
 33 34  1  0  0  0
 34 62  1  0  0  0
M  END
> <i_i_glide_confnum>
326

> <i_i_glide_lignum>
3237

> <i_i_glide_posenum>
185

> <i_i_glide_rotatable_bonds>
8

> <i_m_Source_File_Index>
569

> <b_m_subgroup_collapsed>
0

> <r_i_docking_score>
-4.90124

> <r_i_glide_ecoul>
-6.70803

> <r_i_glide_eff_state_penalty>
0

> <r_i_glide_einternal>
2.97363

> <r_i_glide_emodel>
-59.3898

> <r_i_glide_energy>
-46.4039

> <r_i_glide_erotb>
0.70247

> <r_i_glide_esite>
-0.0892166

> <r_i_glide_evdw>
-39.6958

> <r_i_glide_gscore>
-4.90124

> <r_i_glide_hbond>
-0.32

> <r_i_glide_ligand_efficiency>
-0.144154

> <r_i_glide_ligand_efficiency_ln>
-1.08282

> <r_i_glide_ligand_efficiency_sa>
-0.467003

> <r_i_glide_lipo>
-2.31903

> <r_i_glide_metal>
0

> <r_i_glide_rewards>
0.115535

> <s_i_glide_gridfile>
wee1_glide-grid

> <s_m_Source_File>
wee1_decoys_glide_SP.sdf

> <s_m_Source_Path>
/Users/zhangxujun/Desktop

> <s_m_entry_id>
844

> <s_m_entry_name>
wee1_decoys_glide_SP.569

> <s_m_subgroup_title>
wee1_decoys_glide_SP

> <s_m_subgroupid>
wee1_decoys_glide_SP


$$$$
