ZINC39665663_894
                    3D
 Schrodinger Suite 2024-2.
 70 73  0  0  1  0            999 V2000
   -5.8110   50.9438   24.1465 C   0  0  0  0  0  0
   -4.4041   51.2612   24.7008 C   0  0  1  0  0  0
   -3.7455   50.6940   24.0436 H   0  0  0  0  0  0
   -3.9326   52.7363   24.5889 C   0  0  0  0  0  0
   -2.4733   52.8950   24.6648 N   0  0  0  0  0  0
   -1.5995   52.6008   23.6826 C   0  0  0  0  0  0
   -1.9686   52.2188   22.5714 O   0  0  0  0  0  0
   -0.0956   52.8457   24.0006 C   0  0  2  0  0  0
   -0.0535   53.6972   24.6684 H   0  0  0  0  0  0
    0.7036   53.2355   22.7298 C   0  0  0  0  0  0
    1.9970   52.5803   22.8899 N   0  0  0  0  0  0
    2.0794   51.7989   24.1113 C   0  0  0  0  0  0
    0.6448   51.6445   24.6501 C   0  0  0  0  0  0
    0.1530   50.2383   24.1401 C   0  0  0  0  0  0
   -0.8708   49.4882   25.0107 C   0  0  0  0  0  0
   -0.4663   49.6187   26.4813 N   0  3  0  0  0  0
   -0.4836   51.0643   26.9619 C   0  0  0  0  0  0
    0.6235   51.7995   26.2093 C   0  0  0  0  0  0
    3.1337   53.0775   22.3604 C   0  0  0  0  0  0
    3.8848   52.3753   21.6841 O   0  0  0  0  0  0
    3.5881   54.4941   22.7525 C   0  0  0  0  0  0
    4.4925   54.4951   23.9827 C   0  0  0  0  0  0
    5.8815   54.4358   23.8364 C   0  0  0  0  0  0
    6.6962   54.3871   24.9638 C   0  0  0  0  0  0
    6.1187   54.3691   26.2333 C   0  0  0  0  0  0
    4.7376   54.4391   26.3866 C   0  0  0  0  0  0
    3.9250   54.5038   25.2606 C   0  0  0  0  0  0
    7.1106   54.2248   27.6332 Cl  0  0  0  0  0  0
   -4.1329   50.7017   25.9957 O   0  0  0  0  0  0
   -4.7895   51.0842   27.1551 C   0  0  0  0  0  0
   -5.8568   51.9928   27.2307 C   0  0  0  0  0  0
   -6.4718   52.2673   28.4509 C   0  0  0  0  0  0
   -5.9907   51.6804   29.6308 C   0  0  0  0  0  0
   -4.9113   50.7995   29.5591 C   0  0  0  0  0  0
   -4.3263   50.4956   28.3327 C   0  0  0  0  0  0
   -6.4966   51.9393   30.8906 O   0  0  0  0  0  0
   -7.6977   52.6924   31.0166 C   0  0  0  0  0  0
   -5.9154   51.3047   23.1243 H   0  0  0  0  0  0
   -5.9667   49.8663   24.1147 H   0  0  0  0  0  0
   -6.6359   51.3623   24.7127 H   0  0  0  0  0  0
   -4.3552   53.3294   25.3961 H   0  0  0  0  0  0
   -4.3054   53.1965   23.6783 H   0  0  0  0  0  0
   -2.1080   53.2334   25.5429 H   0  0  0  0  0  0
    0.7967   54.3194   22.7577 H   0  0  0  0  0  0
    0.2395   52.8088   21.8389 H   0  0  0  0  0  0
    2.7021   50.9034   24.0450 H   0  0  0  0  0  0
    2.6101   52.4252   24.8256 H   0  0  0  0  0  0
   -0.0665   50.2255   23.0707 H   0  0  0  0  0  0
    1.0039   49.5561   24.2146 H   0  0  0  0  0  0
   -1.8753   49.8983   24.9399 H   0  0  0  0  0  0
   -0.9111   48.4201   24.7884 H   0  0  0  0  0  0
   -1.0686   49.0545   27.1002 H   0  0  0  0  0  0
   -1.4867   51.4491   26.7754 H   0  0  0  0  0  0
   -0.3158   51.0298   28.0405 H   0  0  0  0  0  0
    1.5044   51.2985   26.5990 H   0  0  0  0  0  0
    0.7774   52.8259   26.5471 H   0  0  0  0  0  0
    2.7277   55.1224   22.9571 H   0  0  0  0  0  0
    4.0983   54.9333   21.8948 H   0  0  0  0  0  0
    6.3304   54.4159   22.8539 H   0  0  0  0  0  0
    7.7659   54.3389   24.8458 H   0  0  0  0  0  0
    4.2987   54.4285   27.3735 H   0  0  0  0  0  0
    2.8532   54.5462   25.3820 H   0  0  0  0  0  0
   -6.2319   52.5080   26.3650 H   0  0  0  0  0  0
   -7.2953   52.9633   28.4655 H   0  0  0  0  0  0
   -4.5247   50.3407   30.4589 H   0  0  0  0  0  0
   -3.5008   49.7977   28.3008 H   0  0  0  0  0  0
   -7.9825   52.7517   32.0677 H   0  0  0  0  0  0
   -7.5694   53.7111   30.6537 H   0  0  0  0  0  0
   -8.5222   52.2230   30.4787 H   0  0  0  0  0  0
    0.4513   49.2179   26.6139 H   0  0  0  0  0  0
  1  2  1  0  0  0
  1 38  1  0  0  0
  1 39  1  0  0  0
  1 40  1  0  0  0
  2  3  1  0  0  0
  2  4  1  0  0  0
  2 29  1  0  0  0
  4  5  1  0  0  0
  4 41  1  0  0  0
  4 42  1  0  0  0
  5  6  1  0  0  0
  5 43  1  0  0  0
  6  7  2  0  0  0
  6  8  1  0  0  0
  8  9  1  0  0  0
  8 13  1  0  0  0
  8 10  1  0  0  0
 10 11  1  0  0  0
 10 44  1  0  0  0
 10 45  1  0  0  0
 11 12  1  0  0  0
 11 19  1  0  0  0
 12 13  1  0  0  0
 12 46  1  0  0  0
 12 47  1  0  0  0
 13 18  1  0  0  0
 13 14  1  0  0  0
 14 15  1  0  0  0
 14 48  1  0  0  0
 14 49  1  0  0  0
 15 16  1  0  0  0
 15 50  1  0  0  0
 15 51  1  0  0  0
 16 17  1  0  0  0
 16 52  1  0  0  0
 16 70  1  0  0  0
 17 18  1  0  0  0
 17 53  1  0  0  0
 17 54  1  0  0  0
 18 55  1  0  0  0
 18 56  1  0  0  0
 19 20  2  0  0  0
 19 21  1  0  0  0
 21 22  1  0  0  0
 21 57  1  0  0  0
 21 58  1  0  0  0
 22 27  2  0  0  0
 22 23  1  0  0  0
 23 24  2  0  0  0
 23 59  1  0  0  0
 24 25  1  0  0  0
 24 60  1  0  0  0
 25 26  2  0  0  0
 25 28  1  0  0  0
 26 27  1  0  0  0
 26 61  1  0  0  0
 27 62  1  0  0  0
 29 30  1  0  0  0
 30 35  2  0  0  0
 30 31  1  0  0  0
 31 32  2  0  0  0
 31 63  1  0  0  0
 32 33  1  0  0  0
 32 64  1  0  0  0
 33 34  2  0  0  0
 33 36  1  0  0  0
 34 35  1  0  0  0
 34 65  1  0  0  0
 35 66  1  0  0  0
 36 37  1  0  0  0
 37 67  1  0  0  0
 37 68  1  0  0  0
 37 69  1  0  0  0
M  CHG  1  16   1
M  END
> <i_i_glide_confnum>
328

> <i_i_glide_lignum>
895

> <i_i_glide_posenum>
64

> <i_i_glide_rotatable_bonds>
10

> <i_m_Source_File_Index>
3309

> <b_m_subgroup_collapsed>
0

> <r_i_docking_score>
-1.0396

> <r_i_glide_ecoul>
-6.76528

> <r_i_glide_eff_state_penalty>
0

> <r_i_glide_einternal>
21.2877

> <r_i_glide_emodel>
-20.8705

> <r_i_glide_energy>
-41.0079

> <r_i_glide_erotb>
0.732213

> <r_i_glide_esite>
-0.1

> <r_i_glide_evdw>
-34.2427

> <r_i_glide_gscore>
-1.0396

> <r_i_glide_hbond>
-0.349262

> <r_i_glide_ligand_efficiency>
-0.0297028

> <r_i_glide_ligand_efficiency_ln>
-0.228215

> <r_i_glide_ligand_efficiency_sa>
-0.0971599

> <r_i_glide_lipo>
-2.22587

> <r_i_glide_metal>
0

> <r_i_glide_rewards>
3.63025

> <s_i_glide_gridfile>
wee1_glide-grid

> <s_m_Source_File>
wee1_decoys_glide_SP.sdf

> <s_m_Source_Path>
/Users/zhangxujun/Desktop

> <s_m_entry_id>
3584

> <s_m_entry_name>
wee1_decoys_glide_SP.3309

> <s_m_subgroup_title>
wee1_decoys_glide_SP

> <s_m_subgroupid>
wee1_decoys_glide_SP


$$$$
