@<TRIPOS>MOLECULE
ZINC58835069_4252
64   68    1
SMALL
USER_CHARGES


@<TRIPOS>ATOM
      1 C1         11.6319   61.1075   17.4753 C.3       1 UNK         0.0000 
      2 C2         10.7140   59.8840   17.3028 C.3       1 UNK         0.0000 
      3 H3         11.1729   59.2269   16.5609 H         1 UNK         0.0000 
      4 C4         10.5451   59.1006   18.6216 C.3       1 UNK         0.0000 
      5 C5          9.8123   57.7782   18.3480 C.3       1 UNK         0.0000 
      6 C6          8.4977   58.0144   17.6052 C.ar      1 UNK         0.0000 
      7 C7          8.3003   59.1658   16.8111 C.ar      1 UNK         0.0000 
      8 C8          7.0935   59.2713   16.1078 C.ar      1 UNK         0.0000 
      9 C9          6.1028   58.2921   16.2285 C.ar      1 UNK         0.0000 
     10 C10         6.3544   57.2035   17.0817 C.ar      1 UNK         0.0000 
     11 N11         7.5255   57.0809   17.7558 N.ar      1 UNK         0.0000 
     12 S12         5.1799   55.8787   17.2869 S.3       1 UNK         0.0000 
     13 C13         6.0293   54.5019   18.1165 C.3       1 UNK         0.0000 
     14 C14         5.9147   54.5544   19.6271 C.ar      1 UNK         0.0000 
     15 N15         6.6578   55.2975   20.4123 N.2       1 UNK         0.0000 
     16 N16         6.2932   55.0083   21.7240 N.2       1 UNK         0.0000 
     17 C17         5.3359   54.1128   21.6686 C.ar      1 UNK         0.0000 
     18 N18         5.0293   53.8015   20.3619 N.pl3     1 UNK         0.0000 
     19 N19         4.0920   52.8932   19.8952 N.3       1 UNK         0.0000 
     20 C20         4.7044   53.4411   22.8698 C.3       1 UNK         0.0000 
     21 S21         3.3481   54.3694   23.6436 S.3       1 UNK         0.0000 
     22 C22         3.3458   54.0049   25.3866 C.ar      1 UNK         0.0000 
     23 C23         4.4379   54.2529   26.2396 C.ar      1 UNK         0.0000 
     24 C24         4.2822   53.9586   27.5987 C.ar      1 UNK         0.0000 
     25 C25         3.0852   53.4302   28.0946 C.ar      1 UNK         0.0000 
     26 C26         2.0563   53.1663   27.1646 C.ar      1 UNK         0.0000 
     27 N27         2.1777   53.4974   25.8519 N.ar      1 UNK         0.0000 
     28 C28         0.7443   52.5159   27.6033 C.3       1 UNK         0.0000 
     29 C29         0.4570   52.7779   29.0900 C.3       1 UNK         0.0000 
     30 C30         1.6645   52.3299   29.9377 C.3       1 UNK         0.0000 
     31 H31         1.9164   51.3008   29.6733 H         1 UNK         0.0000 
     32 C32         2.8794   53.2282   29.6024 C.3       1 UNK         0.0000 
     33 C33         1.3400   52.3636   31.4437 C.3       1 UNK         0.0000 
     34 C34         5.7005   54.8361   25.7988 C.1       1 UNK         0.0000 
     35 N35         6.7038   55.2966   25.4531 N.1       1 UNK         0.0000 
     36 C36         4.8638   58.4393   15.4695 C.1       1 UNK         0.0000 
     37 N37         3.8828   58.5499   14.8646 N.1       1 UNK         0.0000 
     38 C38         9.3211   60.3053   16.7805 C.3       1 UNK         0.0000 
     39 H39        11.2297   61.8139   18.2010 H         1 UNK         0.0000 
     40 H40        12.6243   60.8099   17.8162 H         1 UNK         0.0000 
     41 H41        11.7593   61.6397   16.5318 H         1 UNK         0.0000 
     42 H42        10.0416   59.7033   19.3786 H         1 UNK         0.0000 
     43 H43        11.5233   58.8786   19.0509 H         1 UNK         0.0000 
     44 H44         9.6454   57.2335   19.2785 H         1 UNK         0.0000 
     45 H45        10.4445   57.1351   17.7342 H         1 UNK         0.0000 
     46 H46         6.9091   60.1506   15.5034 H         1 UNK         0.0000 
     47 H47         7.0750   54.4904   17.8098 H         1 UNK         0.0000 
     48 H48         5.6095   53.5743   17.7249 H         1 UNK         0.0000 
     49 H49         3.3659   53.3640   19.3728 H         1 UNK         0.0000 
     50 H50         4.5308   52.1835   19.3163 H         1 UNK         0.0000 
     51 H51         5.4628   53.1927   23.6100 H         1 UNK         0.0000 
     52 H52         4.2725   52.4965   22.5521 H         1 UNK         0.0000 
     53 H53         5.0864   54.1685   28.2921 H         1 UNK         0.0000 
     54 H54         0.8241   51.4401   27.4392 H         1 UNK         0.0000 
     55 H55        -0.0870   52.8548   26.9840 H         1 UNK         0.0000 
     56 H56        -0.4286   52.2130   29.3859 H         1 UNK         0.0000 
     57 H57         0.2003   53.8192   29.2921 H         1 UNK         0.0000 
     58 H58         2.7393   54.2114   30.0543 H         1 UNK         0.0000 
     59 H59         3.7836   52.8171   30.0540 H         1 UNK         0.0000 
     60 H60         1.0527   53.3633   31.7705 H         1 UNK         0.0000 
     61 H61         2.1912   52.0460   32.0463 H         1 UNK         0.0000 
     62 H62         0.5071   51.7006   31.6834 H         1 UNK         0.0000 
     63 H63         9.4075   60.7019   15.7670 H         1 UNK         0.0000 
     64 H64         8.9239   61.1194   17.3895 H         1 UNK         0.0000 
@<TRIPOS>BOND
     1    1    2 1    
     2    1   39 1    
     3    1   40 1    
     4    1   41 1    
     5    2    3 1    
     6    2   38 1    
     7    2    4 1    
     8    4    5 1    
     9    4   42 1    
    10    4   43 1    
    11    5    6 1    
    12    5   44 1    
    13    5   45 1    
    14    6   11 ar   
    15    6    7 ar   
    16    7    8 ar   
    17    7   38 1    
    18    8    9 ar   
    19    8   46 1    
    20    9   10 ar   
    21    9   36 1    
    22   10   11 ar   
    23   10   12 1    
    24   12   13 1    
    25   13   14 1    
    26   13   47 1    
    27   13   48 1    
    28   14   18 ar   
    29   14   15 ar   
    30   15   16 ar   
    31   16   17 ar   
    32   17   18 ar   
    33   17   20 1    
    34   18   19 1    
    35   19   49 1    
    36   19   50 1    
    37   20   21 1    
    38   20   51 1    
    39   20   52 1    
    40   21   22 1    
    41   22   27 ar   
    42   22   23 ar   
    43   23   24 ar   
    44   23   34 1    
    45   24   25 ar   
    46   24   53 1    
    47   25   32 1    
    48   25   26 ar   
    49   26   27 ar   
    50   26   28 1    
    51   28   29 1    
    52   28   54 1    
    53   28   55 1    
    54   29   30 1    
    55   29   56 1    
    56   29   57 1    
    57   30   31 1    
    58   30   32 1    
    59   30   33 1    
    60   32   58 1    
    61   32   59 1    
    62   33   60 1    
    63   33   61 1    
    64   33   62 1    
    65   34   35 3    
    66   36   37 3    
    67   38   63 1    
    68   38   64 1    
@<TRIPOS>SUBSTRUCTURE
     1 UNK         1 GROUP             0       ****    0 ROOT    
