@<TRIPOS>MOLECULE
ZINC40982589_5060
52   55    1
SMALL
USER_CHARGES


@<TRIPOS>ATOM
      1 C1         10.1826   53.6536   16.8065 C.3       1 UNK         0.0000 
      2 C2          8.9912   54.5688   17.1217 C.3       1 UNK         0.0000 
      3 C3          9.1292   55.2646   18.4870 C.3       1 UNK         0.0000 
      4 S4          7.8014   56.4240   18.9452 S.3       1 UNK         0.0000 
      5 C5          6.6043   55.3035   19.5900 C.ar      1 UNK         0.0000 
      6 N6          6.3063   54.1511   19.0033 N.2       1 UNK         0.0000 
      7 C7          5.3743   53.6746   19.7790 C.ar      1 UNK         0.0000 
      8 N8          5.1370   54.5179   20.8315 N.pl3     1 UNK         0.0000 
      9 N9          5.9261   55.5887   20.6847 N.2       1 UNK         0.0000 
     10 C10         4.1875   54.3197   21.9362 C.3       1 UNK         0.0000 
     11 H11         3.5341   55.1938   21.9488 H         1 UNK         0.0000 
     12 C12         3.3309   53.0621   21.6092 C.2       1 UNK         0.0000 
     13 C13         3.6402   52.2289   20.5625 C.2       1 UNK         0.0000 
     14 N14         4.6750   52.4967   19.6824 N.pl3     1 UNK         0.0000 
     15 C15         2.8837   50.9788   20.1128 C.3       1 UNK         0.0000 
     16 C16         2.1708   52.8908   22.4800 C.2       1 UNK         0.0000 
     17 O17         1.5301   53.8622   22.8827 O.2       1 UNK         0.0000 
     18 N18         1.9043   51.6160   22.8279 N.am      1 UNK         0.0000 
     19 C19         0.8406   51.0795   23.5719 C.ar      1 UNK         0.0000 
     20 C20        -0.2137   51.8216   24.1270 C.ar      1 UNK         0.0000 
     21 C21        -1.2376   51.1690   24.8088 C.ar      1 UNK         0.0000 
     22 C22        -1.2134   49.7806   24.9433 C.ar      1 UNK         0.0000 
     23 C23        -0.1546   49.0437   24.4134 C.ar      1 UNK         0.0000 
     24 C24         0.8616   49.6932   23.7206 C.ar      1 UNK         0.0000 
     25 C25        -2.3312   49.0721   25.6829 C.3       1 UNK         0.0000 
     26 C26         4.9051   54.2273   23.2849 C.2       1 UNK         0.0000 
     27 C27         6.2322   54.0982   23.6838 C.2       1 UNK         0.0000 
     28 C28         6.2463   54.1413   25.0792 C.2       1 UNK         0.0000 
     29 C29         4.9330   54.2996   25.4803 C.2       1 UNK         0.0000 
     30 O30         4.1255   54.3573   24.3924 O.3       1 UNK         0.0000 
     31 Br31        4.1277   54.4350   27.1982 Br        1 UNK         0.0000 
     32 H32        10.0504   53.1548   15.8458 H         1 UNK         0.0000 
     33 H33        10.2961   52.8797   17.5667 H         1 UNK         0.0000 
     34 H34        11.1148   54.2179   16.7627 H         1 UNK         0.0000 
     35 H35         8.8936   55.3212   16.3375 H         1 UNK         0.0000 
     36 H36         8.0764   53.9785   17.0848 H         1 UNK         0.0000 
     37 H37         9.2395   54.5233   19.2799 H         1 UNK         0.0000 
     38 H38        10.0583   55.8358   18.4870 H         1 UNK         0.0000 
     39 H39         4.9196   51.8071   18.9663 H         1 UNK         0.0000 
     40 H40         3.3182   50.0932   20.5738 H         1 UNK         0.0000 
     41 H41         1.8231   51.0196   20.3551 H         1 UNK         0.0000 
     42 H42         2.9294   50.8401   19.0305 H         1 UNK         0.0000 
     43 H43         2.5477   50.9316   22.4640 H         1 UNK         0.0000 
     44 H44        -0.2728   52.8944   24.0411 H         1 UNK         0.0000 
     45 H45        -2.0510   51.7423   25.2294 H         1 UNK         0.0000 
     46 H46        -0.1193   47.9711   24.5342 H         1 UNK         0.0000 
     47 H47         1.6661   49.1056   23.3004 H         1 UNK         0.0000 
     48 H48        -3.1895   48.9139   25.0312 H         1 UNK         0.0000 
     49 H49        -1.9991   48.1115   26.0794 H         1 UNK         0.0000 
     50 H50        -2.6551   49.6623   26.5411 H         1 UNK         0.0000 
     51 H51         7.0905   53.9973   23.0340 H         1 UNK         0.0000 
     52 H52         7.1052   54.0617   25.7268 H         1 UNK         0.0000 
@<TRIPOS>BOND
     1    1    2 1    
     2    1   32 1    
     3    1   33 1    
     4    1   34 1    
     5    2    3 1    
     6    2   35 1    
     7    2   36 1    
     8    3    4 1    
     9    3   37 1    
    10    3   38 1    
    11    4    5 1    
    12    5    9 ar   
    13    5    6 ar   
    14    6    7 ar   
    15    7   14 1    
    16    7    8 ar   
    17    8    9 ar   
    18    8   10 1    
    19   10   11 1    
    20   10   12 1    
    21   10   26 1    
    22   12   13 2    
    23   12   16 1    
    24   13   14 1    
    25   13   15 1    
    26   14   39 1    
    27   15   40 1    
    28   15   41 1    
    29   15   42 1    
    30   16   17 2    
    31   16   18 am   BACKBONE|DICT|INTERRES
    32   18   19 1    
    33   18   43 1    
    34   19   24 ar   
    35   19   20 ar   
    36   20   21 ar   
    37   20   44 1    
    38   21   22 ar   
    39   21   45 1    
    40   22   23 ar   
    41   22   25 1    
    42   23   24 ar   
    43   23   46 1    
    44   24   47 1    
    45   25   48 1    
    46   25   49 1    
    47   25   50 1    
    48   26   30 1    
    49   26   27 2    
    50   27   28 1    
    51   27   51 1    
    52   28   29 2    
    53   28   52 1    
    54   29   30 1    
    55   29   31 1    
@<TRIPOS>SUBSTRUCTURE
     1 UNK         1 GROUP             0       ****    0 ROOT    
