@<TRIPOS>MOLECULE
ZINC66606841_5876
52   55    1
SMALL
USER_CHARGES


@<TRIPOS>ATOM
      1 C1          6.8206   54.8970   21.9142 C.ar      1 UNK         0.0000 
      2 C2          5.7257   54.9812   21.0620 C.ar      1 UNK         0.0000 
      3 C3          4.4856   54.5135   21.4876 C.ar      1 UNK         0.0000 
      4 C4          4.3055   53.9956   22.7801 C.ar      1 UNK         0.0000 
      5 C5          5.4613   53.7651   23.5410 C.ar      1 UNK         0.0000 
      6 C6          6.7027   54.2402   23.1328 C.ar      1 UNK         0.0000 
      7 C7          2.8823   53.6909   23.2473 C.2       1 UNK         0.0000 
      8 O8          2.0245   53.5899   22.3703 O.2       1 UNK         0.0000 
      9 N9          2.5077   53.5042   24.5559 N.am      1 UNK         0.0000 
     10 C10         3.2861   53.7341   25.7950 C.3       1 UNK         0.0000 
     11 H11         3.9687   52.8944   25.8338 H         1 UNK         0.0000 
     12 C12         4.1583   54.9711   26.0796 C.3       1 UNK         0.0000 
     13 C13         4.9305   54.7318   27.4125 C.3       1 UNK         0.0000 
     14 C14         4.0232   54.3247   28.6052 C.3       1 UNK         0.0000 
     15 C15         3.0339   53.1954   28.2256 C.3       1 UNK         0.0000 
     16 C16         2.2796   53.6101   26.9515 C.3       1 UNK         0.0000 
     17 H17         1.8466   54.5936   27.1421 H         1 UNK         0.0000 
     18 C18         1.1864   52.7169   26.4258 C.3       1 UNK         0.0000 
     19 C19         1.1384   52.9996   24.9146 C.3       1 UNK         0.0000 
     20 H20         0.3861   53.7610   24.7140 H         1 UNK         0.0000 
     21 C21         0.5989   51.7254   24.1991 C.2       1 UNK         0.0000 
     22 O22        -0.6205   51.5777   24.0997 O.2       1 UNK         0.0000 
     23 N23         1.5042   50.8319   23.7460 N.am      1 UNK         0.0000 
     24 N24         1.1724   49.8021   22.8400 N.pl3     1 UNK         0.0000 
     25 C25         1.2397   50.0842   21.4668 C.ar      1 UNK         0.0000 
     26 C26         0.5677   51.1770   20.9050 C.ar      1 UNK         0.0000 
     27 C27         0.6653   51.4403   19.5434 C.ar      1 UNK         0.0000 
     28 C28         1.4282   50.6054   18.7329 C.ar      1 UNK         0.0000 
     29 C29         2.0966   49.5132   19.2759 C.ar      1 UNK         0.0000 
     30 C30         1.9964   49.2489   20.6411 C.ar      1 UNK         0.0000 
     31 F31         1.5104   50.8590   17.4082 F         1 UNK         0.0000 
     32 H32         7.7822   55.2779   21.5996 H         1 UNK         0.0000 
     33 H33         5.8278   55.4319   20.0852 H         1 UNK         0.0000 
     34 H34         3.6413   54.6361   20.8216 H         1 UNK         0.0000 
     35 H35         5.4327   53.2864   24.4994 H         1 UNK         0.0000 
     36 H36         7.5659   54.0975   23.7653 H         1 UNK         0.0000 
     37 H37         4.8760   55.2393   25.3176 H         1 UNK         0.0000 
     38 H38         3.5073   55.8390   26.0820 H         1 UNK         0.0000 
     39 H39         5.6547   53.9318   27.2508 H         1 UNK         0.0000 
     40 H40         5.5326   55.6019   27.6748 H         1 UNK         0.0000 
     41 H41         4.6370   54.0162   29.4541 H         1 UNK         0.0000 
     42 H42         3.4607   55.1987   28.9391 H         1 UNK         0.0000 
     43 H43         2.3223   53.0157   29.0333 H         1 UNK         0.0000 
     44 H44         3.5394   52.2386   28.0832 H         1 UNK         0.0000 
     45 H45         0.2272   52.8151   26.9374 H         1 UNK         0.0000 
     46 H46         1.5046   51.6938   26.5983 H         1 UNK         0.0000 
     47 H47         2.4921   51.0362   23.7715 H         1 UNK         0.0000 
     48 H48         1.6727   48.9700   23.1279 H         1 UNK         0.0000 
     49 H49        -0.0275   51.8349   21.5188 H         1 UNK         0.0000 
     50 H50         0.1557   52.2907   19.1162 H         1 UNK         0.0000 
     51 H51         2.6997   48.8837   18.6363 H         1 UNK         0.0000 
     52 H52         2.5299   48.4047   21.0522 H         1 UNK         0.0000 
@<TRIPOS>BOND
     1    1    6 ar   
     2    1    2 ar   
     3    1   32 1    
     4    2    3 ar   
     5    2   33 1    
     6    3    4 ar   
     7    3   34 1    
     8    4    5 ar   
     9    4    7 1    
    10    5    6 ar   
    11    5   35 1    
    12    6   36 1    
    13    7    8 2    
    14    7    9 am   BACKBONE|DICT|INTERRES
    15    9   19 1    
    16    9   10 1    
    17   10   11 1    
    18   10   16 1    
    19   10   12 1    
    20   12   13 1    
    21   12   37 1    
    22   12   38 1    
    23   13   14 1    
    24   13   39 1    
    25   13   40 1    
    26   14   15 1    
    27   14   41 1    
    28   14   42 1    
    29   15   16 1    
    30   15   43 1    
    31   15   44 1    
    32   16   17 1    
    33   16   18 1    
    34   18   19 1    
    35   18   45 1    
    36   18   46 1    
    37   19   20 1    
    38   19   21 1    
    39   21   22 2    
    40   21   23 am   BACKBONE|DICT|INTERRES
    41   23   24 1    
    42   23   47 1    
    43   24   25 1    
    44   24   48 1    
    45   25   30 ar   
    46   25   26 ar   
    47   26   27 ar   
    48   26   49 1    
    49   27   28 ar   
    50   27   50 1    
    51   28   29 ar   
    52   28   31 1    
    53   29   30 ar   
    54   29   51 1    
    55   30   52 1    
@<TRIPOS>SUBSTRUCTURE
     1 UNK         1 GROUP             0       ****    0 ROOT    
