@<TRIPOS>MOLECULE
ZINC19353459_2099
54   57    1
SMALL
USER_CHARGES


@<TRIPOS>ATOM
      1 C1          1.2676   52.8819   25.1634 C.3       1 UNK         0.0000 
      2 C2          0.6171   52.4966   26.4883 C.ar      1 UNK         0.0000 
      3 C3         -0.7017   52.0436   26.4659 C.ar      1 UNK         0.0000 
      4 C4         -1.3741   51.6859   27.6377 C.ar      1 UNK         0.0000 
      5 C5         -0.6834   51.7849   28.8528 C.ar      1 UNK         0.0000 
      6 C6          0.6347   52.2397   28.8962 C.ar      1 UNK         0.0000 
      7 C7          1.2964   52.6097   27.7148 C.ar      1 UNK         0.0000 
      8 N8          2.6030   53.1306   27.6787 N.am      1 UNK         0.0000 
      9 C9          3.5644   53.2337   28.6211 C.2       1 UNK         0.0000 
     10 O10         3.4521   52.8614   29.7903 O.2       1 UNK         0.0000 
     11 C11         4.8819   53.8994   28.1711 C.3       1 UNK         0.0000 
     12 O12         4.9260   53.9939   26.7402 O.3       1 UNK         0.0000 
     13 C13         5.9256   54.6240   26.0910 C.2       1 UNK         0.0000 
     14 O14         6.8745   55.2001   26.6230 O.2       1 UNK         0.0000 
     15 C15         5.7383   54.5126   24.6501 C.ar      1 UNK         0.0000 
     16 C16         4.7372   54.0360   23.8246 C.ar      1 UNK         0.0000 
     17 C17         5.2313   54.1426   22.5120 C.ar      1 UNK         0.0000 
     18 N18         6.4252   54.7057   22.5104 N.2       1 UNK         0.0000 
     19 N19         6.7207   54.9240   23.7951 N.pl3     1 UNK         0.0000 
     20 H20         7.6197   55.2956   24.0774 H         1 UNK         0.0000 
     21 C21         4.5639   53.7068   21.2448 C.ar      1 UNK         0.0000 
     22 C22         3.5429   52.7494   21.2923 C.ar      1 UNK         0.0000 
     23 C23         2.9067   52.3415   20.1230 C.ar      1 UNK         0.0000 
     24 C24         3.2805   52.8967   18.9031 C.ar      1 UNK         0.0000 
     25 C25         4.3049   53.8371   18.8397 C.ar      1 UNK         0.0000 
     26 C26         4.9468   54.2393   20.0072 C.ar      1 UNK         0.0000 
     27 Br27        2.3716   52.3793   17.3136 Br        1 UNK         0.0000 
     28 N28        -2.7229   51.2959   27.5879 N.pl3     1 UNK         0.0000 
     29 C29        -3.5031   51.0441   26.3720 C.3       1 UNK         0.0000 
     30 C30        -4.9064   50.6317   26.8005 C.3       1 UNK         0.0000 
     31 C31        -4.6324   49.9268   28.1111 C.3       1 UNK         0.0000 
     32 C32        -3.5068   50.7689   28.7067 C.3       1 UNK         0.0000 
     33 H33         2.1204   52.2338   24.9663 H         1 UNK         0.0000 
     34 H34         0.5796   52.8025   24.3210 H         1 UNK         0.0000 
     35 H35         1.6221   53.9127   25.2026 H         1 UNK         0.0000 
     36 H36        -1.2118   51.9782   25.5174 H         1 UNK         0.0000 
     37 H37        -1.1686   51.5198   29.7811 H         1 UNK         0.0000 
     38 H38         1.1106   52.3137   29.8608 H         1 UNK         0.0000 
     39 H39         2.8880   53.4541   26.7666 H         1 UNK         0.0000 
     40 H40         4.9326   54.8973   28.6106 H         1 UNK         0.0000 
     41 H41         5.7261   53.3179   28.5446 H         1 UNK         0.0000 
     42 H42         3.7887   53.6244   24.1302 H         1 UNK         0.0000 
     43 H43         3.2347   52.3134   22.2306 H         1 UNK         0.0000 
     44 H44         2.1168   51.6058   20.1610 H         1 UNK         0.0000 
     45 H45         4.5943   54.2558   17.8874 H         1 UNK         0.0000 
     46 H46         5.7350   54.9750   19.9453 H         1 UNK         0.0000 
     47 H47        -3.0338   50.2600   25.7749 H         1 UNK         0.0000 
     48 H48        -3.5383   51.9532   25.7715 H         1 UNK         0.0000 
     49 H49        -5.3852   49.9789   26.0697 H         1 UNK         0.0000 
     50 H50        -5.5474   51.5055   26.9272 H         1 UNK         0.0000 
     51 H51        -5.5075   49.8918   28.7618 H         1 UNK         0.0000 
     52 H52        -4.2974   48.8969   27.9645 H         1 UNK         0.0000 
     53 H53        -3.9341   51.5777   29.2967 H         1 UNK         0.0000 
     54 H54        -2.8957   50.0978   29.3129 H         1 UNK         0.0000 
@<TRIPOS>BOND
     1    1    2 1    
     2    1   33 1    
     3    1   34 1    
     4    1   35 1    
     5    2    7 ar   
     6    2    3 ar   
     7    3    4 ar   
     8    3   36 1    
     9    4    5 ar   
    10    4   28 1    
    11    5    6 ar   
    12    5   37 1    
    13    6    7 ar   
    14    6   38 1    
    15    7    8 1    
    16    8    9 am   BACKBONE|DICT|INTERRES
    17    8   39 1    
    18    9   10 2    
    19    9   11 1    
    20   11   12 1    
    21   11   40 1    
    22   11   41 1    
    23   12   13 1    
    24   13   14 2    
    25   13   15 1    
    26   15   19 ar   
    27   15   16 ar   
    28   16   17 ar   
    29   16   42 1    
    30   17   18 ar   
    31   17   21 1    
    32   18   19 ar   
    33   19   20 1    
    34   21   26 ar   
    35   21   22 ar   
    36   22   23 ar   
    37   22   43 1    
    38   23   24 ar   
    39   23   44 1    
    40   24   25 ar   
    41   24   27 1    
    42   25   26 ar   
    43   25   45 1    
    44   26   46 1    
    45   28   32 1    
    46   28   29 1    
    47   29   30 1    
    48   29   47 1    
    49   29   48 1    
    50   30   31 1    
    51   30   49 1    
    52   30   50 1    
    53   31   32 1    
    54   31   51 1    
    55   31   52 1    
    56   32   53 1    
    57   32   54 1    
@<TRIPOS>SUBSTRUCTURE
     1 UNK         1 GROUP             0       ****    0 ROOT    
