@<TRIPOS>MOLECULE
ZINC63221858_4866
65   69    1
SMALL
USER_CHARGES


@<TRIPOS>ATOM
      1 C1         -0.3226   48.5331   16.6708 C.3       1 UNK         0.0000 
      2 N2          0.5412   48.1296   17.7808 N.pl3     1 UNK         0.0000 
      3 C3          1.4116   46.9795   17.5180 C.3       1 UNK         0.0000 
      4 C4          0.9701   49.0969   18.7334 C.ar      1 UNK         0.0000 
      5 C5          1.8614   48.7455   19.7591 C.ar      1 UNK         0.0000 
      6 C6          2.3044   49.6891   20.6795 C.ar      1 UNK         0.0000 
      7 C7          1.8807   51.0137   20.5911 C.ar      1 UNK         0.0000 
      8 C8          0.9643   51.3738   19.6018 C.ar      1 UNK         0.0000 
      9 C9          0.5136   50.4255   18.6876 C.ar      1 UNK         0.0000 
     10 C10         2.4416   52.0575   21.5655 C.3       1 UNK         0.0000 
     11 H11         2.9819   51.5092   22.3366 H         1 UNK         0.0000 
     12 C12         1.3726   52.8848   22.3238 C.3       1 UNK         0.0000 
     13 N13         0.1683   52.1295   22.7588 N.pl3     1 UNK         0.0000 
     14 S14         0.2294   50.8182   23.9381 S.o2      1 UNK         0.0000 
     15 O15        -1.0371   50.0888   23.8085 O.2       1 UNK         0.0000 
     16 O16         1.5051   50.1168   23.7802 O.2       1 UNK         0.0000 
     17 C17         0.2527   51.5669   25.5687 C.ar      1 UNK         0.0000 
     18 C18        -0.6708   51.1670   26.5369 C.ar      1 UNK         0.0000 
     19 C19        -0.6056   51.6966   27.8249 C.ar      1 UNK         0.0000 
     20 C20         0.3877   52.6144   28.1690 C.ar      1 UNK         0.0000 
     21 C21         1.3262   53.0149   27.1982 C.ar      1 UNK         0.0000 
     22 C22         1.2401   52.4959   25.9057 C.ar      1 UNK         0.0000 
     23 O23         2.3264   53.9142   27.4827 O.3       1 UNK         0.0000 
     24 C24         3.2873   53.4961   28.4427 C.3       1 UNK         0.0000 
     25 C25         2.7969   53.6302   29.8918 C.3       1 UNK         0.0000 
     26 C26         1.5626   52.7733   30.2207 C.3       1 UNK         0.0000 
     27 O27         0.4189   53.1142   29.4483 O.3       1 UNK         0.0000 
     28 C28         3.5108   52.9484   20.9345 C.2       1 UNK         0.0000 
     29 C29         4.5095   53.6513   21.5036 C.2       1 UNK         0.0000 
     30 C30         4.9193   53.7738   22.9107 C.2       1 UNK         0.0000 
     31 C31         5.9908   54.5121   23.2590 C.2       1 UNK         0.0000 
     32 C32         6.7055   55.2190   22.2054 C.2       1 UNK         0.0000 
     33 C33         6.3187   55.1513   20.9032 C.2       1 UNK         0.0000 
     34 C34         5.2266   54.3551   20.5296 C.2       1 UNK         0.0000 
     35 N35         4.7283   54.1305   19.3393 N.pl3     1 UNK         0.0000 
     36 C36         3.5948   53.1997   19.4390 C.3       1 UNK         0.0000 
     37 H37        -1.2068   49.0609   17.0311 H         1 UNK         0.0000 
     38 H38         0.2131   49.2039   15.9965 H         1 UNK         0.0000 
     39 H39        -0.6694   47.6751   16.0931 H         1 UNK         0.0000 
     40 H40         1.5376   46.3605   18.4064 H         1 UNK         0.0000 
     41 H41         1.0218   46.3415   16.7220 H         1 UNK         0.0000 
     42 H42         2.4019   47.3219   17.2079 H         1 UNK         0.0000 
     43 H43         2.2365   47.7403   19.8602 H         1 UNK         0.0000 
     44 H44         2.9973   49.3837   21.4487 H         1 UNK         0.0000 
     45 H45         0.6201   52.3938   19.5234 H         1 UNK         0.0000 
     46 H46        -0.1757   50.7567   17.9284 H         1 UNK         0.0000 
     47 H47         1.8083   53.3884   23.1826 H         1 UNK         0.0000 
     48 H48         1.0289   53.6939   21.6828 H         1 UNK         0.0000 
     49 H49        -0.5581   52.0118   22.0484 H         1 UNK         0.0000 
     50 H50        -1.4265   50.4266   26.3105 H         1 UNK         0.0000 
     51 H51        -1.3143   51.3659   28.5707 H         1 UNK         0.0000 
     52 H52         1.9869   52.7835   25.1853 H         1 UNK         0.0000 
     53 H53         4.1642   54.1295   28.3071 H         1 UNK         0.0000 
     54 H54         3.6352   52.4839   28.2272 H         1 UNK         0.0000 
     55 H55         2.5645   54.6781   30.0821 H         1 UNK         0.0000 
     56 H56         3.6135   53.3580   30.5622 H         1 UNK         0.0000 
     57 H57         1.2937   52.9213   31.2677 H         1 UNK         0.0000 
     58 H58         1.7820   51.7047   30.1368 H         1 UNK         0.0000 
     59 H59         4.3722   53.2912   23.7047 H         1 UNK         0.0000 
     60 H60         6.2941   54.6093   24.2912 H         1 UNK         0.0000 
     61 H61         7.5683   55.8138   22.4735 H         1 UNK         0.0000 
     62 H62         6.8892   55.6936   20.1622 H         1 UNK         0.0000 
     63 H63         2.7101   53.6850   19.0217 H         1 UNK         0.0000 
     64 H64         3.8388   52.3038   18.8608 H         1 UNK         0.0000 
     65 H65         5.0759   54.5151   18.4644 H         1 UNK         0.0000 
@<TRIPOS>BOND
     1    1    2 1    
     2    1   37 1    
     3    1   38 1    
     4    1   39 1    
     5    2    3 1    
     6    2    4 1    
     7    3   40 1    
     8    3   41 1    
     9    3   42 1    
    10    4    9 ar   
    11    4    5 ar   
    12    5    6 ar   
    13    5   43 1    
    14    6    7 ar   
    15    6   44 1    
    16    7    8 ar   
    17    7   10 1    
    18    8    9 ar   
    19    8   45 1    
    20    9   46 1    
    21   10   11 1    
    22   10   12 1    
    23   10   28 1    
    24   12   13 1    
    25   12   47 1    
    26   12   48 1    
    27   13   14 1    
    28   13   49 1    
    29   14   15 2    
    30   14   16 2    
    31   14   17 1    
    32   17   22 ar   
    33   17   18 ar   
    34   18   19 ar   
    35   18   50 1    
    36   19   20 ar   
    37   19   51 1    
    38   20   27 1    
    39   20   21 ar   
    40   21   22 ar   
    41   21   23 1    
    42   22   52 1    
    43   23   24 1    
    44   24   25 1    
    45   24   53 1    
    46   24   54 1    
    47   25   26 1    
    48   25   55 1    
    49   25   56 1    
    50   26   27 1    
    51   26   57 1    
    52   26   58 1    
    53   28   36 1    
    54   28   29 2    
    55   29   34 1    
    56   29   30 1    
    57   30   31 2    
    58   30   59 1    
    59   31   32 1    
    60   31   60 1    
    61   32   33 2    
    62   32   61 1    
    63   33   34 1    
    64   33   62 1    
    65   34   35 2    
    66   35   36 1    
    67   35   65 1    
    68   36   63 1    
    69   36   64 1    
@<TRIPOS>SUBSTRUCTURE
     1 UNK         1 GROUP             0       ****    0 ROOT    
