ZINC13361301_2595
                    3D
 Schrodinger Suite 2024-2.
 46 48  0  0  1  0            999 V2000
   -7.5151   48.6765   28.5887 C   0  0  0  0  0  0
   -6.2535   49.3957   28.1167 C   0  0  0  0  0  0
   -5.5593   48.8073   27.0511 C   0  0  0  0  0  0
   -4.4074   49.3904   26.5318 C   0  0  0  0  0  0
   -3.9353   50.5847   27.0683 C   0  0  0  0  0  0
   -4.6170   51.1796   28.1296 C   0  0  0  0  0  0
   -5.7777   50.6094   28.6837 C   0  0  0  0  0  0
   -6.4411   51.3150   29.8417 C   0  0  0  0  0  0
   -6.0966   52.4967   30.0826 O   0  0  0  0  0  0
   -2.4239   51.3236   26.4609 S   0  0  0  0  0  0
   -2.6024   52.7788   26.4794 O   0  0  0  0  0  0
   -2.0518   50.6410   25.2158 O   0  0  0  0  0  0
   -1.2349   50.8974   27.6797 N   0  0  0  0  0  0
   -0.0010   51.4923   27.4989 N   0  0  0  0  0  0
    0.4965   52.3736   28.3884 C   0  0  0  0  0  0
   -0.0605   52.7250   29.4313 O   0  0  0  0  0  0
    1.8030   52.8565   28.0445 C   0  0  0  0  0  0
    2.2699   53.2938   26.8061 C   0  0  0  0  0  0
    3.5958   53.7480   26.8384 C   0  0  0  0  0  0
    4.1569   53.6385   28.1185 C   0  0  0  0  0  0
    2.9968   53.0820   29.2857 S   0  0  0  0  0  0
    5.6203   53.8983   28.4549 C   0  0  0  0  0  0
    6.2813   54.6425   27.2793 C   0  0  0  0  0  0
    5.9071   54.0463   25.9093 C   0  0  1  0  0  0
    6.1315   52.9816   25.9147 H   0  0  0  0  0  0
    4.3940   54.2235   25.6304 C   0  0  0  0  0  0
    6.7218   54.6839   24.7692 C   0  0  0  0  0  0
   -8.3645   49.3626   28.5832 H   0  0  0  0  0  0
   -7.7827   47.8295   27.9531 H   0  0  0  0  0  0
   -7.3845   48.3115   29.6083 H   0  0  0  0  0  0
   -5.9095   47.8817   26.6180 H   0  0  0  0  0  0
   -3.8830   48.9023   25.7221 H   0  0  0  0  0  0
   -4.2131   52.0966   28.5358 H   0  0  0  0  0  0
   -1.1341   49.8763   27.7901 H   0  0  0  0  0  0
    0.5193   51.1726   26.6943 H   0  0  0  0  0  0
    1.6730   53.2854   25.9057 H   0  0  0  0  0  0
    6.1350   52.9512   28.6143 H   0  0  0  0  0  0
    5.7233   54.4967   29.3594 H   0  0  0  0  0  0
    7.3644   54.6168   27.4140 H   0  0  0  0  0  0
    6.0342   55.6967   27.3028 H   0  0  0  0  0  0
    4.1557   55.2695   25.4334 H   0  0  0  0  0  0
    4.1116   53.6697   24.7345 H   0  0  0  0  0  0
    6.5784   55.7642   24.7302 H   0  0  0  0  0  0
    6.4275   54.2785   23.8000 H   0  0  0  0  0  0
    7.7870   54.4967   24.8822 H   0  0  0  0  0  0
   -7.2939   50.7101   30.5261 O   0  5  0  0  0  0
  1  2  1  0  0  0
  1 28  1  0  0  0
  1 29  1  0  0  0
  1 30  1  0  0  0
  2  7  2  0  0  0
  2  3  1  0  0  0
  3  4  2  0  0  0
  3 31  1  0  0  0
  4  5  1  0  0  0
  4 32  1  0  0  0
  5  6  2  0  0  0
  5 10  1  0  0  0
  6  7  1  0  0  0
  6 33  1  0  0  0
  7  8  1  0  0  0
  8  9  2  0  0  0
  8 46  1  0  0  0
 10 11  2  0  0  0
 10 12  2  0  0  0
 10 13  1  0  0  0
 13 14  1  0  0  0
 13 34  1  0  0  0
 14 15  1  0  0  0
 14 35  1  0  0  0
 15 16  2  0  0  0
 15 17  1  0  0  0
 17 21  1  0  0  0
 17 18  2  0  0  0
 18 19  1  0  0  0
 18 36  1  0  0  0
 19 26  1  0  0  0
 19 20  2  0  0  0
 20 21  1  0  0  0
 20 22  1  0  0  0
 22 23  1  0  0  0
 22 37  1  0  0  0
 22 38  1  0  0  0
 23 24  1  0  0  0
 23 39  1  0  0  0
 23 40  1  0  0  0
 24 25  1  0  0  0
 24 26  1  0  0  0
 24 27  1  0  0  0
 26 41  1  0  0  0
 26 42  1  0  0  0
 27 43  1  0  0  0
 27 44  1  0  0  0
 27 45  1  0  0  0
M  CHG  1  46  -1
M  END
> <i_i_glide_confnum>
132

> <i_i_glide_lignum>
2596

> <i_i_glide_posenum>
385

> <i_i_glide_rotatable_bonds>
6

> <i_m_Source_File_Index>
3579

> <b_m_subgroup_collapsed>
0

> <r_i_docking_score>
-5.58857

> <r_i_glide_ecoul>
-5.94792

> <r_i_glide_eff_state_penalty>
0

> <r_i_glide_einternal>
8.01545

> <r_i_glide_emodel>
-49.874

> <r_i_glide_energy>
-37.4343

> <r_i_glide_erotb>
0.592379

> <r_i_glide_esite>
-0.21977

> <r_i_glide_evdw>
-31.4864

> <r_i_glide_gscore>
-5.58857

> <r_i_glide_hbond>
-0.348653

> <r_i_glide_ligand_efficiency>
-0.206984

> <r_i_glide_ligand_efficiency_ln>
-1.30093

> <r_i_glide_ligand_efficiency_sa>
-0.620952

> <r_i_glide_lipo>
-2.36955

> <r_i_glide_metal>
0

> <r_i_glide_rewards>
-0.776468

> <s_i_glide_gridfile>
wee1_glide-grid

> <s_m_Source_File>
wee1_decoys_glide_SP.sdf

> <s_m_Source_Path>
/Users/zhangxujun/Desktop

> <s_m_entry_id>
3854

> <s_m_entry_name>
wee1_decoys_glide_SP.3579

> <s_m_subgroup_title>
wee1_decoys_glide_SP

> <s_m_subgroupid>
wee1_decoys_glide_SP


$$$$
