@<TRIPOS>MOLECULE
ZINC35022863_3736
40   41    1
SMALL
USER_CHARGES


@<TRIPOS>ATOM
      1 C1         -1.3588   48.0952   23.9420 C.ar      1 UNK         0.0000 
      2 C2         -2.4380   48.7047   23.3103 C.ar      1 UNK         0.0000 
      3 C3         -2.9260   49.9217   23.7822 C.ar      1 UNK         0.0000 
      4 C4         -2.3497   50.5640   24.8926 C.ar      1 UNK         0.0000 
      5 C5         -1.2264   49.9461   25.5010 C.ar      1 UNK         0.0000 
      6 C6         -0.7596   48.7121   25.0356 C.ar      1 UNK         0.0000 
      7 N7         -0.5022   50.4969   26.5730 N.pl3     1 UNK         0.0000 
      8 C8          0.3847   51.5410   26.5744 C.2       1 UNK         0.0000 
      9 S9          0.6546   52.4913   25.2099 S.2       1 UNK         0.0000 
     10 N10         1.0122   51.6522   27.7929 N.pl3     1 UNK         0.0000 
     11 C11         2.0237   52.6341   28.2794 C.3       1 UNK         0.0000 
     12 H12         2.6114   52.0331   28.9779 H         1 UNK         0.0000 
     13 C13         1.4244   53.7926   29.1351 C.3       1 UNK         0.0000 
     14 Cl14        0.1910   53.1889   30.2796 Cl        1 UNK         0.0000 
     15 Cl15        2.7036   54.5969   30.0815 Cl        1 UNK         0.0000 
     16 Cl16        0.7045   55.0272   28.0824 Cl        1 UNK         0.0000 
     17 N17         2.9612   53.1299   27.2693 N.am      1 UNK         0.0000 
     18 C18         4.2738   53.3899   27.3529 C.2       1 UNK         0.0000 
     19 O19         4.9341   53.1869   28.3730 O.2       1 UNK         0.0000 
     20 C20         4.9009   53.9424   26.0893 C.ar      1 UNK         0.0000 
     21 C21         4.1620   54.0968   24.8998 C.ar      1 UNK         0.0000 
     22 C22         4.7768   54.4960   23.7210 C.ar      1 UNK         0.0000 
     23 C23         6.1322   54.7885   23.7216 C.ar      1 UNK         0.0000 
     24 C24         6.8631   54.6843   24.8965 C.ar      1 UNK         0.0000 
     25 C25         6.2626   54.2610   26.0763 C.ar      1 UNK         0.0000 
     26 Cl26        6.8996   55.2981   22.2628 Cl        1 UNK         0.0000 
     27 N27        -2.9451   51.8453   25.3677 N.pl3     1 UNK         0.0000 
     28 O28        -2.6801   52.2658   26.4885 O.co2     1 UNK         0.0000 
     29 O29        -3.7155   52.4400   24.6166 O.co2     1 UNK         0.0000 
     30 H30        -0.9814   47.1496   23.5826 H         1 UNK         0.0000 
     31 H31        -2.9035   48.2314   22.4581 H         1 UNK         0.0000 
     32 H32        -3.7773   50.3590   23.2800 H         1 UNK         0.0000 
     33 H33         0.0832   48.2314   25.5150 H         1 UNK         0.0000 
     34 H34        -0.5853   49.9520   27.4237 H         1 UNK         0.0000 
     35 H35         0.7467   50.9631   28.4819 H         1 UNK         0.0000 
     36 H36         2.5052   53.4156   26.4158 H         1 UNK         0.0000 
     37 H37         3.1098   53.8849   24.8428 H         1 UNK         0.0000 
     38 H38         4.1994   54.5831   22.8115 H         1 UNK         0.0000 
     39 H39         7.9043   54.9160   24.8819 H         1 UNK         0.0000 
     40 H40         6.8664   54.1600   26.9683 H         1 UNK         0.0000 
@<TRIPOS>BOND
     1    1    6 ar   
     2    1    2 ar   
     3    1   30 1    
     4    2    3 ar   
     5    2   31 1    
     6    3    4 ar   
     7    3   32 1    
     8    4    5 ar   
     9    4   27 1    
    10    5    6 ar   
    11    5    7 1    
    12    6   33 1    
    13    7    8 1    
    14    7   34 1    
    15    8    9 2    
    16    8   10 1    
    17   10   11 1    
    18   10   35 1    
    19   11   12 1    
    20   11   13 1    
    21   11   17 1    
    22   13   14 1    
    23   13   15 1    
    24   13   16 1    
    25   17   18 am   BACKBONE|DICT|INTERRES
    26   17   36 1    
    27   18   19 2    
    28   18   20 1    
    29   20   25 ar   
    30   20   21 ar   
    31   21   22 ar   
    32   21   37 1    
    33   22   23 ar   
    34   22   38 1    
    35   23   24 ar   
    36   23   26 1    
    37   24   25 ar   
    38   24   39 1    
    39   25   40 1    
    40   27   28 2    
    41   27   29 1    
@<TRIPOS>SUBSTRUCTURE
     1 UNK         1 GROUP             0       ****    0 ROOT    
