@<TRIPOS>MOLECULE
ZINC13202573_5933
56   59    1
SMALL
USER_CHARGES


@<TRIPOS>ATOM
      1 C1          7.1042   55.4684   22.5273 C.3       1 UNK         0.0000 
      2 C2          6.6171   54.1263   23.0885 C.3       1 UNK         0.0000 
      3 N3          5.5359   54.2287   24.0964 N.pl3     1 UNK         0.0000 
      4 C4          5.9599   54.4981   25.3835 C.ar      1 UNK         0.0000 
      5 O5          7.1044   54.8368   25.6818 O.2       1 UNK         0.0000 
      6 C6          4.8721   54.3565   26.4174 C.ar      1 UNK         0.0000 
      7 C7          5.1540   54.4946   27.7785 C.ar      1 UNK         0.0000 
      8 C8          4.1215   54.3421   28.6999 C.ar      1 UNK         0.0000 
      9 C9          2.8064   54.0686   28.2835 C.ar      1 UNK         0.0000 
     10 C10         2.5477   53.9553   26.9051 C.ar      1 UNK         0.0000 
     11 C11         3.5764   54.0979   25.9804 C.ar      1 UNK         0.0000 
     12 N12         3.2692   54.0501   24.6182 N.2       1 UNK         0.0000 
     13 C13         4.1996   54.0933   23.7359 C.ar      1 UNK         0.0000 
     14 S14         3.6261   54.0966   22.0313 S.3       1 UNK         0.0000 
     15 C15         4.0478   52.4194   21.4519 C.3       1 UNK         0.0000 
     16 C16         2.7827   51.5737   21.3123 C.2       1 UNK         0.0000 
     17 O17         1.8897   51.9311   20.5465 O.2       1 UNK         0.0000 
     18 N18         2.7041   50.4731   22.0817 N.am      1 UNK         0.0000 
     19 C19         1.5302   49.6159   22.3007 C.3       1 UNK         0.0000 
     20 H20         1.9559   48.7331   22.7764 H         1 UNK         0.0000 
     21 C21         0.5777   50.2195   23.3478 C.ar      1 UNK         0.0000 
     22 C22         0.4664   49.6243   24.6115 C.ar      1 UNK         0.0000 
     23 C23        -0.3422   50.1957   25.5902 C.ar      1 UNK         0.0000 
     24 C24        -1.0414   51.3727   25.3171 C.ar      1 UNK         0.0000 
     25 C25        -0.9609   51.9554   24.0511 C.ar      1 UNK         0.0000 
     26 C26        -0.1598   51.3766   23.0698 C.ar      1 UNK         0.0000 
     27 C27        -1.9014   52.0050   26.3958 C.3       1 UNK         0.0000 
     28 C28         0.8957   49.0948   21.0065 C.2       1 UNK         0.0000 
     29 C29         1.5373   48.6841   19.8325 C.2       1 UNK         0.0000 
     30 C30         0.6838   48.2472   18.8160 C.2       1 UNK         0.0000 
     31 C31        -0.6442   48.2956   19.1903 C.2       1 UNK         0.0000 
     32 S32        -0.8301   48.8936   20.8046 S.3       1 UNK         0.0000 
     33 C33         1.7086   53.9064   29.2934 C.2       1 UNK         0.0000 
     34 O34         0.5238   54.0068   28.8976 O.co2     1 UNK         0.0000 
     35 H35         7.9029   55.3109   21.8034 H         1 UNK         0.0000 
     36 H36         6.3055   56.0087   22.0190 H         1 UNK         0.0000 
     37 H37         7.5043   56.0969   23.3210 H         1 UNK         0.0000 
     38 H38         7.4713   53.5882   23.5078 H         1 UNK         0.0000 
     39 H39         6.3037   53.5053   22.2536 H         1 UNK         0.0000 
     40 H40         6.1525   54.7106   28.1327 H         1 UNK         0.0000 
     41 H41         4.3508   54.4381   29.7512 H         1 UNK         0.0000 
     42 H42         1.5455   53.7589   26.5499 H         1 UNK         0.0000 
     43 H43         4.7945   51.9370   22.0817 H         1 UNK         0.0000 
     44 H44         4.4691   52.5012   20.4492 H         1 UNK         0.0000 
     45 H45         3.4585   50.3100   22.7297 H         1 UNK         0.0000 
     46 H46         1.0178   48.7280   24.8523 H         1 UNK         0.0000 
     47 H47        -0.4132   49.7265   26.5616 H         1 UNK         0.0000 
     48 H48        -1.5053   52.8618   23.8312 H         1 UNK         0.0000 
     49 H49        -0.0958   51.8437   22.0992 H         1 UNK         0.0000 
     50 H50        -2.3892   51.2347   26.9955 H         1 UNK         0.0000 
     51 H51        -1.2929   52.6224   27.0581 H         1 UNK         0.0000 
     52 H52        -2.6918   52.6212   25.9636 H         1 UNK         0.0000 
     53 H53         2.6101   48.7181   19.7115 H         1 UNK         0.0000 
     54 H54         1.0295   47.9153   17.8464 H         1 UNK         0.0000 
     55 H55        -1.5115   48.0246   18.6047 H         1 UNK         0.0000 
     56 O56         2.0506   53.6968   30.4814 O.co2     1 UNK         0.0000 
@<TRIPOS>BOND
     1    1    2 1    
     2    1   35 1    
     3    1   36 1    
     4    1   37 1    
     5    2    3 1    
     6    2   38 1    
     7    2   39 1    
     8    3   13 ar   
     9    3    4 ar   
    10    4    5 2    
    11    4    6 ar   
    12    6   11 ar   
    13    6    7 ar   
    14    7    8 ar   
    15    7   40 1    
    16    8    9 ar   
    17    8   41 1    
    18    9   10 ar   
    19    9   33 1    
    20   10   11 ar   
    21   10   42 1    
    22   11   12 ar   
    23   12   13 ar   
    24   13   14 1    
    25   14   15 1    
    26   15   16 1    
    27   15   43 1    
    28   15   44 1    
    29   16   17 2    
    30   16   18 am   BACKBONE|DICT|INTERRES
    31   18   19 1    
    32   18   45 1    
    33   19   20 1    
    34   19   21 1    
    35   19   28 1    
    36   21   26 ar   
    37   21   22 ar   
    38   22   23 ar   
    39   22   46 1    
    40   23   24 ar   
    41   23   47 1    
    42   24   25 ar   
    43   24   27 1    
    44   25   26 ar   
    45   25   48 1    
    46   26   49 1    
    47   27   50 1    
    48   27   51 1    
    49   27   52 1    
    50   28   32 1    
    51   28   29 2    
    52   29   30 1    
    53   29   53 1    
    54   30   31 2    
    55   30   54 1    
    56   31   32 1    
    57   31   55 1    
    58   33   34 2    
    59   33   56 1    
@<TRIPOS>SUBSTRUCTURE
     1 UNK         1 GROUP             0       ****    0 ROOT    
