ZINC22242844_617
                    3D
 Schrodinger Suite 2024-2.
 55 58  0  0  1  0            999 V2000
   -3.3351   51.9196   26.2805 C   0  0  0  0  0  0
   -3.4031   52.7018   25.1297 C   0  0  0  0  0  0
   -2.4943   52.4920   24.0952 C   0  0  0  0  0  0
   -1.5189   51.4880   24.2133 C   0  0  0  0  0  0
   -1.4519   50.7195   25.3793 C   0  0  0  0  0  0
   -2.3624   50.9306   26.4101 C   0  0  0  0  0  0
   -0.5547   51.2015   23.2307 N   0  0  0  0  0  0
   -0.5536   51.5155   21.9163 C   0  0  0  0  0  0
   -1.4701   52.0962   21.3312 O   0  0  0  0  0  0
    0.6929   51.0782   21.1169 C   0  0  1  0  0  0
    1.3908   50.6519   21.8418 H   0  0  0  0  0  0
    0.2910   49.9925   20.0881 C   0  0  0  0  0  0
    1.5237   49.5998   19.2477 C   0  0  0  0  0  0
    2.1993   50.8196   18.5909 C   0  0  0  0  0  0
    2.6140   51.8230   19.6988 N   0  3  2  0  0  0
    1.3403   52.3136   20.4419 C   0  0  0  0  0  0
    3.4165   53.0011   19.0647 C   0  0  0  0  0  0
    4.3900   53.6913   20.0468 C   0  0  0  0  0  0
    5.3271   54.3271   19.5676 O   0  0  0  0  0  0
    4.1448   53.5842   21.3716 N   0  0  0  0  0  0
    4.8751   54.0968   22.4353 C   0  0  0  0  0  0
    4.4214   53.9856   23.6565 N   0  0  0  0  0  0
    5.2397   54.4644   24.5830 C   0  0  0  0  0  0
    6.4145   55.0092   24.0462 C   0  0  0  0  0  0
    6.4167   54.8966   22.3144 S   0  0  0  0  0  0
    4.8599   54.3584   26.0400 C   0  0  0  0  0  0
    3.5261   54.0976   26.4018 C   0  0  0  0  0  0
    3.1498   53.9827   27.7391 C   0  0  0  0  0  0
    4.1026   54.1210   28.7441 C   0  0  0  0  0  0
    5.4292   54.3799   28.4093 C   0  0  0  0  0  0
    5.8062   54.4971   27.0715 C   0  0  0  0  0  0
    7.1044   54.7413   26.7990 F   0  0  0  0  0  0
    1.8595   53.7398   28.0598 F   0  0  0  0  0  0
   -4.0426   52.0780   27.0811 H   0  0  0  0  0  0
   -4.1585   53.4685   25.0396 H   0  0  0  0  0  0
   -2.5610   53.1219   23.2227 H   0  0  0  0  0  0
   -0.7061   49.9451   25.4969 H   0  0  0  0  0  0
   -2.3139   50.3203   27.3020 H   0  0  0  0  0  0
    0.2097   50.6315   23.5597 H   0  0  0  0  0  0
   -0.4477   50.3721   19.3776 H   0  0  0  0  0  0
   -0.0661   49.0837   20.5777 H   0  0  0  0  0  0
    1.2340   48.8915   18.4696 H   0  0  0  0  0  0
    2.2515   49.0714   19.8668 H   0  0  0  0  0  0
    1.5543   51.3393   17.8796 H   0  0  0  0  0  0
    3.1043   50.4969   18.0817 H   0  0  0  0  0  0
    1.6286   53.0594   21.1823 H   0  0  0  0  0  0
    0.7052   52.7810   19.6844 H   0  0  0  0  0  0
    2.7066   53.6978   18.6154 H   0  0  0  0  0  0
    4.0144   52.5623   18.2615 H   0  0  0  0  0  0
    3.2969   53.1097   21.6337 H   0  0  0  0  0  0
    7.2562   55.4653   24.5425 H   0  0  0  0  0  0
    2.7599   53.9855   25.6492 H   0  0  0  0  0  0
    3.8113   54.0286   29.7786 H   0  0  0  0  0  0
    6.1732   54.4951   29.1850 H   0  0  0  0  0  0
    3.2385   51.3349   20.3274 H   0  0  0  0  0  0
  1  6  2  0  0  0
  1  2  1  0  0  0
  1 34  1  0  0  0
  2  3  2  0  0  0
  2 35  1  0  0  0
  3  4  1  0  0  0
  3 36  1  0  0  0
  4  5  2  0  0  0
  4  7  1  0  0  0
  5  6  1  0  0  0
  5 37  1  0  0  0
  6 38  1  0  0  0
  7  8  1  0  0  0
  7 39  1  0  0  0
  8  9  2  0  0  0
  8 10  1  0  0  0
 10 11  1  0  0  0
 10 16  1  0  0  0
 10 12  1  0  0  0
 12 13  1  0  0  0
 12 40  1  0  0  0
 12 41  1  0  0  0
 13 14  1  0  0  0
 13 42  1  0  0  0
 13 43  1  0  0  0
 14 15  1  0  0  0
 14 44  1  0  0  0
 14 45  1  0  0  0
 15 16  1  0  0  0
 15 17  1  0  0  0
 15 55  1  0  0  0
 16 46  1  0  0  0
 16 47  1  0  0  0
 17 18  1  0  0  0
 17 48  1  0  0  0
 17 49  1  0  0  0
 18 19  2  0  0  0
 18 20  1  0  0  0
 20 21  1  0  0  0
 20 50  1  0  0  0
 21 25  1  0  0  0
 21 22  2  0  0  0
 22 23  1  0  0  0
 23 24  2  0  0  0
 23 26  1  0  0  0
 24 25  1  0  0  0
 24 51  1  0  0  0
 26 31  2  0  0  0
 26 27  1  0  0  0
 27 28  2  0  0  0
 27 52  1  0  0  0
 28 29  1  0  0  0
 28 33  1  0  0  0
 29 30  2  0  0  0
 29 53  1  0  0  0
 30 31  1  0  0  0
 30 54  1  0  0  0
 31 32  1  0  0  0
M  CHG  1  15   1
M  END
> <i_i_glide_confnum>
43

> <i_i_glide_lignum>
618

> <i_i_glide_posenum>
358

> <i_i_glide_rotatable_bonds>
8

> <i_m_Source_File_Index>
3065

> <b_m_subgroup_collapsed>
0

> <r_i_docking_score>
-5.81815

> <r_i_glide_ecoul>
-6.24962

> <r_i_glide_eff_state_penalty>
0

> <r_i_glide_einternal>
8.24207

> <r_i_glide_emodel>
-65.1331

> <r_i_glide_energy>
-49.0845

> <r_i_glide_erotb>
0.768406

> <r_i_glide_esite>
-0.0333934

> <r_i_glide_evdw>
-42.8349

> <r_i_glide_gscore>
-5.81815

> <r_i_glide_hbond>
0

> <r_i_glide_ligand_efficiency>
-0.181817

> <r_i_glide_ligand_efficiency_ln>
-1.30284

> <r_i_glide_ligand_efficiency_sa>
-0.577234

> <r_i_glide_lipo>
-2.77786

> <r_i_glide_metal>
0

> <r_i_glide_rewards>
-0.69612

> <s_i_glide_gridfile>
wee1_glide-grid

> <s_m_Source_File>
wee1_decoys_glide_SP.sdf

> <s_m_Source_Path>
/Users/zhangxujun/Desktop

> <s_m_entry_id>
3340

> <s_m_entry_name>
wee1_decoys_glide_SP.3065

> <s_m_subgroup_title>
wee1_decoys_glide_SP

> <s_m_subgroupid>
wee1_decoys_glide_SP


$$$$
