ZINC65301129_5370
                    3D
 Schrodinger Suite 2024-2.
 69 73  0  0  1  0            999 V2000
   -5.8148   50.8697   28.3222 C   0  0  0  0  0  0
   -4.7464   51.2938   27.3326 C   0  0  0  0  0  0
   -3.5399   50.5970   27.2621 C   0  0  0  0  0  0
   -2.5666   50.9756   26.3431 C   0  0  0  0  0  0
   -2.7849   52.0594   25.4759 C   0  0  0  0  0  0
   -3.9981   52.7683   25.5458 C   0  0  0  0  0  0
   -4.9720   52.3697   26.4699 C   0  0  0  0  0  0
   -4.3131   53.9456   24.6275 C   0  0  0  0  0  0
   -1.7730   52.4927   24.6009 N   0  0  0  0  0  0
   -0.8881   51.7257   23.9264 C   0  0  0  0  0  0
   -0.9995   50.5029   23.8234 O   0  0  0  0  0  0
    0.2815   52.4517   23.2111 C   0  0  0  0  0  0
    0.6601   53.7812   23.9085 C   0  0  0  0  0  0
    2.0135   54.4039   23.4570 C   0  0  0  0  0  0
    3.1195   53.4365   23.4654 N   0  0  0  0  0  0
    2.7261   52.3197   22.5873 C   0  0  0  0  0  0
    1.5209   51.5390   23.1368 C   0  0  0  0  0  0
    4.4510   53.8647   23.6236 C   0  0  0  0  0  0
    5.3964   54.0968   22.5724 C   0  0  0  0  0  0
    6.7040   54.4752   22.8929 C   0  0  0  0  0  0
    7.0973   54.6527   24.1537 N   0  3  0  0  0  0
    6.2493   54.4907   25.1847 C   0  0  0  0  0  0
    4.8989   54.0969   24.9686 C   0  0  0  0  0  0
    4.2914   53.9697   26.2707 C   0  0  0  0  0  0
    5.0306   54.2615   27.3135 N   0  0  0  0  0  0
    6.6391   54.6441   26.8794 S   0  0  0  0  0  0
    2.8866   53.5332   26.6160 C   0  0  0  0  0  0
    5.1035   53.8587   21.1052 C   0  0  0  0  0  0
    4.8566   52.7052   20.7523 O   0  0  0  0  0  0
    5.1538   54.8947   20.2146 N   0  0  0  0  0  0
    5.9633   56.1187   20.3887 C   0  0  0  0  0  0
    7.3157   55.9150   19.6547 C   0  0  0  0  0  0
    7.1249   55.5072   18.1794 C   0  0  0  0  0  0
    6.1201   54.3478   18.0402 C   0  0  0  0  0  0
    4.8053   54.6398   18.8009 C   0  0  0  0  0  0
   -5.7246   49.8101   28.5721 H   0  0  0  0  0  0
   -6.8125   51.0082   27.9010 H   0  0  0  0  0  0
   -5.7414   51.4556   29.2390 H   0  0  0  0  0  0
   -3.3343   49.7624   27.9198 H   0  0  0  0  0  0
   -1.6349   50.4264   26.3314 H   0  0  0  0  0  0
   -5.9147   52.8981   26.5165 H   0  0  0  0  0  0
   -3.7680   53.8965   23.6859 H   0  0  0  0  0  0
   -5.3692   53.9431   24.3591 H   0  0  0  0  0  0
   -4.0956   54.8923   25.1206 H   0  0  0  0  0  0
   -1.7286   53.4876   24.4519 H   0  0  0  0  0  0
   -0.0397   52.6247   22.1835 H   0  0  0  0  0  0
   -0.1169   54.4966   23.6827 H   0  0  0  0  0  0
    0.7256   53.6533   24.9859 H   0  0  0  0  0  0
    1.9287   54.8675   22.4766 H   0  0  0  0  0  0
    2.2650   55.2097   24.1453 H   0  0  0  0  0  0
    2.4985   52.7023   21.5896 H   0  0  0  0  0  0
    3.5353   51.6039   22.4784 H   0  0  0  0  0  0
    1.8223   51.1751   24.1191 H   0  0  0  0  0  0
    1.3498   50.7018   22.4563 H   0  0  0  0  0  0
    7.4968   54.6126   22.1741 H   0  0  0  0  0  0
    2.5572   52.6945   26.0048 H   0  0  0  0  0  0
    2.7863   53.1986   27.6501 H   0  0  0  0  0  0
    2.1834   54.3540   26.4942 H   0  0  0  0  0  0
    5.4367   56.9268   19.8856 H   0  0  0  0  0  0
    6.0241   56.4655   21.4184 H   0  0  0  0  0  0
    7.8996   56.8361   19.6979 H   0  0  0  0  0  0
    7.9231   55.1618   20.1530 H   0  0  0  0  0  0
    8.0832   55.2319   17.7363 H   0  0  0  0  0  0
    6.7637   56.3662   17.6119 H   0  0  0  0  0  0
    6.5573   53.4129   18.4025 H   0  0  0  0  0  0
    5.9000   54.1771   16.9848 H   0  0  0  0  0  0
    4.0316   53.8786   18.6868 H   0  0  0  0  0  0
    4.3354   55.5461   18.4161 H   0  0  0  0  0  0
    8.0746   54.8964   24.2986 H   0  0  0  0  0  0
  1  2  1  0  0  0
  1 36  1  0  0  0
  1 37  1  0  0  0
  1 38  1  0  0  0
  2  7  2  0  0  0
  2  3  1  0  0  0
  3  4  2  0  0  0
  3 39  1  0  0  0
  4  5  1  0  0  0
  4 40  1  0  0  0
  5  6  2  0  0  0
  5  9  1  0  0  0
  6  7  1  0  0  0
  6  8  1  0  0  0
  7 41  1  0  0  0
  8 42  1  0  0  0
  8 43  1  0  0  0
  8 44  1  0  0  0
  9 10  1  0  0  0
  9 45  1  0  0  0
 10 11  2  0  0  0
 10 12  1  0  0  0
 12 17  1  0  0  0
 12 13  1  0  0  0
 12 46  1  0  0  0
 13 14  1  0  0  0
 13 47  1  0  0  0
 13 48  1  0  0  0
 14 15  1  0  0  0
 14 49  1  0  0  0
 14 50  1  0  0  0
 15 16  1  0  0  0
 15 18  1  0  0  0
 16 17  1  0  0  0
 16 51  1  0  0  0
 16 52  1  0  0  0
 17 53  1  0  0  0
 17 54  1  0  0  0
 18 23  2  0  0  0
 18 19  1  0  0  0
 19 20  2  0  0  0
 19 28  1  0  0  0
 20 21  1  0  0  0
 20 55  1  0  0  0
 21 22  2  0  0  0
 21 69  1  0  0  0
 22 26  1  0  0  0
 22 23  1  0  0  0
 23 24  1  0  0  0
 24 25  2  0  0  0
 24 27  1  0  0  0
 25 26  1  0  0  0
 27 56  1  0  0  0
 27 57  1  0  0  0
 27 58  1  0  0  0
 28 29  2  0  0  0
 28 30  1  0  0  0
 30 35  1  0  0  0
 30 31  1  0  0  0
 31 32  1  0  0  0
 31 59  1  0  0  0
 31 60  1  0  0  0
 32 33  1  0  0  0
 32 61  1  0  0  0
 32 62  1  0  0  0
 33 34  1  0  0  0
 33 63  1  0  0  0
 33 64  1  0  0  0
 34 35  1  0  0  0
 34 65  1  0  0  0
 34 66  1  0  0  0
 35 67  1  0  0  0
 35 68  1  0  0  0
M  CHG  1  21   1
M  END
> <i_i_glide_confnum>
247

> <i_i_glide_lignum>
5371

> <i_i_glide_posenum>
253

> <i_i_glide_rotatable_bonds>
6

> <i_m_Source_File_Index>
6041

> <b_m_subgroup_collapsed>
0

> <r_i_docking_score>
-5.26578

> <r_i_glide_ecoul>
-0.570802

> <r_i_glide_eff_state_penalty>
0

> <r_i_glide_einternal>
3.36632

> <r_i_glide_emodel>
-58.5699

> <r_i_glide_energy>
-45.3661

> <r_i_glide_erotb>
0.503465

> <r_i_glide_esite>
0

> <r_i_glide_evdw>
-44.7953

> <r_i_glide_gscore>
-5.26578

> <r_i_glide_hbond>
0

> <r_i_glide_ligand_efficiency>
-0.150451

> <r_i_glide_ligand_efficiency_ln>
-1.15595

> <r_i_glide_ligand_efficiency_sa>
-0.492134

> <r_i_glide_lipo>
-3.08529

> <r_i_glide_metal>
0

> <r_i_glide_rewards>
-0.358565

> <s_i_glide_gridfile>
wee1_glide-grid

> <s_m_Source_File>
wee1_decoys_glide_SP.sdf

> <s_m_Source_Path>
/Users/zhangxujun/Desktop

> <s_m_entry_id>
6316

> <s_m_entry_name>
wee1_decoys_glide_SP.6041

> <s_m_subgroup_title>
wee1_decoys_glide_SP

> <s_m_subgroupid>
wee1_decoys_glide_SP


$$$$
