@<TRIPOS>MOLECULE
ZINC11323729_5328
74   77    1
SMALL
USER_CHARGES


@<TRIPOS>ATOM
      1 C1          3.4624   51.8840   31.8550 C.3       1 UNK         0.0000 
      2 C2          2.5365   52.4560   30.7698 C.3       1 UNK         0.0000 
      3 C3          4.1938   52.3674   28.8367 C.3       1 UNK         0.0000 
      4 C4          5.0312   53.2318   27.8770 C.3       1 UNK         0.0000 
      5 N5          4.2445   54.1927   27.0904 N.pl3     1 UNK         0.0000 
      6 C6          3.2982   54.9646   27.9130 C.3       1 UNK         0.0000 
      7 C7          2.4242   54.1233   28.8609 C.3       1 UNK         0.0000 
      8 C8          4.2126   54.1767   25.6956 C.ar      1 UNK         0.0000 
      9 C9          2.9803   54.0881   25.0323 C.ar      1 UNK         0.0000 
     10 C10         2.9064   54.0540   23.6412 C.ar      1 UNK         0.0000 
     11 C11         4.0672   54.0967   22.8695 C.ar      1 UNK         0.0000 
     12 C12         5.3087   54.1623   23.5186 C.ar      1 UNK         0.0000 
     13 C13         5.3877   54.2185   24.9134 C.ar      1 UNK         0.0000 
     14 C14         6.7675   54.3825   25.5339 C.3       1 UNK         0.0000 
     15 N15         3.8894   54.0878   21.4730 N.am      1 UNK         0.0000 
     16 C16         4.7686   54.3469   20.4819 C.2       1 UNK         0.0000 
     17 O17         5.9451   54.6494   20.6540 O.2       1 UNK         0.0000 
     18 C18         4.1895   54.2800   19.0487 C.3       1 UNK         0.0000 
     19 C19         4.6770   55.4802   18.2002 C.3       1 UNK         0.0000 
     20 C20         4.0350   55.3983   16.7966 C.3       1 UNK         0.0000 
     21 N21         4.2166   54.0648   16.1518 N.pl3     1 UNK         0.0000 
     22 C22         3.9710   52.8629   16.9964 C.3       1 UNK         0.0000 
     23 C23         4.6465   52.9675   18.3794 C.3       1 UNK         0.0000 
     24 S24         5.3021   53.9151   14.7559 S.o2      1 UNK         0.0000 
     25 O25         5.2329   55.1651   13.9896 O.2       1 UNK         0.0000 
     26 O26         5.0487   52.6170   14.1180 O.2       1 UNK         0.0000 
     27 C27         6.9415   53.8316   15.4679 C.ar      1 UNK         0.0000 
     28 C28         7.6683   55.0030   15.6912 C.ar      1 UNK         0.0000 
     29 C29         8.9556   54.9336   16.2155 C.ar      1 UNK         0.0000 
     30 C30         9.5372   53.6967   16.5140 C.ar      1 UNK         0.0000 
     31 C31         8.7980   52.5156   16.3152 C.ar      1 UNK         0.0000 
     32 C32         7.4996   52.5939   15.7999 C.ar      1 UNK         0.0000 
     33 C33         9.3914   51.1429   16.6047 C.3       1 UNK         0.0000 
     34 C34        10.9590   53.6685   17.0477 C.3       1 UNK         0.0000 
     35 H35         2.8976   51.2528   32.5397 H         1 UNK         0.0000 
     36 H36         4.2794   51.2933   31.4576 H         1 UNK         0.0000 
     37 H37         3.9305   52.6687   32.4480 H         1 UNK         0.0000 
     38 H38         1.7981   53.1304   31.2080 H         1 UNK         0.0000 
     39 H39         2.0010   51.6959   30.1977 H         1 UNK         0.0000 
     40 H40         4.8706   51.7877   29.4596 H         1 UNK         0.0000 
     41 H41         3.5033   51.7019   28.3171 H         1 UNK         0.0000 
     42 H42         5.5792   52.5576   27.2218 H         1 UNK         0.0000 
     43 H43         5.7608   53.8233   28.4312 H         1 UNK         0.0000 
     44 H44         3.9082   55.6397   28.5118 H         1 UNK         0.0000 
     45 H45         2.6813   55.6024   27.2822 H         1 UNK         0.0000 
     46 H46         1.8682   54.7827   29.5325 H         1 UNK         0.0000 
     47 H47         1.7397   53.4524   28.3375 H         1 UNK         0.0000 
     48 H48         2.0624   54.0339   25.6004 H         1 UNK         0.0000 
     49 H49         1.9353   53.9974   23.1700 H         1 UNK         0.0000 
     50 H50         6.2276   54.1896   22.9523 H         1 UNK         0.0000 
     51 H51         7.1049   53.4247   25.9307 H         1 UNK         0.0000 
     52 H52         7.5034   54.7485   24.8167 H         1 UNK         0.0000 
     53 H53         6.7383   55.1030   26.3501 H         1 UNK         0.0000 
     54 H54         2.9362   53.9401   21.1713 H         1 UNK         0.0000 
     55 H55         3.1046   54.2875   19.1493 H         1 UNK         0.0000 
     56 H56         5.7573   55.4626   18.0492 H         1 UNK         0.0000 
     57 H57         4.3555   56.4321   18.6214 H         1 UNK         0.0000 
     58 H58         4.4757   56.1609   16.1548 H         1 UNK         0.0000 
     59 H59         2.9655   55.6189   16.8183 H         1 UNK         0.0000 
     60 H60         2.8926   52.7157   17.0726 H         1 UNK         0.0000 
     61 H61         4.3489   51.9820   16.4752 H         1 UNK         0.0000 
     62 H62         4.3025   52.0997   18.9444 H         1 UNK         0.0000 
     63 H63         5.7241   52.9293   18.2131 H         1 UNK         0.0000 
     64 H64         7.2414   55.9630   15.4454 H         1 UNK         0.0000 
     65 H65         9.5108   55.8452   16.3697 H         1 UNK         0.0000 
     66 H66         6.9255   51.6925   15.6401 H         1 UNK         0.0000 
     67 H67         8.8341   50.3484   16.1066 H         1 UNK         0.0000 
     68 H68         9.4088   50.9461   17.6774 H         1 UNK         0.0000 
     69 H69        10.4138   51.0789   16.2302 H         1 UNK         0.0000 
     70 H70        11.2360   54.6172   17.5173 H         1 UNK         0.0000 
     71 H71        11.0735   52.9017   17.8143 H         1 UNK         0.0000 
     72 H72        11.6626   53.4454   16.2411 H         1 UNK         0.0000 
     73 N73         3.3585   53.2827   29.7523 N.4       1 UNK         0.0000 
     74 H74         3.9920   53.9032   30.2400 H         1 UNK         0.0000 
@<TRIPOS>BOND
     1    1    2 1    
     2    1   35 1    
     3    1   36 1    
     4    1   37 1    
     5    2   38 1    
     6    2   39 1    
     7    2   73 1    
     8    3    4 1    
     9    3   40 1    
    10    3   41 1    
    11    3   73 1    
    12    4    5 1    
    13    4   42 1    
    14    4   43 1    
    15    5    6 1    
    16    5    8 1    
    17    6    7 1    
    18    6   44 1    
    19    6   45 1    
    20    7   46 1    
    21    7   47 1    
    22    7   73 1    
    23    8   13 ar   
    24    8    9 ar   
    25    9   10 ar   
    26    9   48 1    
    27   10   11 ar   
    28   10   49 1    
    29   11   12 ar   
    30   11   15 1    
    31   12   13 ar   
    32   12   50 1    
    33   13   14 1    
    34   14   51 1    
    35   14   52 1    
    36   14   53 1    
    37   15   16 am   BACKBONE|DICT|INTERRES
    38   15   54 1    
    39   16   17 2    
    40   16   18 1    
    41   18   23 1    
    42   18   19 1    
    43   18   55 1    
    44   19   20 1    
    45   19   56 1    
    46   19   57 1    
    47   20   21 1    
    48   20   58 1    
    49   20   59 1    
    50   21   22 1    
    51   21   24 1    
    52   22   23 1    
    53   22   60 1    
    54   22   61 1    
    55   23   62 1    
    56   23   63 1    
    57   24   25 2    
    58   24   26 2    
    59   24   27 1    
    60   27   32 ar   
    61   27   28 ar   
    62   28   29 ar   
    63   28   64 1    
    64   29   30 ar   
    65   29   65 1    
    66   30   31 ar   
    67   30   34 1    
    68   31   32 ar   
    69   31   33 1    
    70   32   66 1    
    71   33   67 1    
    72   33   68 1    
    73   33   69 1    
    74   34   70 1    
    75   34   71 1    
    76   34   72 1    
    77   73   74 1    
@<TRIPOS>SUBSTRUCTURE
     1 UNK         1 GROUP             0       ****    0 ROOT    
