@<TRIPOS>MOLECULE
ZINC13124387_3594
53   57    1
SMALL
USER_CHARGES


@<TRIPOS>ATOM
      1 C1         -2.9484   48.0420   25.0347 C.3       1 UNK         0.0000 
      2 C2         -1.8252   48.8187   24.3731 C.ar      1 UNK         0.0000 
      3 C3         -0.5291   48.7263   24.8793 C.ar      1 UNK         0.0000 
      4 C4          0.5020   49.4605   24.2992 C.ar      1 UNK         0.0000 
      5 C5          0.2424   50.3099   23.2183 C.ar      1 UNK         0.0000 
      6 C6         -1.0580   50.3994   22.6890 C.ar      1 UNK         0.0000 
      7 C7         -2.0825   49.6482   23.2775 C.ar      1 UNK         0.0000 
      8 C8         -1.3799   51.2572   21.4712 C.3       1 UNK         0.0000 
      9 N9          1.3126   51.0834   22.7195 N.pl3     1 UNK         0.0000 
     10 C10         2.3003   50.6358   21.8651 C.ar      1 UNK         0.0000 
     11 C11         3.1819   51.6885   21.6887 C.ar      1 UNK         0.0000 
     12 C12         2.7756   52.7922   22.4597 C.ar      1 UNK         0.0000 
     13 C13         1.5575   52.4126   23.0282 C.ar      1 UNK         0.0000 
     14 C14         0.5829   53.2141   23.8776 C.3       1 UNK         0.0000 
     15 C15         3.4746   54.1391   22.6138 C.3       1 UNK         0.0000 
     16 H16         2.7449   54.9083   22.8548 H         1 UNK         0.0000 
     17 N17         4.0840   54.4928   21.3140 N.pl3     1 UNK         0.0000 
     18 C18         5.4715   54.7560   21.1206 C.2       1 UNK         0.0000 
     19 N19         6.3046   54.7312   22.0784 N.2       1 UNK         0.0000 
     20 C20         5.8879   54.4774   23.3518 C.ar      1 UNK         0.0000 
     21 N21         4.5539   54.1944   23.6440 N.pl3     1 UNK         0.0000 
     22 C22         4.4844   54.1057   25.0261 C.ar      1 UNK         0.0000 
     23 C23         3.4470   53.8875   25.9407 C.ar      1 UNK         0.0000 
     24 C24         3.7854   53.8863   27.2968 C.ar      1 UNK         0.0000 
     25 C25         5.0932   54.0932   27.7338 C.ar      1 UNK         0.0000 
     26 C26         6.1295   54.3162   26.8284 C.ar      1 UNK         0.0000 
     27 C27         5.8206   54.3273   25.4603 C.ar      1 UNK         0.0000 
     28 N28         6.6590   54.5461   24.4058 N.2       1 UNK         0.0000 
     29 N29         5.9417   55.0370   19.8275 N.pl3     1 UNK         0.0000 
     30 C30         2.3085   49.2338   21.2882 C.3       1 UNK         0.0000 
     31 H31        -2.8125   48.0341   26.1180 H         1 UNK         0.0000 
     32 H32        -2.9628   47.0103   24.6848 H         1 UNK         0.0000 
     33 H33        -3.9194   48.5011   24.8434 H         1 UNK         0.0000 
     34 H34        -0.3210   48.0972   25.7339 H         1 UNK         0.0000 
     35 H35         1.5003   49.3725   24.7047 H         1 UNK         0.0000 
     36 H36        -3.0865   49.7130   22.8852 H         1 UNK         0.0000 
     37 H37        -0.5379   51.2919   20.7777 H         1 UNK         0.0000 
     38 H38        -2.2168   50.8376   20.9100 H         1 UNK         0.0000 
     39 H39        -1.6353   52.2756   21.7643 H         1 UNK         0.0000 
     40 H40         4.0714   51.6552   21.0754 H         1 UNK         0.0000 
     41 H41         0.9147   54.2376   24.0470 H         1 UNK         0.0000 
     42 H42        -0.3929   53.2926   23.4021 H         1 UNK         0.0000 
     43 H43         0.4223   52.7573   24.8548 H         1 UNK         0.0000 
     44 H44         3.4447   54.7051   20.5591 H         1 UNK         0.0000 
     45 H45         2.4317   53.7196   25.6303 H         1 UNK         0.0000 
     46 H46         3.0108   53.7158   28.0307 H         1 UNK         0.0000 
     47 H47         5.3077   54.0816   28.7931 H         1 UNK         0.0000 
     48 H48         7.1382   54.4783   27.1773 H         1 UNK         0.0000 
     49 H49         6.9418   55.1017   19.7160 H         1 UNK         0.0000 
     50 H50         5.5396   54.5052   19.0701 H         1 UNK         0.0000 
     51 H51         2.9223   49.1774   20.3886 H         1 UNK         0.0000 
     52 H52         2.7041   48.5080   21.9999 H         1 UNK         0.0000 
     53 H53         1.3118   48.8961   21.0023 H         1 UNK         0.0000 
@<TRIPOS>BOND
     1    1    2 1    
     2    1   31 1    
     3    1   32 1    
     4    1   33 1    
     5    2    7 ar   
     6    2    3 ar   
     7    3    4 ar   
     8    3   34 1    
     9    4    5 ar   
    10    4   35 1    
    11    5    6 ar   
    12    5    9 1    
    13    6    7 ar   
    14    6    8 1    
    15    7   36 1    
    16    8   37 1    
    17    8   38 1    
    18    8   39 1    
    19    9   13 ar   
    20    9   10 ar   
    21   10   11 ar   
    22   10   30 1    
    23   11   12 ar   
    24   11   40 1    
    25   12   13 ar   
    26   12   15 1    
    27   13   14 1    
    28   14   41 1    
    29   14   42 1    
    30   14   43 1    
    31   15   16 1    
    32   15   21 1    
    33   15   17 1    
    34   17   18 1    
    35   17   44 1    
    36   18   19 2    
    37   18   29 1    
    38   19   20 1    
    39   20   28 ar   
    40   20   21 ar   
    41   21   22 ar   
    42   22   27 ar   
    43   22   23 ar   
    44   23   24 ar   
    45   23   45 1    
    46   24   25 ar   
    47   24   46 1    
    48   25   26 ar   
    49   25   47 1    
    50   26   27 ar   
    51   26   48 1    
    52   27   28 ar   
    53   29   49 1    
    54   29   50 1    
    55   30   51 1    
    56   30   52 1    
    57   30   53 1    
@<TRIPOS>SUBSTRUCTURE
     1 UNK         1 GROUP             0       ****    0 ROOT    
