ZINC41551542_4047
                    3D
 Schrodinger Suite 2024-2.
 56 60  0  0  1  0            999 V2000
    7.4844   58.6185   17.7466 C   0  0  0  0  0  0
    8.0103   57.2597   17.2342 C   0  0  0  0  0  0
    9.4034   56.8616   17.7655 C   0  0  0  0  0  0
    7.0442   56.2025   17.3040 O   0  0  0  0  0  0
    6.5586   55.6809   18.4907 C   0  0  0  0  0  0
    6.9166   56.1101   19.7791 C   0  0  0  0  0  0
    6.3660   55.5118   20.9114 C   0  0  0  0  0  0
    5.4544   54.4577   20.7863 C   0  0  0  0  0  0
    4.8844   53.7195   21.9432 C   0  0  0  0  0  0
    4.1105   52.6356   21.6756 C   0  0  0  0  0  0
    3.7281   52.2237   20.3227 C   0  0  0  0  0  0
    2.9991   51.2770   20.0333 O   0  0  0  0  0  0
    4.2092   52.9899   19.2813 O   0  0  0  0  0  0
    5.1033   54.0266   19.4972 C   0  0  0  0  0  0
    5.6395   54.6399   18.3661 C   0  0  0  0  0  0
    5.1506   54.0488   23.3405 C   0  0  0  0  0  0
    6.3225   54.0991   23.7240 O   0  0  0  0  0  0
    4.1082   54.3507   24.1749 N   0  0  0  0  0  0
    4.3898   54.7665   25.5683 C   0  0  0  0  0  0
    3.8197   53.7098   26.5325 C   0  0  0  0  0  0
    2.3717   53.3859   26.1750 C   0  0  0  0  0  0
    1.8824   53.6356   24.9452 C   0  0  0  0  0  0
    2.6676   54.2846   23.8096 C   0  0  0  0  0  0
    1.5003   52.8719   27.2095 C   0  0  0  0  0  0
    0.7969   51.6815   27.2343 C   0  0  0  0  0  0
    0.1336   51.5694   28.4310 N   0  0  0  0  0  0
   -0.4341   50.7626   28.6643 H   0  0  0  0  0  0
    0.3658   52.6879   29.2048 C   0  0  0  0  0  0
    1.2077   53.5489   28.4376 C   0  0  0  0  0  0
    1.5636   54.7987   28.9648 C   0  0  0  0  0  0
    1.0975   55.1595   30.2209 C   0  0  0  0  0  0
    0.3047   54.2884   30.9686 C   0  0  0  0  0  0
   -0.0774   53.0346   30.4851 C   0  0  0  0  0  0
    1.5045   56.8957   30.8812 Br  0  0  0  0  0  0
    8.2145   59.4092   17.5803 H   0  0  0  0  0  0
    7.2330   58.6309   18.8037 H   0  0  0  0  0  0
    6.5791   58.9064   17.2060 H   0  0  0  0  0  0
    8.1476   57.4027   16.1601 H   0  0  0  0  0  0
   10.1202   57.6718   17.6319 H   0  0  0  0  0  0
    9.4169   56.5922   18.8193 H   0  0  0  0  0  0
    9.7864   56.0011   17.2153 H   0  0  0  0  0  0
    7.6323   56.8953   19.9321 H   0  0  0  0  0  0
    6.6795   55.8643   21.8826 H   0  0  0  0  0  0
    3.6938   52.0557   22.4815 H   0  0  0  0  0  0
    5.3562   54.2934   17.3817 H   0  0  0  0  0  0
    5.4371   55.0145   25.7591 H   0  0  0  0  0  0
    3.8549   55.6996   25.7307 H   0  0  0  0  0  0
    4.4311   52.8179   26.4571 H   0  0  0  0  0  0
    3.9168   54.0434   27.5630 H   0  0  0  0  0  0
    0.8411   53.4146   24.7622 H   0  0  0  0  0  0
    2.2921   55.2969   23.6877 H   0  0  0  0  0  0
    2.4306   53.8129   22.8628 H   0  0  0  0  0  0
    0.7253   50.8838   26.5085 H   0  0  0  0  0  0
    2.1687   55.4853   28.3918 H   0  0  0  0  0  0
   -0.0385   54.5942   31.9458 H   0  0  0  0  0  0
   -0.6985   52.3754   31.0763 H   0  0  0  0  0  0
  1  2  1  0  0  0
  1 35  1  0  0  0
  1 36  1  0  0  0
  1 37  1  0  0  0
  2  3  1  0  0  0
  2  4  1  0  0  0
  2 38  1  0  0  0
  3 39  1  0  0  0
  3 40  1  0  0  0
  3 41  1  0  0  0
  4  5  1  0  0  0
  5 15  2  0  0  0
  5  6  1  0  0  0
  6  7  2  0  0  0
  6 42  1  0  0  0
  7  8  1  0  0  0
  7 43  1  0  0  0
  8 14  2  0  0  0
  8  9  1  0  0  0
  9 10  2  0  0  0
  9 16  1  0  0  0
 10 11  1  0  0  0
 10 44  1  0  0  0
 11 12  2  0  0  0
 11 13  1  0  0  0
 13 14  1  0  0  0
 14 15  1  0  0  0
 15 45  1  0  0  0
 16 17  2  0  0  0
 16 18  1  0  0  0
 18 23  1  0  0  0
 18 19  1  0  0  0
 19 20  1  0  0  0
 19 46  1  0  0  0
 19 47  1  0  0  0
 20 21  1  0  0  0
 20 48  1  0  0  0
 20 49  1  0  0  0
 21 22  2  0  0  0
 21 24  1  0  0  0
 22 23  1  0  0  0
 22 50  1  0  0  0
 23 51  1  0  0  0
 23 52  1  0  0  0
 24 29  1  0  0  0
 24 25  2  0  0  0
 25 26  1  0  0  0
 25 53  1  0  0  0
 26 27  1  0  0  0
 26 28  1  0  0  0
 28 33  2  0  0  0
 28 29  1  0  0  0
 29 30  2  0  0  0
 30 31  1  0  0  0
 30 54  1  0  0  0
 31 32  2  0  0  0
 31 34  1  0  0  0
 32 33  1  0  0  0
 32 55  1  0  0  0
 33 56  1  0  0  0
M  END
> <i_i_glide_confnum>
50

> <i_i_glide_lignum>
4048

> <i_i_glide_posenum>
351

> <i_i_glide_rotatable_bonds>
5

> <i_m_Source_File_Index>
3965

> <b_m_subgroup_collapsed>
0

> <r_i_docking_score>
-6.21342

> <r_i_glide_ecoul>
0.444495

> <r_i_glide_eff_state_penalty>
0

> <r_i_glide_einternal>
6.11389

> <r_i_glide_emodel>
-68.3458

> <r_i_glide_energy>
-51.3782

> <r_i_glide_erotb>
0.318009

> <r_i_glide_esite>
-0.0177262

> <r_i_glide_evdw>
-51.8227

> <r_i_glide_gscore>
-6.21342

> <r_i_glide_hbond>
0

> <r_i_glide_ligand_efficiency>
-0.188285

> <r_i_glide_ligand_efficiency_ln>
-1.38183

> <r_i_glide_ligand_efficiency_sa>
-0.603932

> <r_i_glide_lipo>
-3.39366

> <r_i_glide_metal>
0

> <r_i_glide_rewards>
-0.595579

> <s_i_glide_gridfile>
wee1_glide-grid

> <s_m_Source_File>
wee1_decoys_glide_SP.sdf

> <s_m_Source_Path>
/Users/zhangxujun/Desktop

> <s_m_entry_id>
4240

> <s_m_entry_name>
wee1_decoys_glide_SP.3965

> <s_m_subgroup_title>
wee1_decoys_glide_SP

> <s_m_subgroupid>
wee1_decoys_glide_SP


$$$$
