@<TRIPOS>MOLECULE
ZINC04177465_4414
51   54    1
SMALL
USER_CHARGES


@<TRIPOS>ATOM
      1 C1          5.8123   53.5262   13.3888 C.3       1 UNK         0.0000 
      2 C2          5.8983   54.1611   14.7904 C.3       1 UNK         0.0000 
      3 H3          5.5504   55.1905   14.6791 H         1 UNK         0.0000 
      4 C4          7.3410   54.1417   15.3278 C.3       1 UNK         0.0000 
      5 C5          7.4661   54.9847   16.6090 C.3       1 UNK         0.0000 
      6 C6          6.3816   54.5337   17.5759 C.2       1 UNK         0.0000 
      7 C7          5.2135   53.8378   17.2209 C.2       1 UNK         0.0000 
      8 C8          4.3842   53.5670   18.3433 C.2       1 UNK         0.0000 
      9 C9          4.9351   54.0732   19.5391 C.2       1 UNK         0.0000 
     10 S10         6.4482   54.8952   19.2598 S.3       1 UNK         0.0000 
     11 N11         4.3486   53.9957   20.8018 N.am      1 UNK         0.0000 
     12 C12         4.8794   54.2781   22.0128 C.2       1 UNK         0.0000 
     13 O13         6.0414   54.6451   22.1953 O.2       1 UNK         0.0000 
     14 C14         3.9484   54.0964   23.1966 C.ar      1 UNK         0.0000 
     15 C15         2.6335   53.6189   23.0485 C.ar      1 UNK         0.0000 
     16 C16         1.8180   53.4169   24.1581 C.ar      1 UNK         0.0000 
     17 C17         2.2978   53.6946   25.4359 C.ar      1 UNK         0.0000 
     18 C18         3.5940   54.1932   25.6170 C.ar      1 UNK         0.0000 
     19 C19         4.4005   54.3904   24.4944 C.ar      1 UNK         0.0000 
     20 O20         4.1303   54.5363   26.8421 O.3       1 UNK         0.0000 
     21 C21         3.6410   54.0087   28.0124 C.ar      1 UNK         0.0000 
     22 C22         4.3743   53.0140   28.6577 C.ar      1 UNK         0.0000 
     23 C23         3.9019   52.4582   29.8417 C.ar      1 UNK         0.0000 
     24 C24         2.6873   52.8960   30.3708 C.ar      1 UNK         0.0000 
     25 C25         1.9600   53.9063   29.7409 C.ar      1 UNK         0.0000 
     26 C26         2.4472   54.4762   28.5673 C.ar      1 UNK         0.0000 
     27 C27         3.0993   52.8969   18.2383 C.2       1 UNK         0.0000 
     28 O28         2.2972   53.1275   17.3360 O.2       1 UNK         0.0000 
     29 N29         2.8307   52.0157   19.2053 N.am      1 UNK         0.0000 
     30 C30         4.9404   53.4240   15.7644 C.3       1 UNK         0.0000 
     31 H31         6.1459   52.4859   13.3969 H         1 UNK         0.0000 
     32 H32         6.4330   54.0661   12.6718 H         1 UNK         0.0000 
     33 H33         4.7899   53.5421   13.0076 H         1 UNK         0.0000 
     34 H34         7.6842   53.1147   15.4717 H         1 UNK         0.0000 
     35 H35         8.0158   54.5523   14.5763 H         1 UNK         0.0000 
     36 H36         8.4589   54.8716   17.0457 H         1 UNK         0.0000 
     37 H37         7.3405   56.0422   16.3741 H         1 UNK         0.0000 
     38 H38         3.4135   53.6183   20.7993 H         1 UNK         0.0000 
     39 H39         2.2171   53.3842   22.0819 H         1 UNK         0.0000 
     40 H40         0.8107   53.0434   24.0303 H         1 UNK         0.0000 
     41 H41         1.6394   53.5268   26.2743 H         1 UNK         0.0000 
     42 H42         5.3997   54.7710   24.6500 H         1 UNK         0.0000 
     43 H43         5.3047   52.6712   28.2317 H         1 UNK         0.0000 
     44 H44         4.4725   51.6968   30.3469 H         1 UNK         0.0000 
     45 H45         2.3114   52.4643   31.2888 H         1 UNK         0.0000 
     46 H46         1.0271   54.2512   30.1653 H         1 UNK         0.0000 
     47 H47         1.8921   55.2619   28.0764 H         1 UNK         0.0000 
     48 H48         3.5965   51.6384   19.7469 H         1 UNK         0.0000 
     49 H49         1.9592   51.5121   19.1632 H         1 UNK         0.0000 
     50 H50         3.9125   53.6443   15.4759 H         1 UNK         0.0000 
     51 H51         5.0710   52.3414   15.6831 H         1 UNK         0.0000 
@<TRIPOS>BOND
     1    1    2 1    
     2    1   31 1    
     3    1   32 1    
     4    1   33 1    
     5    2    3 1    
     6    2   30 1    
     7    2    4 1    
     8    4    5 1    
     9    4   34 1    
    10    4   35 1    
    11    5    6 1    
    12    5   36 1    
    13    5   37 1    
    14    6   10 1    
    15    6    7 2    
    16    7    8 1    
    17    7   30 1    
    18    8    9 2    
    19    8   27 1    
    20    9   10 1    
    21    9   11 am   BACKBONE|DICT|INTERRES
    22   11   12 am   BACKBONE|DICT|INTERRES
    23   11   38 1    
    24   12   13 2    
    25   12   14 1    
    26   14   19 ar   
    27   14   15 ar   
    28   15   16 ar   
    29   15   39 1    
    30   16   17 ar   
    31   16   40 1    
    32   17   18 ar   
    33   17   41 1    
    34   18   19 ar   
    35   18   20 1    
    36   19   42 1    
    37   20   21 1    
    38   21   26 ar   
    39   21   22 ar   
    40   22   23 ar   
    41   22   43 1    
    42   23   24 ar   
    43   23   44 1    
    44   24   25 ar   
    45   24   45 1    
    46   25   26 ar   
    47   25   46 1    
    48   26   47 1    
    49   27   28 2    
    50   27   29 am   BACKBONE|DICT|INTERRES
    51   29   48 1    
    52   29   49 1    
    53   30   50 1    
    54   30   51 1    
@<TRIPOS>SUBSTRUCTURE
     1 UNK         1 GROUP             0       ****    0 ROOT    
