@<TRIPOS>MOLECULE
ZINC21399563_4939
62   66    1
SMALL
USER_CHARGES


@<TRIPOS>ATOM
      1 C1         -1.3160   48.0468   23.4878 C.3       1 UNK         0.0000 
      2 C2         -0.4860   49.3426   23.3923 C.3       1 UNK         0.0000 
      3 H3          0.5325   49.0707   23.6790 H         1 UNK         0.0000 
      4 C4         -1.0239   50.4168   24.3620 C.2       1 UNK         0.0000 
      5 O5         -2.1748   50.8423   24.2246 O.2       1 UNK         0.0000 
      6 N6         -0.1482   50.8154   25.3092 N.am      1 UNK         0.0000 
      7 C7         -0.3010   51.7788   26.2376 C.2       1 UNK         0.0000 
      8 O8         -1.3623   52.2946   26.5955 O.2       1 UNK         0.0000 
      9 N9          0.9002   52.0998   26.7428 N.am      1 UNK         0.0000 
     10 C10         1.2241   52.7178   28.0312 C.3       1 UNK         0.0000 
     11 C11         0.7317   54.1938   28.1472 C.3       1 UNK         0.0000 
     12 C12         1.1821   54.8371   29.4844 C.3       1 UNK         0.0000 
     13 C13         2.7265   54.8164   29.5627 C.3       1 UNK         0.0000 
     14 C14         3.2352   53.3556   29.5054 C.3       1 UNK         0.0000 
     15 C15         2.7775   52.7215   28.1708 C.3       1 UNK         0.0000 
     16 C16         2.6411   52.5299   30.6735 C.3       1 UNK         0.0000 
     17 C17         1.0928   52.5597   30.5960 C.3       1 UNK         0.0000 
     18 C18         0.5900   54.0240   30.6623 C.3       1 UNK         0.0000 
     19 C19         0.6438   51.9307   29.2506 C.3       1 UNK         0.0000 
     20 S20        -0.3804   49.9474   21.6671 S.3       1 UNK         0.0000 
     21 C21         1.0417   51.0003   21.7025 C.2       1 UNK         0.0000 
     22 N22         1.6362   51.4711   22.7729 N.2       1 UNK         0.0000 
     23 N23         2.7037   52.3095   22.4819 N.2       1 UNK         0.0000 
     24 C24         2.9298   52.4213   21.1970 C.2       1 UNK         0.0000 
     25 S25         1.7897   51.5401   20.2251 S.3       1 UNK         0.0000 
     26 N26         3.8981   53.1734   20.5714 N.pl3     1 UNK         0.0000 
     27 C27         4.9457   53.9299   21.1253 C.ar      1 UNK         0.0000 
     28 C28         5.4648   53.7146   22.4091 C.ar      1 UNK         0.0000 
     29 C29         6.5179   54.4946   22.8840 C.ar      1 UNK         0.0000 
     30 C30         7.0561   55.4980   22.0819 C.ar      1 UNK         0.0000 
     31 C31         6.5461   55.7455   20.8082 C.ar      1 UNK         0.0000 
     32 C32         5.5043   54.9341   20.3299 C.ar      1 UNK         0.0000 
     33 O33         7.1038   56.7999   20.1109 O.3       1 UNK         0.0000 
     34 C34         6.5904   57.1314   18.8241 C.3       1 UNK         0.0000 
     35 H35        -1.3386   47.6581   24.5089 H         1 UNK         0.0000 
     36 H36        -2.3481   48.2072   23.1725 H         1 UNK         0.0000 
     37 H37        -0.8982   47.2645   22.8532 H         1 UNK         0.0000 
     38 H38         0.7611   50.3865   25.2658 H         1 UNK         0.0000 
     39 H39         1.7071   51.8737   26.1824 H         1 UNK         0.0000 
     40 H40        -0.3563   54.2299   28.0832 H         1 UNK         0.0000 
     41 H41         1.1048   54.7824   27.3097 H         1 UNK         0.0000 
     42 H42         0.8293   55.8680   29.5375 H         1 UNK         0.0000 
     43 H43         3.0565   55.2957   30.4776 H         1 UNK         0.0000 
     44 H44         3.1552   55.4004   28.7467 H         1 UNK         0.0000 
     45 H45         4.3248   53.3429   29.5628 H         1 UNK         0.0000 
     46 H46         3.2351   53.2570   27.3363 H         1 UNK         0.0000 
     47 H47         3.1511   51.6989   28.1087 H         1 UNK         0.0000 
     48 H48         2.9871   52.8961   31.6364 H         1 UNK         0.0000 
     49 H49         3.0076   51.5079   30.6146 H         1 UNK         0.0000 
     50 H50         0.6656   51.9968   31.4284 H         1 UNK         0.0000 
     51 H51        -0.4956   54.0409   30.6117 H         1 UNK         0.0000 
     52 H52         0.8435   54.4791   31.6190 H         1 UNK         0.0000 
     53 H53         0.9710   50.8954   29.2060 H         1 UNK         0.0000 
     54 H54        -0.4465   51.8984   29.2050 H         1 UNK         0.0000 
     55 H55         3.7903   53.3446   19.5832 H         1 UNK         0.0000 
     56 H56         5.0798   52.9310   23.0407 H         1 UNK         0.0000 
     57 H57         6.9257   54.3157   23.8682 H         1 UNK         0.0000 
     58 H58         7.8730   56.0953   22.4598 H         1 UNK         0.0000 
     59 H59         5.0996   55.0977   19.3432 H         1 UNK         0.0000 
     60 H60         7.1226   57.9995   18.4348 H         1 UNK         0.0000 
     61 H61         6.7316   56.3137   18.1152 H         1 UNK         0.0000 
     62 H62         5.5305   57.3885   18.8683 H         1 UNK         0.0000 
@<TRIPOS>BOND
     1    1    2 1    
     2    1   35 1    
     3    1   36 1    
     4    1   37 1    
     5    2    3 1    
     6    2    4 1    
     7    2   20 1    
     8    4    5 2    
     9    4    6 am   BACKBONE|DICT|INTERRES
    10    6    7 am   BACKBONE|DICT|INTERRES
    11    6   38 1    
    12    7    8 2    
    13    7    9 am   BACKBONE|DICT|INTERRES
    14    9   10 1    
    15    9   39 1    
    16   10   15 1    
    17   10   19 1    
    18   10   11 1    
    19   11   12 1    
    20   11   40 1    
    21   11   41 1    
    22   12   18 1    
    23   12   13 1    
    24   12   42 1    
    25   13   14 1    
    26   13   43 1    
    27   13   44 1    
    28   14   15 1    
    29   14   16 1    
    30   14   45 1    
    31   15   46 1    
    32   15   47 1    
    33   16   17 1    
    34   16   48 1    
    35   16   49 1    
    36   17   18 1    
    37   17   19 1    
    38   17   50 1    
    39   18   51 1    
    40   18   52 1    
    41   19   53 1    
    42   19   54 1    
    43   20   21 1    
    44   21   25 1    
    45   21   22 2    
    46   22   23 1    
    47   23   24 2    
    48   24   25 1    
    49   24   26 1    
    50   26   27 1    
    51   26   55 1    
    52   27   32 ar   
    53   27   28 ar   
    54   28   29 ar   
    55   28   56 1    
    56   29   30 ar   
    57   29   57 1    
    58   30   31 ar   
    59   30   58 1    
    60   31   32 ar   
    61   31   33 1    
    62   32   59 1    
    63   33   34 1    
    64   34   60 1    
    65   34   61 1    
    66   34   62 1    
@<TRIPOS>SUBSTRUCTURE
     1 UNK         1 GROUP             0       ****    0 ROOT    
