@<TRIPOS>MOLECULE
ZINC13131490_3598
42   45    1
SMALL
USER_CHARGES


@<TRIPOS>ATOM
      1 C1          1.7628   49.8213   21.5800 C.3       1 UNK         0.0000 
      2 C2          1.7341   51.1710   22.2750 C.ar      1 UNK         0.0000 
      3 C3          0.6647   51.5165   23.1043 C.ar      1 UNK         0.0000 
      4 C4          0.6490   52.7531   23.7476 C.ar      1 UNK         0.0000 
      5 C5          1.7048   53.6453   23.5678 C.ar      1 UNK         0.0000 
      6 C6          2.7872   53.3162   22.7418 C.ar      1 UNK         0.0000 
      7 C7          2.7807   52.0768   22.0824 C.ar      1 UNK         0.0000 
      8 C8          3.9447   54.3186   22.6032 C.3       1 UNK         0.0000 
      9 H9          3.4729   55.2967   22.5281 H         1 UNK         0.0000 
     10 C10         4.8037   54.2069   21.3173 C.3       1 UNK         0.0000 
     11 C11         6.0466   55.1413   21.2938 C.3       1 UNK         0.0000 
     12 H12         5.6840   56.1703   21.2814 H         1 UNK         0.0000 
     13 N13         6.8484   54.9518   22.5179 N.pl3     1 UNK         0.0000 
     14 C14         6.2020   54.7076   23.7100 C.ar      1 UNK         0.0000 
     15 N15         4.8636   54.3932   23.7485 N.pl3     1 UNK         0.0000 
     16 N16         4.5137   54.2646   25.0363 N.2       1 UNK         0.0000 
     17 C17         5.6484   54.4908   25.6645 C.ar      1 UNK         0.0000 
     18 N18         6.7043   54.7548   24.9155 N.2       1 UNK         0.0000 
     19 N19         5.7318   54.4621   27.0219 N.pl3     1 UNK         0.0000 
     20 C20         6.8776   55.0976   19.9992 C.ar      1 UNK         0.0000 
     21 C21         8.1432   55.6999   19.9810 C.ar      1 UNK         0.0000 
     22 C22         8.9279   55.6673   18.8349 C.ar      1 UNK         0.0000 
     23 C23         8.4566   55.0320   17.6909 C.ar      1 UNK         0.0000 
     24 C24         7.1965   54.4413   17.6837 C.ar      1 UNK         0.0000 
     25 C25         6.4065   54.4801   18.8295 C.ar      1 UNK         0.0000 
     26 Cl26        9.4421   54.9738   16.2762 Cl        1 UNK         0.0000 
     27 H27         2.4034   49.1249   22.1238 H         1 UNK         0.0000 
     28 H28         0.7634   49.3932   21.4923 H         1 UNK         0.0000 
     29 H29         2.1549   49.9223   20.5666 H         1 UNK         0.0000 
     30 H30        -0.1510   50.8255   23.2592 H         1 UNK         0.0000 
     31 H31        -0.1757   53.0154   24.3939 H         1 UNK         0.0000 
     32 H32         1.6872   54.5942   24.0838 H         1 UNK         0.0000 
     33 H33         3.5950   51.7825   21.4396 H         1 UNK         0.0000 
     34 H34         5.1609   53.1861   21.1840 H         1 UNK         0.0000 
     35 H35         4.1475   54.4015   20.4681 H         1 UNK         0.0000 
     36 H36         7.7422   55.4233   22.5380 H         1 UNK         0.0000 
     37 H37         4.9349   54.2064   27.5845 H         1 UNK         0.0000 
     38 H38         6.5942   54.6575   27.5077 H         1 UNK         0.0000 
     39 H39         8.5426   56.1819   20.8599 H         1 UNK         0.0000 
     40 H40         9.9049   56.1253   18.8464 H         1 UNK         0.0000 
     41 H41         6.8326   53.9471   16.7944 H         1 UNK         0.0000 
     42 H42         5.4411   54.0006   18.7849 H         1 UNK         0.0000 
@<TRIPOS>BOND
     1    1    2 1    
     2    1   27 1    
     3    1   28 1    
     4    1   29 1    
     5    2    7 ar   
     6    2    3 ar   
     7    3    4 ar   
     8    3   30 1    
     9    4    5 ar   
    10    4   31 1    
    11    5    6 ar   
    12    5   32 1    
    13    6    7 ar   
    14    6    8 1    
    15    7   33 1    
    16    8    9 1    
    17    8   15 1    
    18    8   10 1    
    19   10   11 1    
    20   10   34 1    
    21   10   35 1    
    22   11   12 1    
    23   11   13 1    
    24   11   20 1    
    25   13   14 1    
    26   13   36 1    
    27   14   18 ar   
    28   14   15 ar   
    29   15   16 ar   
    30   16   17 ar   
    31   17   18 ar   
    32   17   19 1    
    33   19   37 1    
    34   19   38 1    
    35   20   25 ar   
    36   20   21 ar   
    37   21   22 ar   
    38   21   39 1    
    39   22   23 ar   
    40   22   40 1    
    41   23   24 ar   
    42   23   26 1    
    43   24   25 ar   
    44   24   41 1    
    45   25   42 1    
@<TRIPOS>SUBSTRUCTURE
     1 UNK         1 GROUP             0       ****    0 ROOT    
