@<TRIPOS>MOLECULE
ZINC03266985_5173
44   46    1
SMALL
USER_CHARGES


@<TRIPOS>ATOM
      1 C1          1.3178   49.6923   22.8160 C.ar      1 UNK         0.0000 
      2 C2          2.1430   50.7563   22.4651 C.ar      1 UNK         0.0000 
      3 C3          1.8456   52.0645   22.8887 C.ar      1 UNK         0.0000 
      4 C4          0.6949   52.2751   23.6621 C.ar      1 UNK         0.0000 
      5 C5         -0.1283   51.2019   24.0154 C.ar      1 UNK         0.0000 
      6 C6          0.1856   49.9091   23.5943 C.ar      1 UNK         0.0000 
      7 S7         -1.5657   51.4540   25.0440 S.o2      1 UNK         0.0000 
      8 O8         -1.7984   52.8956   25.1682 O.2       1 UNK         0.0000 
      9 O9         -2.6138   50.5575   24.5450 O.2       1 UNK         0.0000 
     10 N10        -1.1137   50.8450   26.6411 N.pl3     1 UNK         0.0000 
     11 C11        -0.4613   51.6152   27.6098 C.ar      1 UNK         0.0000 
     12 C12         0.7317   52.2843   27.3212 C.ar      1 UNK         0.0000 
     13 C13         1.4043   53.0091   28.3168 C.ar      1 UNK         0.0000 
     14 C14         0.8626   53.0576   29.6073 C.ar      1 UNK         0.0000 
     15 C15        -0.3316   52.4047   29.8975 C.ar      1 UNK         0.0000 
     16 C16        -1.0022   51.6947   28.8997 C.ar      1 UNK         0.0000 
     17 Cl17       -2.5041   50.9173   29.2831 Cl        1 UNK         0.0000 
     18 C18         2.7211   53.7269   28.0223 C.3       1 UNK         0.0000 
     19 F19         3.0166   53.7378   26.7208 F         1 UNK         0.0000 
     20 F20         2.6565   54.9905   28.4454 F         1 UNK         0.0000 
     21 F21         3.7079   53.1090   28.6726 F         1 UNK         0.0000 
     22 C22         2.7743   53.2190   22.5875 C.2       1 UNK         0.0000 
     23 O23         2.7722   54.2234   23.3048 O.2       1 UNK         0.0000 
     24 N24         3.5752   53.0585   21.5139 N.am      1 UNK         0.0000 
     25 C25         4.6524   53.8648   21.1288 C.ar      1 UNK         0.0000 
     26 C26         4.8976   53.9760   19.7611 C.ar      1 UNK         0.0000 
     27 C27         5.9517   54.7624   19.3083 C.ar      1 UNK         0.0000 
     28 C28         6.7674   55.4232   20.2257 C.ar      1 UNK         0.0000 
     29 C29         6.5465   55.2964   21.5967 C.ar      1 UNK         0.0000 
     30 C30         5.4964   54.4998   22.0527 C.ar      1 UNK         0.0000 
     31 Cl31        8.0721   56.3961   19.6589 Cl        1 UNK         0.0000 
     32 H32         1.5783   48.6906   22.5077 H         1 UNK         0.0000 
     33 H33         3.0290   50.5335   21.8889 H         1 UNK         0.0000 
     34 H34         0.4483   53.2715   24.0049 H         1 UNK         0.0000 
     35 H35        -0.4396   49.0752   23.8768 H         1 UNK         0.0000 
     36 H36        -1.5167   49.9638   26.9449 H         1 UNK         0.0000 
     37 H37         1.1507   52.2182   26.3300 H         1 UNK         0.0000 
     38 H38         1.3720   53.6005   30.3906 H         1 UNK         0.0000 
     39 H39        -0.7369   52.4361   30.9011 H         1 UNK         0.0000 
     40 H40         3.3512   52.3015   20.8855 H         1 UNK         0.0000 
     41 H41         4.2670   53.4662   19.0443 H         1 UNK         0.0000 
     42 H42         6.1342   54.8563   18.2468 H         1 UNK         0.0000 
     43 H43         7.1950   55.7938   22.3020 H         1 UNK         0.0000 
     44 H44         5.3379   54.3974   23.1157 H         1 UNK         0.0000 
@<TRIPOS>BOND
     1    1    6 ar   
     2    1    2 ar   
     3    1   32 1    
     4    2    3 ar   
     5    2   33 1    
     6    3    4 ar   
     7    3   22 1    
     8    4    5 ar   
     9    4   34 1    
    10    5    6 ar   
    11    5    7 1    
    12    6   35 1    
    13    7    8 2    
    14    7    9 2    
    15    7   10 1    
    16   10   11 1    
    17   10   36 1    
    18   11   16 ar   
    19   11   12 ar   
    20   12   13 ar   
    21   12   37 1    
    22   13   14 ar   
    23   13   18 1    
    24   14   15 ar   
    25   14   38 1    
    26   15   16 ar   
    27   15   39 1    
    28   16   17 1    
    29   18   19 1    
    30   18   20 1    
    31   18   21 1    
    32   22   23 2    
    33   22   24 am   BACKBONE|DICT|INTERRES
    34   24   25 1    
    35   24   40 1    
    36   25   30 ar   
    37   25   26 ar   
    38   26   27 ar   
    39   26   41 1    
    40   27   28 ar   
    41   27   42 1    
    42   28   29 ar   
    43   28   31 1    
    44   29   30 ar   
    45   29   43 1    
    46   30   44 1    
@<TRIPOS>SUBSTRUCTURE
     1 UNK         1 GROUP             0       ****    0 ROOT    
