@<TRIPOS>MOLECULE
ZINC09239323_54
52   55    1
SMALL
USER_CHARGES


@<TRIPOS>ATOM
      1 C1          1.3504   49.6714   18.1905 C.3       1 UNK         0.0000 
      2 C2          1.6960   48.9283   19.4909 C.3       1 UNK         0.0000 
      3 C3          0.9294   49.4610   20.6907 C.ar      1 UNK         0.0000 
      4 N4         -0.0602   48.8382   21.2805 N.2       1 UNK         0.0000 
      5 N5         -0.4784   49.6357   22.3428 N.2       1 UNK         0.0000 
      6 C6          0.2543   50.7213   22.3330 C.ar      1 UNK         0.0000 
      7 N7          1.1596   50.6715   21.3006 N.pl3     1 UNK         0.0000 
      8 N8          2.0881   51.6293   20.9309 N.3       1 UNK         0.0000 
      9 C9          2.6882   52.3125   22.0766 C.3       1 UNK         0.0000 
     10 H10         3.1031   51.5294   22.7111 H         1 UNK         0.0000 
     11 C11         1.5788   53.0811   22.8971 C.3       1 UNK         0.0000 
     12 H12         1.1728   53.8950   22.2943 H         1 UNK         0.0000 
     13 S13         0.1460   52.0626   23.4707 S.3       1 UNK         0.0000 
     14 C14         2.1945   53.7625   24.1529 C.2       1 UNK         0.0000 
     15 O15         2.6447   54.8966   24.0188 O.2       1 UNK         0.0000 
     16 N16         2.2408   53.1089   25.3387 N.am      1 UNK         0.0000 
     17 C17         2.9505   53.4888   26.5039 C.ar      1 UNK         0.0000 
     18 C18         4.1808   54.1661   26.4079 C.ar      1 UNK         0.0000 
     19 C19         4.9095   54.4935   27.5465 C.ar      1 UNK         0.0000 
     20 C20         4.4272   54.1444   28.8016 C.ar      1 UNK         0.0000 
     21 C21         3.2221   53.4573   28.9157 C.ar      1 UNK         0.0000 
     22 C22         2.4667   53.1211   27.7806 C.ar      1 UNK         0.0000 
     23 C23         1.1513   52.3497   27.9690 C.3       1 UNK         0.0000 
     24 F24         0.1289   53.1515   27.6817 F         1 UNK         0.0000 
     25 F25         1.1014   51.2888   27.1660 F         1 UNK         0.0000 
     26 F26         0.9913   51.9135   29.2204 F         1 UNK         0.0000 
     27 C27         3.8783   53.1930   21.6418 C.ar      1 UNK         0.0000 
     28 C28         3.9043   53.8260   20.3916 C.ar      1 UNK         0.0000 
     29 C29         4.9609   54.6616   20.0446 C.ar      1 UNK         0.0000 
     30 C30         5.9934   54.9095   20.9446 C.ar      1 UNK         0.0000 
     31 C31         5.9672   54.2865   22.2003 C.ar      1 UNK         0.0000 
     32 C32         4.9426   53.4027   22.5213 C.ar      1 UNK         0.0000 
     33 O33         6.9961   55.7545   20.5116 O.3       1 UNK         0.0000 
     34 C34         8.1887   55.8625   21.2798 C.3       1 UNK         0.0000 
     35 H35         1.9027   49.2535   17.3475 H         1 UNK         0.0000 
     36 H36         0.2854   49.6008   17.9623 H         1 UNK         0.0000 
     37 H37         1.6062   50.7306   18.2496 H         1 UNK         0.0000 
     38 H38         2.7713   48.9929   19.6632 H         1 UNK         0.0000 
     39 H39         1.4936   47.8650   19.3473 H         1 UNK         0.0000 
     40 H40         2.8105   51.1599   20.4000 H         1 UNK         0.0000 
     41 H41         1.6862   52.2681   25.4184 H         1 UNK         0.0000 
     42 H42         4.5976   54.4341   25.4487 H         1 UNK         0.0000 
     43 H43         5.8510   55.0177   27.4594 H         1 UNK         0.0000 
     44 H44         4.9962   54.4042   29.6815 H         1 UNK         0.0000 
     45 H45         2.8755   53.1909   29.9031 H         1 UNK         0.0000 
     46 H46         3.1031   53.6919   19.6814 H         1 UNK         0.0000 
     47 H47         4.9688   55.1351   19.0744 H         1 UNK         0.0000 
     48 H48         6.7563   54.4466   22.9187 H         1 UNK         0.0000 
     49 H49         4.9625   52.9004   23.4766 H         1 UNK         0.0000 
     50 H50         8.9028   56.4957   20.7516 H         1 UNK         0.0000 
     51 H51         7.9915   56.3093   22.2539 H         1 UNK         0.0000 
     52 H52         8.6674   54.8962   21.4247 H         1 UNK         0.0000 
@<TRIPOS>BOND
     1    1    2 1    
     2    1   35 1    
     3    1   36 1    
     4    1   37 1    
     5    2    3 1    
     6    2   38 1    
     7    2   39 1    
     8    3    7 ar   
     9    3    4 ar   
    10    4    5 ar   
    11    5    6 ar   
    12    6   13 1    
    13    6    7 ar   
    14    7    8 1    
    15    8    9 1    
    16    8   40 1    
    17    9   10 1    
    18    9   11 1    
    19    9   27 1    
    20   11   12 1    
    21   11   13 1    
    22   11   14 1    
    23   14   15 2    
    24   14   16 am   BACKBONE|DICT|INTERRES
    25   16   17 1    
    26   16   41 1    
    27   17   22 ar   
    28   17   18 ar   
    29   18   19 ar   
    30   18   42 1    
    31   19   20 ar   
    32   19   43 1    
    33   20   21 ar   
    34   20   44 1    
    35   21   22 ar   
    36   21   45 1    
    37   22   23 1    
    38   23   24 1    
    39   23   25 1    
    40   23   26 1    
    41   27   32 ar   
    42   27   28 ar   
    43   28   29 ar   
    44   28   46 1    
    45   29   30 ar   
    46   29   47 1    
    47   30   31 ar   
    48   30   33 1    
    49   31   32 ar   
    50   31   48 1    
    51   32   49 1    
    52   33   34 1    
    53   34   50 1    
    54   34   51 1    
    55   34   52 1    
@<TRIPOS>SUBSTRUCTURE
     1 UNK         1 GROUP             0       ****    0 ROOT    
