@<TRIPOS>MOLECULE
ZINC12042755_6037
67   71    1
SMALL
USER_CHARGES


@<TRIPOS>ATOM
      1 C1         -1.3611   52.4983   18.5325 C.3       1 UNK         0.0000 
      2 O2         -1.3217   51.7840   19.7641 O.3       1 UNK         0.0000 
      3 C3         -0.2426   50.9532   20.0316 C.ar      1 UNK         0.0000 
      4 C4          0.8513   50.8036   19.1599 C.ar      1 UNK         0.0000 
      5 C5          1.9128   49.9594   19.4810 C.ar      1 UNK         0.0000 
      6 C6          1.9042   49.2659   20.6864 C.ar      1 UNK         0.0000 
      7 C7          0.8410   49.4138   21.5707 C.ar      1 UNK         0.0000 
      8 C8         -0.2491   50.2377   21.2450 C.ar      1 UNK         0.0000 
      9 N9         -1.3695   50.4097   22.0830 N.am      1 UNK         0.0000 
     10 C10        -1.7260   49.7641   23.2145 C.2       1 UNK         0.0000 
     11 O11        -1.1395   48.7918   23.6844 O.2       1 UNK         0.0000 
     12 C12        -2.9740   50.2803   23.9588 C.3       1 UNK         0.0000 
     13 H13        -3.6334   49.4735   24.2857 H         1 UNK         0.0000 
     14 C14        -3.6084   51.5985   23.5412 C.3       1 UNK         0.0000 
     15 C15        -2.8336   51.5163   24.8464 C.3       1 UNK         0.0000 
     16 C16        -1.4703   52.2390   24.9743 C.3       1 UNK         0.0000 
     17 C17        -0.6454   51.7100   26.1555 C.3       1 UNK         0.0000 
     18 C18        -2.7825   51.0472   27.3685 C.3       1 UNK         0.0000 
     19 C19        -3.6270   51.5266   26.1747 C.3       1 UNK         0.0000 
     20 C20        -0.6871   51.5399   28.7091 C.3       1 UNK         0.0000 
     21 C21         0.5566   52.3860   28.9238 C.ar      1 UNK         0.0000 
     22 C22         0.4518   53.6739   29.4484 C.ar      1 UNK         0.0000 
     23 C23         1.5908   54.4664   29.5683 C.ar      1 UNK         0.0000 
     24 C24         2.8365   53.9741   29.1772 C.ar      1 UNK         0.0000 
     25 C25         2.9452   52.6520   28.7228 C.ar      1 UNK         0.0000 
     26 C26         1.8084   51.8634   28.5917 C.ar      1 UNK         0.0000 
     27 O27         3.8874   54.8720   29.2087 O.3       1 UNK         0.0000 
     28 C28         5.1737   54.5017   28.6994 C.3       1 UNK         0.0000 
     29 C29         5.2763   54.4959   27.1683 C.ar      1 UNK         0.0000 
     30 C30         6.5519   54.4851   26.5996 C.ar      1 UNK         0.0000 
     31 C31         6.7043   54.4968   25.2165 C.ar      1 UNK         0.0000 
     32 C32         5.5821   54.4958   24.3946 C.ar      1 UNK         0.0000 
     33 C33         4.3052   54.4968   24.9462 C.ar      1 UNK         0.0000 
     34 C34         4.1526   54.5110   26.3287 C.ar      1 UNK         0.0000 
     35 H35        -2.2874   53.0705   18.4746 H         1 UNK         0.0000 
     36 H36        -0.5330   53.2039   18.4544 H         1 UNK         0.0000 
     37 H37        -1.3400   51.8241   17.6744 H         1 UNK         0.0000 
     38 H38         0.9018   51.3337   18.2204 H         1 UNK         0.0000 
     39 H39         2.7450   49.8490   18.7965 H         1 UNK         0.0000 
     40 H40         2.7249   48.6146   20.9452 H         1 UNK         0.0000 
     41 H41         0.8958   48.8824   22.5068 H         1 UNK         0.0000 
     42 H42        -2.0060   51.1170   21.7502 H         1 UNK         0.0000 
     43 H43        -3.1895   52.2038   22.7394 H         1 UNK         0.0000 
     44 H44        -4.6934   51.6864   23.5772 H         1 UNK         0.0000 
     45 H45        -0.8780   52.1948   24.0621 H         1 UNK         0.0000 
     46 H46        -1.6652   53.2967   25.1272 H         1 UNK         0.0000 
     47 H47         0.2612   52.3070   26.2644 H         1 UNK         0.0000 
     48 H48        -0.3906   50.6513   26.0681 H         1 UNK         0.0000 
     49 H49        -3.3262   51.1941   28.3029 H         1 UNK         0.0000 
     50 H50        -2.4956   49.9982   27.2803 H         1 UNK         0.0000 
     51 H51        -3.9820   52.5401   26.3701 H         1 UNK         0.0000 
     52 H52        -4.5247   50.9111   26.0963 H         1 UNK         0.0000 
     53 H53        -1.3741   51.6203   29.5541 H         1 UNK         0.0000 
     54 H54        -0.4263   50.4969   28.5756 H         1 UNK         0.0000 
     55 H55        -0.5068   54.0773   29.7375 H         1 UNK         0.0000 
     56 H56         1.5046   55.4815   29.9296 H         1 UNK         0.0000 
     57 H57         3.8908   52.2371   28.4093 H         1 UNK         0.0000 
     58 H58         1.9035   50.8609   28.1973 H         1 UNK         0.0000 
     59 H59         5.8683   55.2521   29.0762 H         1 UNK         0.0000 
     60 H60         5.5132   53.5498   29.1064 H         1 UNK         0.0000 
     61 H61         7.4270   54.4687   27.2331 H         1 UNK         0.0000 
     62 H62         7.6895   54.4962   24.7760 H         1 UNK         0.0000 
     63 H63         5.7031   54.4995   23.3221 H         1 UNK         0.0000 
     64 H64         3.4374   54.5017   24.3023 H         1 UNK         0.0000 
     65 H65         3.1506   54.5392   26.7233 H         1 UNK         0.0000 
     66 N66        -1.4920   51.8999   27.4367 N.4       1 UNK         0.0000 
     67 H67        -1.7410   52.8759   27.5169 H         1 UNK         0.0000 
@<TRIPOS>BOND
     1    1    2 1    
     2    1   35 1    
     3    1   36 1    
     4    1   37 1    
     5    2    3 1    
     6    3    8 ar   
     7    3    4 ar   
     8    4    5 ar   
     9    4   38 1    
    10    5    6 ar   
    11    5   39 1    
    12    6    7 ar   
    13    6   40 1    
    14    7    8 ar   
    15    7   41 1    
    16    8    9 1    
    17    9   10 am   BACKBONE|DICT|INTERRES
    18    9   42 1    
    19   10   11 2    
    20   10   12 1    
    21   12   13 1    
    22   12   15 1    
    23   12   14 1    
    24   14   15 1    
    25   14   43 1    
    26   14   44 1    
    27   15   19 1    
    28   15   16 1    
    29   16   17 1    
    30   16   45 1    
    31   16   46 1    
    32   17   47 1    
    33   17   48 1    
    34   17   66 1    
    35   18   19 1    
    36   18   49 1    
    37   18   50 1    
    38   18   66 1    
    39   19   51 1    
    40   19   52 1    
    41   20   21 1    
    42   20   53 1    
    43   20   54 1    
    44   20   66 1    
    45   21   26 ar   
    46   21   22 ar   
    47   22   23 ar   
    48   22   55 1    
    49   23   24 ar   
    50   23   56 1    
    51   24   25 ar   
    52   24   27 1    
    53   25   26 ar   
    54   25   57 1    
    55   26   58 1    
    56   27   28 1    
    57   28   29 1    
    58   28   59 1    
    59   28   60 1    
    60   29   34 ar   
    61   29   30 ar   
    62   30   31 ar   
    63   30   61 1    
    64   31   32 ar   
    65   31   62 1    
    66   32   33 ar   
    67   32   63 1    
    68   33   34 ar   
    69   33   64 1    
    70   34   65 1    
    71   66   67 1    
@<TRIPOS>SUBSTRUCTURE
     1 UNK         1 GROUP             0       ****    0 ROOT    
