@<TRIPOS>MOLECULE
ZINC15864405_2754
52   55    1
SMALL
USER_CHARGES


@<TRIPOS>ATOM
      1 C1         -0.0866   53.0263   30.6078 C.3       1 UNK         0.0000 
      2 C2          1.3647   52.9024   30.2188 C.2       1 UNK         0.0000 
      3 C3          2.4178   52.3969   30.9736 C.2       1 UNK         0.0000 
      4 S4          3.8945   52.4963   30.0636 S.3       1 UNK         0.0000 
      5 C5          2.9687   53.2247   28.7763 C.2       1 UNK         0.0000 
      6 N6          1.6884   53.3345   29.0151 N.2       1 UNK         0.0000 
      7 N7          3.4778   53.6118   27.5507 N.am      1 UNK         0.0000 
      8 C8          4.7688   53.7849   27.1969 C.2       1 UNK         0.0000 
      9 O9          5.7220   53.7018   27.9756 O.2       1 UNK         0.0000 
     10 C10         5.0000   54.0962   25.7313 C.ar      1 UNK         0.0000 
     11 C11         6.3078   54.0981   25.2304 C.ar      1 UNK         0.0000 
     12 C12         6.5517   54.2905   23.8751 C.ar      1 UNK         0.0000 
     13 C13         5.4900   54.4967   22.9914 C.ar      1 UNK         0.0000 
     14 C14         4.1797   54.4966   23.4803 C.ar      1 UNK         0.0000 
     15 C15         3.9372   54.3056   24.8349 C.ar      1 UNK         0.0000 
     16 N16         5.7392   54.7619   21.6182 N.pl3     1 UNK         0.0000 
     17 C17         5.0335   54.3611   20.4970 C.ar      1 UNK         0.0000 
     18 C18         5.6749   54.9311   19.4062 C.ar      1 UNK         0.0000 
     19 C19         6.7728   55.6166   19.9556 C.ar      1 UNK         0.0000 
     20 N20         6.7886   55.5290   21.2697 N.2       1 UNK         0.0000 
     21 C21         7.8571   56.4032   19.2528 C.3       1 UNK         0.0000 
     22 C22         5.2816   54.7992   17.9761 C.ar      1 UNK         0.0000 
     23 C23         3.9914   55.1597   17.5757 C.ar      1 UNK         0.0000 
     24 C24         3.6128   55.0218   16.2421 C.ar      1 UNK         0.0000 
     25 C25         4.5230   54.5220   15.3142 C.ar      1 UNK         0.0000 
     26 C26         5.8086   54.1558   15.7071 C.ar      1 UNK         0.0000 
     27 C27         6.1877   54.2918   17.0417 C.ar      1 UNK         0.0000 
     28 F28         4.1538   54.3889   14.0196 F         1 UNK         0.0000 
     29 N29         3.9051   53.5607   20.4969 N.am      1 UNK         0.0000 
     30 C30         3.9461   52.2621   20.8398 C.2       1 UNK         0.0000 
     31 O31         4.9457   51.6965   21.2825 O.2       1 UNK         0.0000 
     32 C32         2.6527   51.4798   20.6682 C.3       1 UNK         0.0000 
     33 H33        -0.2271   52.8931   31.6819 H         1 UNK         0.0000 
     34 H34        -0.4965   54.0053   30.3580 H         1 UNK         0.0000 
     35 H35        -0.7038   52.2789   30.1068 H         1 UNK         0.0000 
     36 H36         2.3931   52.0033   31.9812 H         1 UNK         0.0000 
     37 H37         2.7868   53.8648   26.8632 H         1 UNK         0.0000 
     38 H38         7.1465   53.9238   25.8885 H         1 UNK         0.0000 
     39 H39         7.5663   54.2772   23.5103 H         1 UNK         0.0000 
     40 H40         3.3419   54.6782   22.8220 H         1 UNK         0.0000 
     41 H41         2.9082   54.3148   25.1591 H         1 UNK         0.0000 
     42 H42         7.9405   56.1489   18.1977 H         1 UNK         0.0000 
     43 H43         7.6655   57.4752   19.2867 H         1 UNK         0.0000 
     44 H44         8.8415   56.2291   19.6904 H         1 UNK         0.0000 
     45 H45         3.2860   55.5496   18.2933 H         1 UNK         0.0000 
     46 H46         2.6191   55.3020   15.9263 H         1 UNK         0.0000 
     47 H47         6.5025   53.7597   14.9810 H         1 UNK         0.0000 
     48 H48         7.1790   53.9889   17.3496 H         1 UNK         0.0000 
     49 H49         3.0591   53.9319   20.0828 H         1 UNK         0.0000 
     50 H50         2.4722   51.2879   19.6082 H         1 UNK         0.0000 
     51 H51         2.7175   50.5180   21.1806 H         1 UNK         0.0000 
     52 H52         1.8041   52.0333   21.0774 H         1 UNK         0.0000 
@<TRIPOS>BOND
     1    1    2 1    
     2    1   33 1    
     3    1   34 1    
     4    1   35 1    
     5    2    6 1    
     6    2    3 2    
     7    3    4 1    
     8    3   36 1    
     9    4    5 1    
    10    5    6 2    
    11    5    7 am   BACKBONE|DICT|INTERRES
    12    7    8 am   BACKBONE|DICT|INTERRES
    13    7   37 1    
    14    8    9 2    
    15    8   10 1    
    16   10   15 ar   
    17   10   11 ar   
    18   11   12 ar   
    19   11   38 1    
    20   12   13 ar   
    21   12   39 1    
    22   13   14 ar   
    23   13   16 1    
    24   14   15 ar   
    25   14   40 1    
    26   15   41 1    
    27   16   20 ar   
    28   16   17 ar   
    29   17   18 ar   
    30   17   29 1    
    31   18   19 ar   
    32   18   22 1    
    33   19   20 ar   
    34   19   21 1    
    35   21   42 1    
    36   21   43 1    
    37   21   44 1    
    38   22   27 ar   
    39   22   23 ar   
    40   23   24 ar   
    41   23   45 1    
    42   24   25 ar   
    43   24   46 1    
    44   25   26 ar   
    45   25   28 1    
    46   26   27 ar   
    47   26   47 1    
    48   27   48 1    
    49   29   30 am   BACKBONE|DICT|INTERRES
    50   29   49 1    
    51   30   31 2    
    52   30   32 1    
    53   32   50 1    
    54   32   51 1    
    55   32   52 1    
@<TRIPOS>SUBSTRUCTURE
     1 UNK         1 GROUP             0       ****    0 ROOT    
