@<TRIPOS>MOLECULE
ZINC11865478_1926
57   60    1
SMALL
USER_CHARGES


@<TRIPOS>ATOM
      1 C1          2.6365   52.7935   20.8096 C.3       1 UNK         0.0000 
      2 C2          3.9041   53.6043   20.5304 C.2       1 UNK         0.0000 
      3 C3          4.6792   54.0450   21.7205 C.ar      1 UNK         0.0000 
      4 C4          4.2677   53.8062   23.0460 C.ar      1 UNK         0.0000 
      5 C5          5.0855   54.2319   24.1062 C.ar      1 UNK         0.0000 
      6 C6          6.3036   54.8839   23.8036 C.ar      1 UNK         0.0000 
      7 C7          6.7061   55.1761   22.5002 C.ar      1 UNK         0.0000 
      8 C8          5.8688   54.7503   21.4736 C.ar      1 UNK         0.0000 
      9 O9          6.2970   55.0549   20.1958 O.3       1 UNK         0.0000 
     10 C10         5.5760   54.7083   19.0743 C.2       1 UNK         0.0000 
     11 O11         6.0673   55.0861   18.0119 O.2       1 UNK         0.0000 
     12 C12         4.3229   53.9349   19.2765 C.2       1 UNK         0.0000 
     13 C13         3.6239   53.5513   17.9608 C.3       1 UNK         0.0000 
     14 C14         2.8187   54.7159   17.3231 C.3       1 UNK         0.0000 
     15 C15         1.5406   54.2799   16.5915 C.2       1 UNK         0.0000 
     16 O16         1.5881   53.3703   15.7636 O.2       1 UNK         0.0000 
     17 N17         0.4112   54.9507   16.8814 N.am      1 UNK         0.0000 
     18 C18        -0.9192   54.6750   16.3141 C.3       1 UNK         0.0000 
     19 H19        -0.9997   53.6169   16.0484 H         1 UNK         0.0000 
     20 C20        -1.2295   55.5382   15.0408 C.3       1 UNK         0.0000 
     21 C21        -0.8933   57.0435   15.1481 C.3       1 UNK         0.0000 
     22 C22        -0.5625   54.9566   13.7805 C.3       1 UNK         0.0000 
     23 C23        -1.9564   54.9121   17.4611 C.2       1 UNK         0.0000 
     24 O24        -2.0959   56.0930   17.8612 O.co2     1 UNK         0.0000 
     25 O25         6.9996   55.1840   24.9387 O.3       1 UNK         0.0000 
     26 C26         6.2276   54.7427   25.9680 C.2       1 UNK         0.0000 
     27 C27         5.0183   54.2079   25.5369 C.2       1 UNK         0.0000 
     28 C28         3.9518   53.7077   26.5035 C.3       1 UNK         0.0000 
     29 C29         4.2435   54.2513   27.9226 C.3       1 UNK         0.0000 
     30 C30         5.7289   54.1225   28.3253 C.3       1 UNK         0.0000 
     31 C31         6.6926   54.8979   27.3983 C.3       1 UNK         0.0000 
     32 H32         1.9797   53.3235   21.4985 H         1 UNK         0.0000 
     33 H33         2.0299   52.5910   19.9312 H         1 UNK         0.0000 
     34 H34         2.8977   51.8348   21.2578 H         1 UNK         0.0000 
     35 H35         3.3432   53.2967   23.2689 H         1 UNK         0.0000 
     36 H36         7.6279   55.6963   22.2940 H         1 UNK         0.0000 
     37 H37         3.0024   52.6695   18.1042 H         1 UNK         0.0000 
     38 H38         4.3644   53.1901   17.2442 H         1 UNK         0.0000 
     39 H39         3.4472   55.2404   16.6025 H         1 UNK         0.0000 
     40 H40         2.5644   55.4572   18.0818 H         1 UNK         0.0000 
     41 H41         0.4216   55.6226   17.6348 H         1 UNK         0.0000 
     42 H42        -2.3017   55.4684   14.8502 H         1 UNK         0.0000 
     43 H43         0.1623   57.2050   15.3719 H         1 UNK         0.0000 
     44 H44        -1.4794   57.5416   15.9194 H         1 UNK         0.0000 
     45 H45        -1.1110   57.5565   14.2115 H         1 UNK         0.0000 
     46 H46         0.5238   55.0191   13.8392 H         1 UNK         0.0000 
     47 H47        -0.8294   53.9089   13.6389 H         1 UNK         0.0000 
     48 H48        -0.8724   55.4980   12.8868 H         1 UNK         0.0000 
     49 H49         2.9535   54.0129   26.1855 H         1 UNK         0.0000 
     50 H50         3.9463   52.6223   26.5333 H         1 UNK         0.0000 
     51 H51         3.6190   53.7263   28.6451 H         1 UNK         0.0000 
     52 H52         3.9449   55.2966   27.9808 H         1 UNK         0.0000 
     53 H53         6.0063   53.0665   28.3451 H         1 UNK         0.0000 
     54 H54         5.8624   54.4964   29.3395 H         1 UNK         0.0000 
     55 H55         7.7000   54.5082   27.5344 H         1 UNK         0.0000 
     56 H56         6.6930   55.9470   27.6811 H         1 UNK         0.0000 
     57 O57        -2.4956   53.8709   17.9002 O.co2     1 UNK         0.0000 
@<TRIPOS>BOND
     1    1    2 1    
     2    1   32 1    
     3    1   33 1    
     4    1   34 1    
     5    2   12 2    
     6    2    3 1    
     7    3    8 ar   
     8    3    4 ar   
     9    4    5 ar   
    10    4   35 1    
    11    5   27 1    
    12    5    6 ar   
    13    6    7 ar   
    14    6   25 1    
    15    7    8 ar   
    16    7   36 1    
    17    8    9 1    
    18    9   10 1    
    19   10   11 2    
    20   10   12 1    
    21   12   13 1    
    22   13   14 1    
    23   13   37 1    
    24   13   38 1    
    25   14   15 1    
    26   14   39 1    
    27   14   40 1    
    28   15   16 2    
    29   15   17 am   BACKBONE|DICT|INTERRES
    30   17   18 1    
    31   17   41 1    
    32   18   19 1    
    33   18   20 1    
    34   18   23 1    
    35   20   21 1    
    36   20   22 1    
    37   20   42 1    
    38   21   43 1    
    39   21   44 1    
    40   21   45 1    
    41   22   46 1    
    42   22   47 1    
    43   22   48 1    
    44   23   24 2    
    45   23   57 1    
    46   25   26 1    
    47   26   31 1    
    48   26   27 2    
    49   27   28 1    
    50   28   29 1    
    51   28   49 1    
    52   28   50 1    
    53   29   30 1    
    54   29   51 1    
    55   29   52 1    
    56   30   31 1    
    57   30   53 1    
    58   30   54 1    
    59   31   55 1    
    60   31   56 1    
@<TRIPOS>SUBSTRUCTURE
     1 UNK         1 GROUP             0       ****    0 ROOT    
