@<TRIPOS>MOLECULE
ZINC12381406_4422
66   69    1
SMALL
USER_CHARGES


@<TRIPOS>ATOM
      1 C1          3.7995   51.7184   29.6904 C.3       1 UNK         0.0000 
      2 C2          3.1288   53.1022   29.5271 C.3       1 UNK         0.0000 
      3 C3          1.8197   53.0843   30.3555 C.3       1 UNK         0.0000 
      4 C4          4.0785   54.1469   30.1509 C.3       1 UNK         0.0000 
      5 C5          2.8432   53.4735   28.0190 C.3       1 UNK         0.0000 
      6 H6          2.3452   54.4451   28.0327 H         1 UNK         0.0000 
      7 C7          1.8987   52.4679   27.3108 C.3       1 UNK         0.0000 
      8 C8          1.5240   52.8401   25.8641 C.3       1 UNK         0.0000 
      9 C9          2.7102   53.4011   25.0758 C.2       1 UNK         0.0000 
     10 C10         3.8674   53.8220   25.7255 C.2       1 UNK         0.0000 
     11 S11         5.0439   54.4532   24.6390 S.3       1 UNK         0.0000 
     12 C12         4.0370   54.0874   23.2603 C.2       1 UNK         0.0000 
     13 C13         2.8334   53.4459   23.6532 C.2       1 UNK         0.0000 
     14 C14         1.7256   53.0652   22.7756 C.2       1 UNK         0.0000 
     15 O15         0.5837   53.2961   23.1771 O.2       1 UNK         0.0000 
     16 N16         1.9535   52.5135   21.5429 N.am      1 UNK         0.0000 
     17 C17         0.8169   52.3838   20.5970 C.3       1 UNK         0.0000 
     18 C18         0.5438   50.8920   20.3295 C.3       1 UNK         0.0000 
     19 C19         1.8142   50.2441   19.7462 C.3       1 UNK         0.0000 
     20 C20         2.9783   50.4155   20.7380 C.3       1 UNK         0.0000 
     21 C21         3.2251   51.8972   21.0996 C.3       1 UNK         0.0000 
     22 C22         1.5924   48.7425   19.4537 C.2       1 UNK         0.0000 
     23 O23         0.7764   48.0729   20.0828 O.2       1 UNK         0.0000 
     24 N24         2.3045   48.1844   18.4808 N.am      1 UNK         0.0000 
     25 N25         4.4241   54.4141   21.9571 N.am      1 UNK         0.0000 
     26 C26         5.6237   54.8486   21.5017 C.2       1 UNK         0.0000 
     27 O27         6.6051   55.0674   22.2142 O.2       1 UNK         0.0000 
     28 C28         5.7352   55.0394   20.0010 C.ar      1 UNK         0.0000 
     29 C29         4.6261   54.8949   19.1463 C.ar      1 UNK         0.0000 
     30 C30         4.7639   55.0673   17.7725 C.ar      1 UNK         0.0000 
     31 C31         6.0083   55.3821   17.2362 C.ar      1 UNK         0.0000 
     32 C32         7.1173   55.5282   18.0644 C.ar      1 UNK         0.0000 
     33 C33         6.9796   55.3568   19.4384 C.ar      1 UNK         0.0000 
     34 C34         4.1560   53.6726   27.2042 C.3       1 UNK         0.0000 
     35 H35         4.7800   51.6858   29.2153 H         1 UNK         0.0000 
     36 H36         3.9636   51.4848   30.7433 H         1 UNK         0.0000 
     37 H37         3.1903   50.9156   29.2815 H         1 UNK         0.0000 
     38 H38         1.2791   54.0289   30.2838 H         1 UNK         0.0000 
     39 H39         1.1402   52.2929   30.0406 H         1 UNK         0.0000 
     40 H40         2.0131   52.8964   31.4120 H         1 UNK         0.0000 
     41 H41         3.6467   55.1452   30.0815 H         1 UNK         0.0000 
     42 H42         4.3044   53.9157   31.1900 H         1 UNK         0.0000 
     43 H43         5.0566   54.1788   29.6763 H         1 UNK         0.0000 
     44 H44         2.3056   51.4655   27.3363 H         1 UNK         0.0000 
     45 H45         0.9695   52.3726   27.8683 H         1 UNK         0.0000 
     46 H46         0.7339   53.5832   25.8665 H         1 UNK         0.0000 
     47 H47         1.0956   51.9636   25.3760 H         1 UNK         0.0000 
     48 H48         1.1146   52.8690   19.6672 H         1 UNK         0.0000 
     49 H49        -0.0861   52.8970   20.9233 H         1 UNK         0.0000 
     50 H50        -0.2764   50.8568   19.6111 H         1 UNK         0.0000 
     51 H51         0.2444   50.4534   21.2855 H         1 UNK         0.0000 
     52 H52         2.0507   50.7050   18.7843 H         1 UNK         0.0000 
     53 H53         2.7971   49.8910   21.6783 H         1 UNK         0.0000 
     54 H54         3.9085   50.0960   20.2771 H         1 UNK         0.0000 
     55 H55         3.5679   52.4327   20.2144 H         1 UNK         0.0000 
     56 H56         4.0067   51.9366   21.8565 H         1 UNK         0.0000 
     57 H57         2.1701   47.2099   18.2788 H         1 UNK         0.0000 
     58 H58         2.9680   48.7192   17.9165 H         1 UNK         0.0000 
     59 H59         3.7265   54.2164   21.2554 H         1 UNK         0.0000 
     60 H60         3.6419   54.6558   19.5219 H         1 UNK         0.0000 
     61 H61         3.9070   54.9579   17.1247 H         1 UNK         0.0000 
     62 H62         6.1138   55.5133   16.1684 H         1 UNK         0.0000 
     63 H63         8.0809   55.7743   17.6402 H         1 UNK         0.0000 
     64 H64         7.8595   55.4735   20.0601 H         1 UNK         0.0000 
     65 H65         4.8196   52.8163   27.3289 H         1 UNK         0.0000 
     66 H66         4.6995   54.5550   27.5437 H         1 UNK         0.0000 
@<TRIPOS>BOND
     1    1    2 1    
     2    1   35 1    
     3    1   36 1    
     4    1   37 1    
     5    2    3 1    
     6    2    4 1    
     7    2    5 1    
     8    3   38 1    
     9    3   39 1    
    10    3   40 1    
    11    4   41 1    
    12    4   42 1    
    13    4   43 1    
    14    5    6 1    
    15    5   34 1    
    16    5    7 1    
    17    7    8 1    
    18    7   44 1    
    19    7   45 1    
    20    8    9 1    
    21    8   46 1    
    22    8   47 1    
    23    9   13 1    
    24    9   10 2    
    25   10   11 1    
    26   10   34 1    
    27   11   12 1    
    28   12   13 2    
    29   12   25 am   BACKBONE|DICT|INTERRES
    30   13   14 1    
    31   14   15 2    
    32   14   16 am   BACKBONE|DICT|INTERRES
    33   16   21 1    
    34   16   17 1    
    35   17   18 1    
    36   17   48 1    
    37   17   49 1    
    38   18   19 1    
    39   18   50 1    
    40   18   51 1    
    41   19   20 1    
    42   19   22 1    
    43   19   52 1    
    44   20   21 1    
    45   20   53 1    
    46   20   54 1    
    47   21   55 1    
    48   21   56 1    
    49   22   23 2    
    50   22   24 am   BACKBONE|DICT|INTERRES
    51   24   57 1    
    52   24   58 1    
    53   25   26 am   BACKBONE|DICT|INTERRES
    54   25   59 1    
    55   26   27 2    
    56   26   28 1    
    57   28   33 ar   
    58   28   29 ar   
    59   29   30 ar   
    60   29   60 1    
    61   30   31 ar   
    62   30   61 1    
    63   31   32 ar   
    64   31   62 1    
    65   32   33 ar   
    66   32   63 1    
    67   33   64 1    
    68   34   65 1    
    69   34   66 1    
@<TRIPOS>SUBSTRUCTURE
     1 UNK         1 GROUP             0       ****    0 ROOT    
