@<TRIPOS>MOLECULE
ZINC12500479_929
57   59    1
SMALL
USER_CHARGES


@<TRIPOS>ATOM
      1 C1          4.1290   52.5468   29.0984 C.3       1 UNK         0.0000 
      2 C2          3.6318   53.8606   28.4546 C.3       1 UNK         0.0000 
      3 C3          2.0780   53.7494   28.4722 C.3       1 UNK         0.0000 
      4 C4          3.9602   55.0608   29.3606 C.3       1 UNK         0.0000 
      5 C5          4.2254   54.0600   27.0225 C.ar      1 UNK         0.0000 
      6 C6          3.3568   54.1373   25.9211 C.ar      1 UNK         0.0000 
      7 C7          3.8190   54.3054   24.6238 C.ar      1 UNK         0.0000 
      8 C8          5.1911   54.3960   24.3591 C.ar      1 UNK         0.0000 
      9 C9          6.0733   54.3509   25.4385 C.ar      1 UNK         0.0000 
     10 C10         5.6154   54.1761   26.7484 C.ar      1 UNK         0.0000 
     11 Br11        6.9837   54.0804   28.0712 Br        1 UNK         0.0000 
     12 C12         5.7035   54.4967   22.9431 C.2       1 UNK         0.0000 
     13 O13         6.7053   55.1612   22.6787 O.2       1 UNK         0.0000 
     14 N14         4.9861   53.7520   22.0738 N.am      1 UNK         0.0000 
     15 C15         4.9439   53.6433   20.7064 C.2       1 UNK         0.0000 
     16 S16         5.8323   54.4990   19.5778 S.2       1 UNK         0.0000 
     17 N17         4.0718   52.6976   20.2444 N.pl3     1 UNK         0.0000 
     18 C18         3.0286   52.0822   20.9581 C.ar      1 UNK         0.0000 
     19 C19         2.1154   52.8556   21.6805 C.ar      1 UNK         0.0000 
     20 C20         1.0905   52.2417   22.3867 C.ar      1 UNK         0.0000 
     21 C21         1.0043   50.8500   22.4164 C.ar      1 UNK         0.0000 
     22 C22         1.9160   50.0719   21.6919 C.ar      1 UNK         0.0000 
     23 C23         2.9130   50.6928   20.9373 C.ar      1 UNK         0.0000 
     24 S24        -0.3186   50.0794   23.3500 S.o2      1 UNK         0.0000 
     25 O25        -1.5707   50.6800   22.8727 O.2       1 UNK         0.0000 
     26 O26        -0.1110   48.6278   23.2794 O.2       1 UNK         0.0000 
     27 N27        -0.1007   50.5752   25.0377 N.pl3     1 UNK         0.0000 
     28 C28        -0.1734   52.0301   25.3770 C.3       1 UNK         0.0000 
     29 C29        -1.0181   52.0521   26.6553 C.3       1 UNK         0.0000 
     30 C30        -1.8071   50.7674   26.6355 C.3       1 UNK         0.0000 
     31 C31        -0.7968   49.7764   26.0815 C.3       1 UNK         0.0000 
     32 H32         3.6980   52.3934   30.0875 H         1 UNK         0.0000 
     33 H33         5.2054   52.4973   29.2262 H         1 UNK         0.0000 
     34 H34         3.8327   51.6967   28.4884 H         1 UNK         0.0000 
     35 H35         1.5948   54.6472   28.0812 H         1 UNK         0.0000 
     36 H36         1.7350   52.8961   27.8857 H         1 UNK         0.0000 
     37 H37         1.6891   53.6042   29.4816 H         1 UNK         0.0000 
     38 H38         3.4793   55.9690   28.9946 H         1 UNK         0.0000 
     39 H39         3.5860   54.8939   30.3716 H         1 UNK         0.0000 
     40 H40         5.0232   55.2666   29.4567 H         1 UNK         0.0000 
     41 H41         2.2883   54.0808   26.0336 H         1 UNK         0.0000 
     42 H42         3.0902   54.3688   23.8295 H         1 UNK         0.0000 
     43 H43         7.1397   54.4130   25.2578 H         1 UNK         0.0000 
     44 H44         4.2555   53.2269   22.5291 H         1 UNK         0.0000 
     45 H45         4.1280   52.4714   19.2601 H         1 UNK         0.0000 
     46 H46         2.1832   53.9330   21.6820 H         1 UNK         0.0000 
     47 H47         0.3699   52.8593   22.8980 H         1 UNK         0.0000 
     48 H48         1.8416   48.9932   21.6911 H         1 UNK         0.0000 
     49 H49         3.5994   50.0969   20.3540 H         1 UNK         0.0000 
     50 H50         0.7894   52.4581   25.6531 H         1 UNK         0.0000 
     51 H51        -0.7791   52.5956   24.6659 H         1 UNK         0.0000 
     52 H52        -0.3770   52.0684   27.5374 H         1 UNK         0.0000 
     53 H53        -1.6639   52.9291   26.7168 H         1 UNK         0.0000 
     54 H54        -2.6734   50.8417   25.9795 H         1 UNK         0.0000 
     55 H55        -2.1643   50.4966   27.6318 H         1 UNK         0.0000 
     56 H56        -1.1503   48.8037   25.7411 H         1 UNK         0.0000 
     57 H57        -0.0896   49.5346   26.8739 H         1 UNK         0.0000 
@<TRIPOS>BOND
     1    1    2 1    
     2    1   32 1    
     3    1   33 1    
     4    1   34 1    
     5    2    3 1    
     6    2    4 1    
     7    2    5 1    
     8    3   35 1    
     9    3   36 1    
    10    3   37 1    
    11    4   38 1    
    12    4   39 1    
    13    4   40 1    
    14    5   10 ar   
    15    5    6 ar   
    16    6    7 ar   
    17    6   41 1    
    18    7    8 ar   
    19    7   42 1    
    20    8    9 ar   
    21    8   12 1    
    22    9   10 ar   
    23    9   43 1    
    24   10   11 1    
    25   12   13 2    
    26   12   14 am   BACKBONE|DICT|INTERRES
    27   14   15 am   BACKBONE|DICT|INTERRES
    28   14   44 1    
    29   15   16 2    
    30   15   17 1    
    31   17   18 1    
    32   17   45 1    
    33   18   23 ar   
    34   18   19 ar   
    35   19   20 ar   
    36   19   46 1    
    37   20   21 ar   
    38   20   47 1    
    39   21   22 ar   
    40   21   24 1    
    41   22   23 ar   
    42   22   48 1    
    43   23   49 1    
    44   24   25 2    
    45   24   26 2    
    46   24   27 1    
    47   27   31 1    
    48   27   28 1    
    49   28   29 1    
    50   28   50 1    
    51   28   51 1    
    52   29   30 1    
    53   29   52 1    
    54   29   53 1    
    55   30   31 1    
    56   30   54 1    
    57   30   55 1    
    58   31   56 1    
    59   31   57 1    
@<TRIPOS>SUBSTRUCTURE
     1 UNK         1 GROUP             0       ****    0 ROOT    
