@<TRIPOS>MOLECULE
ZINC08623718_5425
73   77    1
SMALL
USER_CHARGES


@<TRIPOS>ATOM
      1 C1         -6.2262   52.2725   27.3586 C.3       1 UNK         0.0000 
      2 O2         -5.0869   51.4559   27.6112 O.3       1 UNK         0.0000 
      3 C3         -3.9962   51.5465   26.7708 C.ar      1 UNK         0.0000 
      4 C4         -3.0159   50.5616   26.9056 C.ar      1 UNK         0.0000 
      5 C5         -1.8938   50.5534   26.0832 C.ar      1 UNK         0.0000 
      6 C6         -1.7331   51.5493   25.1174 C.ar      1 UNK         0.0000 
      7 C7         -2.7001   52.5504   24.9894 C.ar      1 UNK         0.0000 
      8 C8         -3.8225   52.5517   25.8103 C.ar      1 UNK         0.0000 
      9 C9         -0.5720   51.5541   24.1915 C.2       1 UNK         0.0000 
     10 C10         0.0438   52.5373   23.4513 C.2       1 UNK         0.0000 
     11 C11         0.9880   51.8864   22.6632 C.2       1 UNK         0.0000 
     12 N12         1.0200   50.5971   22.9416 N.2       1 UNK         0.0000 
     13 O13         0.0432   50.3751   23.9135 O.3       1 UNK         0.0000 
     14 C14         1.8626   52.4944   21.5778 C.3       1 UNK         0.0000 
     15 C15         3.3484   52.0051   21.5666 C.3       1 UNK         0.0000 
     16 H16         3.4661   51.1771   22.2652 H         1 UNK         0.0000 
     17 C17         3.7344   51.3979   20.2016 C.3       1 UNK         0.0000 
     18 C18         4.9339   53.5699   19.5410 C.3       1 UNK         0.0000 
     19 C19         4.5263   54.1706   20.8976 C.3       1 UNK         0.0000 
     20 C20         4.3806   53.0921   21.9981 C.3       1 UNK         0.0000 
     21 H21         5.3387   52.5710   22.0816 H         1 UNK         0.0000 
     22 C22         4.0163   53.7175   23.3781 C.3       1 UNK         0.0000 
     23 C23         5.1909   54.1112   24.3001 C.2       1 UNK         0.0000 
     24 O24         6.3380   54.0952   23.8489 O.2       1 UNK         0.0000 
     25 N25         4.9262   54.3313   25.6144 N.am      1 UNK         0.0000 
     26 C26         5.9997   54.5380   26.6009 C.3       1 UNK         0.0000 
     27 C27         5.7961   53.4687   27.6980 C.3       1 UNK         0.0000 
     28 C28         4.3632   53.4053   28.2261 C.ar      1 UNK         0.0000 
     29 C29         4.0771   52.7871   29.4485 C.ar      1 UNK         0.0000 
     30 C30         2.7692   52.6987   29.9488 C.ar      1 UNK         0.0000 
     31 C31         1.7293   53.2478   29.1872 C.ar      1 UNK         0.0000 
     32 C32         2.0057   53.8669   27.9689 C.ar      1 UNK         0.0000 
     33 C33         3.3072   53.9463   27.4689 C.ar      1 UNK         0.0000 
     34 C34         3.5751   54.6240   26.1233 C.3       1 UNK         0.0000 
     35 O35         0.4288   53.2244   29.6282 O.3       1 UNK         0.0000 
     36 C36        -0.2862   52.0458   29.2789 C.3       1 UNK         0.0000 
     37 O37         2.4463   52.0976   31.1549 O.3       1 UNK         0.0000 
     38 C38         3.4812   51.6964   32.0495 C.3       1 UNK         0.0000 
     39 H39        -7.0240   51.9951   28.0470 H         1 UNK         0.0000 
     40 H40        -6.0138   53.3310   27.5114 H         1 UNK         0.0000 
     41 H41        -6.6029   52.1267   26.3447 H         1 UNK         0.0000 
     42 H42        -3.1333   49.7856   27.6505 H         1 UNK         0.0000 
     43 H43        -1.1563   49.7704   26.2074 H         1 UNK         0.0000 
     44 H44        -2.5902   53.3276   24.2465 H         1 UNK         0.0000 
     45 H45        -4.5535   53.3366   25.6835 H         1 UNK         0.0000 
     46 H46        -0.1937   53.5881   23.4496 H         1 UNK         0.0000 
     47 H47         1.8329   53.5779   21.6835 H         1 UNK         0.0000 
     48 H48         1.3846   52.3302   20.6126 H         1 UNK         0.0000 
     49 H49         4.6995   50.8952   20.2464 H         1 UNK         0.0000 
     50 H50         2.9957   50.7014   19.8049 H         1 UNK         0.0000 
     51 H51         5.9031   53.0653   19.5764 H         1 UNK         0.0000 
     52 H52         4.9488   54.3094   18.7402 H         1 UNK         0.0000 
     53 H53         3.6010   54.7387   20.7899 H         1 UNK         0.0000 
     54 H54         5.2633   54.9140   21.2111 H         1 UNK         0.0000 
     55 H55         3.4389   52.9792   23.9355 H         1 UNK         0.0000 
     56 H56         3.3789   54.5915   23.2427 H         1 UNK         0.0000 
     57 H57         7.0006   54.4641   26.1731 H         1 UNK         0.0000 
     58 H58         5.9550   55.5378   27.0349 H         1 UNK         0.0000 
     59 H59         6.5002   53.6460   28.5124 H         1 UNK         0.0000 
     60 H60         6.0631   52.4978   27.2900 H         1 UNK         0.0000 
     61 H61         4.9015   52.3539   29.9851 H         1 UNK         0.0000 
     62 H62         1.1886   54.2912   27.4055 H         1 UNK         0.0000 
     63 H63         2.7744   54.3534   25.4363 H         1 UNK         0.0000 
     64 H64         3.5047   55.6966   26.2609 H         1 UNK         0.0000 
     65 H65        -1.2956   52.0900   29.6879 H         1 UNK         0.0000 
     66 H66        -0.3716   51.9371   28.1983 H         1 UNK         0.0000 
     67 H67         0.1905   51.1544   29.6806 H         1 UNK         0.0000 
     68 H68         3.0460   51.1325   32.8779 H         1 UNK         0.0000 
     69 H69         4.0134   52.5487   32.4722 H         1 UNK         0.0000 
     70 H70         4.2080   51.0424   31.5771 H         1 UNK         0.0000 
     71 N71         3.9060   52.4969   19.1357 N.4       1 UNK         0.0000 
     72 H72         4.2333   52.0193   18.2992 H         1 UNK         0.0000 
     73 H73         3.0168   52.9248   18.9201 H         1 UNK         0.0000 
@<TRIPOS>BOND
     1    1    2 1    
     2    1   39 1    
     3    1   40 1    
     4    1   41 1    
     5    2    3 1    
     6    3    8 ar   
     7    3    4 ar   
     8    4    5 ar   
     9    4   42 1    
    10    5    6 ar   
    11    5   43 1    
    12    6    7 ar   
    13    6    9 1    
    14    7    8 ar   
    15    7   44 1    
    16    8   45 1    
    17    9   13 1    
    18    9   10 2    
    19   10   11 1    
    20   10   46 1    
    21   11   12 2    
    22   11   14 1    
    23   12   13 1    
    24   14   15 1    
    25   14   47 1    
    26   14   48 1    
    27   15   16 1    
    28   15   20 1    
    29   15   17 1    
    30   17   49 1    
    31   17   50 1    
    32   17   71 1    
    33   18   19 1    
    34   18   51 1    
    35   18   52 1    
    36   18   71 1    
    37   19   20 1    
    38   19   53 1    
    39   19   54 1    
    40   20   21 1    
    41   20   22 1    
    42   22   23 1    
    43   22   55 1    
    44   22   56 1    
    45   23   24 2    
    46   23   25 am   BACKBONE|DICT|INTERRES
    47   25   34 1    
    48   25   26 1    
    49   26   27 1    
    50   26   57 1    
    51   26   58 1    
    52   27   28 1    
    53   27   59 1    
    54   27   60 1    
    55   28   33 ar   
    56   28   29 ar   
    57   29   30 ar   
    58   29   61 1    
    59   30   31 ar   
    60   30   37 1    
    61   31   32 ar   
    62   31   35 1    
    63   32   33 ar   
    64   32   62 1    
    65   33   34 1    
    66   34   63 1    
    67   34   64 1    
    68   35   36 1    
    69   36   65 1    
    70   36   66 1    
    71   36   67 1    
    72   37   38 1    
    73   38   68 1    
    74   38   69 1    
    75   38   70 1    
    76   71   72 1    
    77   71   73 1    
@<TRIPOS>SUBSTRUCTURE
     1 UNK         1 GROUP             0       ****    0 ROOT    
