ZINC40232071_4792
                    3D
 Schrodinger Suite 2024-2.
 27 28  0  0  1  0            999 V2000
    5.9214   54.4701   24.5667 C   0  0  0  0  0  0
    6.3047   54.4968   23.2208 C   0  0  0  0  0  0
    5.2393   54.3051   22.3545 C   0  0  0  0  0  0
    3.7422   54.0963   23.2029 S   0  0  0  0  0  0
    4.5626   54.2018   24.7473 C   0  0  0  0  0  0
    3.8646   54.0960   26.0089 C   0  0  0  0  0  0
    4.3777   54.5279   27.0410 O   0  0  0  0  0  0
    2.6784   53.4515   25.9352 N   0  0  0  0  0  0
    1.8107   53.0155   26.9590 C   0  0  0  0  0  0
    2.1229   53.0350   28.3290 C   0  0  0  0  0  0
    1.2116   52.5639   29.2896 C   0  0  0  0  0  0
   -0.0356   52.0820   28.8564 C   0  0  0  0  0  0
   -0.3423   52.0456   27.4994 C   0  0  0  0  0  0
    0.5748   52.4962   26.5550 C   0  0  0  0  0  0
    0.2477   52.4385   25.2412 F   0  0  0  0  0  0
   -0.9642   51.6351   29.7315 F   0  0  0  0  0  0
    1.6399   52.4968   30.7358 C   0  0  0  0  0  0
    2.8227   52.3430   31.0327 O   0  0  0  0  0  0
    0.7056   52.5938   31.6820 N   0  0  0  0  0  0
    5.2737   54.2888   20.4530 Br  0  0  0  0  0  0
    6.6155   54.6073   25.3835 H   0  0  0  0  0  0
    7.3174   54.6618   22.8838 H   0  0  0  0  0  0
    2.3668   53.2144   25.0052 H   0  0  0  0  0  0
    3.0886   53.3853   28.6614 H   0  0  0  0  0  0
   -1.2937   51.6480   27.1781 H   0  0  0  0  0  0
   -0.2771   52.4954   31.4605 H   0  0  0  0  0  0
    0.9776   52.5170   32.6511 H   0  0  0  0  0  0
  1  5  2  0  0  0
  1  2  1  0  0  0
  1 21  1  0  0  0
  2  3  2  0  0  0
  2 22  1  0  0  0
  3  4  1  0  0  0
  3 20  1  0  0  0
  4  5  1  0  0  0
  5  6  1  0  0  0
  6  7  2  0  0  0
  6  8  1  0  0  0
  8  9  1  0  0  0
  8 23  1  0  0  0
  9 14  2  0  0  0
  9 10  1  0  0  0
 10 11  2  0  0  0
 10 24  1  0  0  0
 11 12  1  0  0  0
 11 17  1  0  0  0
 12 13  2  0  0  0
 12 16  1  0  0  0
 13 14  1  0  0  0
 13 25  1  0  0  0
 14 15  1  0  0  0
 17 18  2  0  0  0
 17 19  1  0  0  0
 19 26  1  0  0  0
 19 27  1  0  0  0
M  END
> <i_i_glide_confnum>
2

> <i_i_glide_lignum>
4793

> <i_i_glide_posenum>
370

> <i_i_glide_rotatable_bonds>
4

> <i_m_Source_File_Index>
911

> <b_m_subgroup_collapsed>
0

> <r_i_docking_score>
-5.76322

> <r_i_glide_ecoul>
-4.60246

> <r_i_glide_eff_state_penalty>
0

> <r_i_glide_einternal>
3.85265

> <r_i_glide_emodel>
-52.4968

> <r_i_glide_energy>
-39.6569

> <r_i_glide_erotb>
0.441296

> <r_i_glide_esite>
-0.201623

> <r_i_glide_evdw>
-35.0545

> <r_i_glide_gscore>
-5.76322

> <r_i_glide_hbond>
-0.29584

> <r_i_glide_ligand_efficiency>
-0.288161

> <r_i_glide_ligand_efficiency_ln>
-1.44234

> <r_i_glide_ligand_efficiency_sa>
-0.782189

> <r_i_glide_lipo>
-1.86686

> <r_i_glide_metal>
0

> <r_i_glide_rewards>
-1.3971

> <s_i_glide_gridfile>
wee1_glide-grid

> <s_m_Source_File>
wee1_decoys_glide_SP.sdf

> <s_m_Source_Path>
/Users/zhangxujun/Desktop

> <s_m_entry_id>
1186

> <s_m_entry_name>
wee1_decoys_glide_SP.911

> <s_m_subgroup_title>
wee1_decoys_glide_SP

> <s_m_subgroupid>
wee1_decoys_glide_SP


$$$$
