ZINC30981008_5437
                    3D
 Schrodinger Suite 2024-2.
 72 76  0  0  1  0            999 V2000
    0.1421   48.0895   16.4844 C   0  0  0  0  0  0
   -0.3177   49.5385   16.7724 C   0  0  0  0  0  0
    0.8535   50.4699   17.1804 C   0  0  0  0  0  0
    1.5780   49.9597   18.4385 C   0  0  2  0  0  0
    2.0841   49.0266   18.1835 H   0  0  0  0  0  0
    0.5423   49.5594   19.5033 C   0  0  0  0  0  0
    0.8768   49.3771   20.8536 C   0  0  0  0  0  0
   -0.0698   49.0158   21.8137 C   0  0  0  0  0  0
   -1.3941   48.7988   21.4067 C   0  0  0  0  0  0
   -1.7521   48.9560   20.0688 C   0  0  0  0  0  0
   -0.7954   49.3290   19.1261 C   0  0  0  0  0  0
   -1.2753   49.5392   17.8427 O   0  0  0  0  0  0
    0.3843   48.8967   23.1127 O   0  0  0  0  0  0
   -0.5137   48.4786   24.1352 C   0  0  0  0  0  0
    2.7044   50.7850   18.8788 N   0  0  0  0  0  0
    2.6421   51.9401   19.5584 C   0  0  0  0  0  0
    1.5734   52.4967   19.8018 O   0  0  0  0  0  0
    3.9679   52.4813   20.1499 C   0  0  2  0  0  0
    3.8056   52.4111   21.6817 C   0  0  0  0  0  0
    5.0799   52.9145   22.3512 C   0  0  0  0  0  0
    5.2874   54.3956   21.9615 N   0  3  2  0  0  0
    5.5033   54.5428   20.4304 C   0  0  0  0  0  0
    4.3004   53.9254   19.6730 C   0  0  0  0  0  0
    6.4453   55.0265   22.7915 C   0  0  0  0  0  0
    6.1182   55.0816   24.2873 C   0  0  0  0  0  0
    4.9990   54.8037   24.9044 N   0  0  0  0  0  0
    5.3377   54.8681   26.1778 C   0  0  0  0  0  0
    6.5654   55.2876   26.4103 N   0  0  0  0  0  0
    7.1044   55.4409   25.1360 O   0  0  0  0  0  0
    4.3998   54.4490   27.2797 C   0  0  0  0  0  0
    4.8108   54.4965   28.6175 C   0  0  0  0  0  0
    3.9619   54.0652   29.6318 C   0  0  0  0  0  0
    2.6904   53.5786   29.3421 C   0  0  0  0  0  0
    2.2649   53.5407   28.0072 C   0  0  0  0  0  0
    3.1134   53.9722   26.9888 C   0  0  0  0  0  0
    1.9378   53.1589   30.4223 O   0  0  0  0  0  0
    0.6351   52.6234   30.2028 C   0  0  0  0  0  0
   -1.0619   50.1695   15.5832 C   0  0  0  0  0  0
    0.9368   48.0688   15.7379 H   0  0  0  0  0  0
    0.5105   47.5793   17.3736 H   0  0  0  0  0  0
   -0.6855   47.4896   16.1057 H   0  0  0  0  0  0
    1.5603   50.6048   16.3600 H   0  0  0  0  0  0
    0.4505   51.4589   17.4056 H   0  0  0  0  0  0
    1.8975   49.5304   21.1723 H   0  0  0  0  0  0
   -2.1573   48.5189   22.1160 H   0  0  0  0  0  0
   -2.7764   48.8046   19.7622 H   0  0  0  0  0  0
    0.0239   48.4131   25.0818 H   0  0  0  0  0  0
   -0.9281   47.4915   23.9252 H   0  0  0  0  0  0
   -1.3297   49.1903   24.2675 H   0  0  0  0  0  0
    3.6241   50.4966   18.5414 H   0  0  0  0  0  0
    4.7548   51.7975   19.8251 H   0  0  0  0  0  0
    2.9987   53.0585   22.0352 H   0  0  0  0  0  0
    3.6598   51.3836   22.0226 H   0  0  0  0  0  0
    5.9571   52.3320   22.0819 H   0  0  0  0  0  0
    4.9408   52.8967   23.4236 H   0  0  0  0  0  0
    6.4556   54.0967   20.1525 H   0  0  0  0  0  0
    5.5500   55.6146   20.2271 H   0  0  0  0  0  0
    4.5480   53.9362   18.6098 H   0  0  0  0  0  0
    3.5044   54.6241   19.8903 H   0  0  0  0  0  0
    7.3309   54.4240   22.5815 H   0  0  0  0  0  0
    6.6087   56.0215   22.3762 H   0  0  0  0  0  0
    5.7955   54.8565   28.8830 H   0  0  0  0  0  0
    4.3044   54.0935   30.6538 H   0  0  0  0  0  0
    1.2865   53.1707   27.7419 H   0  0  0  0  0  0
    2.7645   53.9180   25.9678 H   0  0  0  0  0  0
    0.1949   52.3391   31.1596 H   0  0  0  0  0  0
   -0.0280   53.3573   29.7424 H   0  0  0  0  0  0
    0.6679   51.7289   29.5786 H   0  0  0  0  0  0
   -0.4216   50.2379   14.7034 H   0  0  0  0  0  0
   -1.9374   49.5794   15.3110 H   0  0  0  0  0  0
   -1.4143   51.1745   15.8188 H   0  0  0  0  0  0
    4.4395   54.8920   22.2064 H   0  0  0  0  0  0
  1  2  1  0  0  0
  1 39  1  0  0  0
  1 40  1  0  0  0
  1 41  1  0  0  0
  2 12  1  0  0  0
  2  3  1  0  0  0
  2 38  1  0  0  0
  3  4  1  0  0  0
  3 42  1  0  0  0
  3 43  1  0  0  0
  4  5  1  0  0  0
  4  6  1  0  0  0
  4 15  1  0  0  0
  6 11  2  0  0  0
  6  7  1  0  0  0
  7  8  2  0  0  0
  7 44  1  0  0  0
  8  9  1  0  0  0
  8 13  1  0  0  0
  9 10  2  0  0  0
  9 45  1  0  0  0
 10 11  1  0  0  0
 10 46  1  0  0  0
 11 12  1  0  0  0
 13 14  1  0  0  0
 14 47  1  0  0  0
 14 48  1  0  0  0
 14 49  1  0  0  0
 15 16  1  0  0  0
 15 50  1  0  0  0
 16 17  2  0  0  0
 16 18  1  0  0  0
 18 23  1  0  0  0
 18 19  1  0  0  0
 18 51  1  0  0  0
 19 20  1  0  0  0
 19 52  1  0  0  0
 19 53  1  0  0  0
 20 21  1  0  0  0
 20 54  1  0  0  0
 20 55  1  0  0  0
 21 22  1  0  0  0
 21 24  1  0  0  0
 21 72  1  0  0  0
 22 23  1  0  0  0
 22 56  1  0  0  0
 22 57  1  0  0  0
 23 58  1  0  0  0
 23 59  1  0  0  0
 24 25  1  0  0  0
 24 60  1  0  0  0
 24 61  1  0  0  0
 25 29  1  0  0  0
 25 26  2  0  0  0
 26 27  1  0  0  0
 27 28  2  0  0  0
 27 30  1  0  0  0
 28 29  1  0  0  0
 30 35  2  0  0  0
 30 31  1  0  0  0
 31 32  2  0  0  0
 31 62  1  0  0  0
 32 33  1  0  0  0
 32 63  1  0  0  0
 33 34  2  0  0  0
 33 36  1  0  0  0
 34 35  1  0  0  0
 34 64  1  0  0  0
 35 65  1  0  0  0
 36 37  1  0  0  0
 37 66  1  0  0  0
 37 67  1  0  0  0
 37 68  1  0  0  0
 38 69  1  0  0  0
 38 70  1  0  0  0
 38 71  1  0  0  0
M  CHG  1  21   1
M  END
> <i_i_glide_confnum>
1

> <i_i_glide_lignum>
5438

> <i_i_glide_posenum>
274

> <i_i_glide_rotatable_bonds>
8

> <i_m_Source_File_Index>
3086

> <b_m_subgroup_collapsed>
0

> <r_i_docking_score>
-5.1389

> <r_i_glide_ecoul>
-4.58241

> <r_i_glide_eff_state_penalty>
0

> <r_i_glide_einternal>
1.83724

> <r_i_glide_emodel>
-60.192

> <r_i_glide_energy>
-44.2443

> <r_i_glide_erotb>
0.476624

> <r_i_glide_esite>
-0.135577

> <r_i_glide_evdw>
-39.6619

> <r_i_glide_gscore>
-5.1389

> <r_i_glide_hbond>
-0.322095

> <r_i_glide_ligand_efficiency>
-0.138889

> <r_i_glide_ligand_efficiency_ln>
-1.11451

> <r_i_glide_ligand_efficiency_sa>
-0.46281

> <r_i_glide_lipo>
-1.95756

> <r_i_glide_metal>
0

> <r_i_glide_rewards>
-0.529831

> <s_i_glide_gridfile>
wee1_glide-grid

> <s_m_Source_File>
wee1_decoys_glide_SP.sdf

> <s_m_Source_Path>
/Users/zhangxujun/Desktop

> <s_m_entry_id>
3361

> <s_m_entry_name>
wee1_decoys_glide_SP.3086

> <s_m_subgroup_title>
wee1_decoys_glide_SP

> <s_m_subgroupid>
wee1_decoys_glide_SP


$$$$
