ZINC00524899_3592
                    3D
 Schrodinger Suite 2024-2.
 39 42  0  0  1  0            999 V2000
   -3.4948   53.2964   24.0969 C   0  0  0  0  0  0
   -4.5760   53.5275   24.9405 C   0  0  0  0  0  0
   -4.7306   52.7564   26.0901 C   0  0  0  0  0  0
   -3.8063   51.7570   26.4033 C   0  0  0  0  0  0
   -2.7146   51.5039   25.5490 C   0  0  0  0  0  0
   -2.5808   52.2894   24.3912 C   0  0  0  0  0  0
   -1.6805   50.4126   25.9019 C   0  0  2  0  0  0
   -2.2305   49.5952   26.3712 H   0  0  0  0  0  0
   -0.6292   50.9420   26.9050 C   0  0  0  0  0  0
    0.2952   52.0338   26.3025 C   0  0  2  0  0  0
   -0.3420   52.8965   26.1185 H   0  0  0  0  0  0
    0.7028   51.5418   24.9704 N   0  0  0  0  0  0
    0.1307   50.5036   24.2639 C   0  0  0  0  0  0
    0.7253   50.3441   23.1116 N   0  0  0  0  0  0
    1.5999   51.3354   23.1133 C   0  0  0  0  0  0
    1.6374   52.0956   24.1853 N   0  0  0  0  0  0
    2.4128   51.5696   22.0492 N   0  0  0  0  0  0
   -0.9583   49.8110   24.7664 N   0  0  0  0  0  0
    1.4201   52.5574   27.2189 C   0  0  0  0  0  0
    1.6910   51.9817   28.4699 C   0  0  0  0  0  0
    2.6654   52.5304   29.3004 C   0  0  0  0  0  0
    3.3763   53.6519   28.8856 C   0  0  0  0  0  0
    3.1304   54.2253   27.6433 C   0  0  0  0  0  0
    2.1517   53.6825   26.8171 C   0  0  0  0  0  0
    4.3033   54.1973   29.7018 F   0  0  0  0  0  0
   -4.0445   50.8699   27.8708 Cl  0  0  0  0  0  0
   -3.3595   53.9043   23.2177 H   0  0  0  0  0  0
   -5.2901   54.3021   24.7034 H   0  0  0  0  0  0
   -5.5684   52.9405   26.7465 H   0  0  0  0  0  0
   -1.7607   52.1459   23.7066 H   0  0  0  0  0  0
   -1.1168   51.3195   27.8050 H   0  0  0  0  0  0
   -0.0378   50.0948   27.2558 H   0  0  0  0  0  0
    2.3780   50.9901   21.2238 H   0  0  0  0  0  0
    3.0281   52.3688   22.0260 H   0  0  0  0  0  0
   -1.5009   49.1885   24.1874 H   0  0  0  0  0  0
    1.1448   51.1226   28.8276 H   0  0  0  0  0  0
    2.8609   52.0988   30.2694 H   0  0  0  0  0  0
    3.6922   55.0911   27.3275 H   0  0  0  0  0  0
    1.9577   54.1360   25.8572 H   0  0  0  0  0  0
  1  6  2  0  0  0
  1  2  1  0  0  0
  1 27  1  0  0  0
  2  3  2  0  0  0
  2 28  1  0  0  0
  3  4  1  0  0  0
  3 29  1  0  0  0
  4  5  2  0  0  0
  4 26  1  0  0  0
  5  6  1  0  0  0
  5  7  1  0  0  0
  6 30  1  0  0  0
  7  8  1  0  0  0
  7 18  1  0  0  0
  7  9  1  0  0  0
  9 10  1  0  0  0
  9 31  1  0  0  0
  9 32  1  0  0  0
 10 11  1  0  0  0
 10 12  1  0  0  0
 10 19  1  0  0  0
 12 16  1  0  0  0
 12 13  1  0  0  0
 13 14  2  0  0  0
 13 18  1  0  0  0
 14 15  1  0  0  0
 15 16  2  0  0  0
 15 17  1  0  0  0
 17 33  1  0  0  0
 17 34  1  0  0  0
 18 35  1  0  0  0
 19 24  2  0  0  0
 19 20  1  0  0  0
 20 21  2  0  0  0
 20 36  1  0  0  0
 21 22  1  0  0  0
 21 37  1  0  0  0
 22 23  2  0  0  0
 22 25  1  0  0  0
 23 24  1  0  0  0
 23 38  1  0  0  0
 24 39  1  0  0  0
M  END
> <i_i_glide_confnum>
4

> <i_i_glide_lignum>
3593

> <i_i_glide_posenum>
87

> <i_i_glide_rotatable_bonds>
2

> <i_m_Source_File_Index>
5040

> <b_m_subgroup_collapsed>
0

> <r_i_docking_score>
-4.05671

> <r_i_glide_ecoul>
1.0257

> <r_i_glide_eff_state_penalty>
0

> <r_i_glide_einternal>
6.16629

> <r_i_glide_emodel>
-33.7224

> <r_i_glide_energy>
-28.9989

> <r_i_glide_erotb>
0.32117

> <r_i_glide_esite>
-0.0270907

> <r_i_glide_evdw>
-30.0246

> <r_i_glide_gscore>
-4.05671

> <r_i_glide_hbond>
0

> <r_i_glide_ligand_efficiency>
-0.16903

> <r_i_glide_ligand_efficiency_ln>
-0.970956

> <r_i_glide_ligand_efficiency_sa>
-0.487566

> <r_i_glide_lipo>
-1.61859

> <r_i_glide_metal>
0

> <r_i_glide_rewards>
-1.38482

> <s_i_glide_gridfile>
wee1_glide-grid

> <s_m_Source_File>
wee1_decoys_glide_SP.sdf

> <s_m_Source_Path>
/Users/zhangxujun/Desktop

> <s_m_entry_id>
5315

> <s_m_entry_name>
wee1_decoys_glide_SP.5040

> <s_m_subgroup_title>
wee1_decoys_glide_SP

> <s_m_subgroupid>
wee1_decoys_glide_SP


$$$$
