@<TRIPOS>MOLECULE
ZINC01933709_5213
68   72    1
SMALL
USER_CHARGES


@<TRIPOS>ATOM
      1 C1          8.0761   55.9629   16.8241 C.3       1 UNK         0.0000 
      2 C2          7.4179   55.2037   17.9891 C.3       1 UNK         0.0000 
      3 H3          7.9195   54.2355   18.0542 H         1 UNK         0.0000 
      4 C4          5.9075   55.0134   17.7384 C.3       1 UNK         0.0000 
      5 C5          5.2673   54.0554   18.7680 C.3       1 UNK         0.0000 
      6 C6          5.7230   54.4226   20.1871 C.2       1 UNK         0.0000 
      7 C7          6.8033   55.2967   20.4030 C.2       1 UNK         0.0000 
      8 S8          7.1044   55.5488   22.0806 S.3       1 UNK         0.0000 
      9 C9          5.7769   54.5098   22.5348 C.2       1 UNK         0.0000 
     10 C10         5.1039   54.0071   21.3988 C.2       1 UNK         0.0000 
     11 C11         3.9858   53.0873   21.4372 C.2       1 UNK         0.0000 
     12 O12         3.9428   52.1136   20.6867 O.2       1 UNK         0.0000 
     13 N13         3.0479   53.4164   22.3525 N.am      1 UNK         0.0000 
     14 C14         1.8581   52.7559   22.7034 C.ar      1 UNK         0.0000 
     15 C15         1.0786   53.3953   23.6669 C.ar      1 UNK         0.0000 
     16 C16        -0.1030   52.8130   24.1049 C.ar      1 UNK         0.0000 
     17 C17        -0.5425   51.5948   23.5844 C.ar      1 UNK         0.0000 
     18 C18         0.2380   50.9607   22.6094 C.ar      1 UNK         0.0000 
     19 C19         1.4294   51.5341   22.1685 C.ar      1 UNK         0.0000 
     20 N20        -1.7133   51.0305   24.0815 N.pl3     1 UNK         0.0000 
     21 C21        -2.9291   51.8204   24.3391 C.3       1 UNK         0.0000 
     22 C22        -3.5560   51.4249   25.6929 C.3       1 UNK         0.0000 
     23 C23        -3.9242   49.9304   25.7247 C.3       1 UNK         0.0000 
     24 C24        -2.6764   49.1141   25.3358 C.3       1 UNK         0.0000 
     25 C25        -2.0401   49.5929   24.0095 C.3       1 UNK         0.0000 
     26 C26        -4.5090   49.5029   27.0836 C.3       1 UNK         0.0000 
     27 N27         5.4297   54.2751   23.8698 N.am      1 UNK         0.0000 
     28 C28         5.9282   54.8158   25.0081 C.2       1 UNK         0.0000 
     29 O29         6.9059   55.5614   25.0697 O.2       1 UNK         0.0000 
     30 C30         5.1874   54.4385   26.2749 C.ar      1 UNK         0.0000 
     31 C31         3.8612   53.9721   26.2424 C.ar      1 UNK         0.0000 
     32 C32         3.1764   53.6833   27.4174 C.ar      1 UNK         0.0000 
     33 C33         3.8068   53.8701   28.6413 C.ar      1 UNK         0.0000 
     34 C34         5.1160   54.3369   28.6976 C.ar      1 UNK         0.0000 
     35 C35         5.8074   54.6092   27.5209 C.ar      1 UNK         0.0000 
     36 C36         7.6352   55.9666   19.3175 C.3       1 UNK         0.0000 
     37 H37         7.6318   56.9508   16.6839 H         1 UNK         0.0000 
     38 H38         9.1459   56.1017   16.9941 H         1 UNK         0.0000 
     39 H39         7.9660   55.4172   15.8849 H         1 UNK         0.0000 
     40 H40         5.3988   55.9799   17.7080 H         1 UNK         0.0000 
     41 H41         5.7543   54.5957   16.7409 H         1 UNK         0.0000 
     42 H42         5.5513   53.0232   18.5447 H         1 UNK         0.0000 
     43 H43         4.1824   54.0961   18.6736 H         1 UNK         0.0000 
     44 H44         3.1957   54.2960   22.8258 H         1 UNK         0.0000 
     45 H45         1.3812   54.3427   24.0903 H         1 UNK         0.0000 
     46 H46        -0.6721   53.2968   24.8813 H         1 UNK         0.0000 
     47 H47        -0.0707   50.0201   22.1824 H         1 UNK         0.0000 
     48 H48         1.9955   51.0012   21.4211 H         1 UNK         0.0000 
     49 H49        -2.7273   52.8920   24.3397 H         1 UNK         0.0000 
     50 H50        -3.6393   51.6504   23.5261 H         1 UNK         0.0000 
     51 H51        -2.8578   51.6637   26.4978 H         1 UNK         0.0000 
     52 H52        -4.4376   52.0317   25.9058 H         1 UNK         0.0000 
     53 H53        -4.6710   49.7663   24.9451 H         1 UNK         0.0000 
     54 H54        -2.9283   48.0535   25.2859 H         1 UNK         0.0000 
     55 H55        -1.9184   49.1657   26.1207 H         1 UNK         0.0000 
     56 H56        -2.7010   49.4033   23.1601 H         1 UNK         0.0000 
     57 H57        -1.1334   49.0068   23.8549 H         1 UNK         0.0000 
     58 H58        -3.7946   49.6776   27.8920 H         1 UNK         0.0000 
     59 H59        -5.4159   50.0582   27.3193 H         1 UNK         0.0000 
     60 H60        -4.7603   48.4431   27.0924 H         1 UNK         0.0000 
     61 H61         4.6974   53.5944   24.0000 H         1 UNK         0.0000 
     62 H62         3.3347   53.8299   25.3128 H         1 UNK         0.0000 
     63 H63         2.1595   53.3241   27.3789 H         1 UNK         0.0000 
     64 H64         3.2758   53.6512   29.5543 H         1 UNK         0.0000 
     65 H65         5.5929   54.4982   29.6500 H         1 UNK         0.0000 
     66 H66         6.8194   54.9827   27.5951 H         1 UNK         0.0000 
     67 H67         7.3229   57.0059   19.2105 H         1 UNK         0.0000 
     68 H68         8.6958   55.9714   19.5818 H         1 UNK         0.0000 
@<TRIPOS>BOND
     1    1    2 1    
     2    1   37 1    
     3    1   38 1    
     4    1   39 1    
     5    2    3 1    
     6    2   36 1    
     7    2    4 1    
     8    4    5 1    
     9    4   40 1    
    10    4   41 1    
    11    5    6 1    
    12    5   42 1    
    13    5   43 1    
    14    6   10 1    
    15    6    7 2    
    16    7    8 1    
    17    7   36 1    
    18    8    9 1    
    19    9   10 2    
    20    9   27 am   BACKBONE|DICT|INTERRES
    21   10   11 1    
    22   11   12 2    
    23   11   13 am   BACKBONE|DICT|INTERRES
    24   13   14 1    
    25   13   44 1    
    26   14   19 ar   
    27   14   15 ar   
    28   15   16 ar   
    29   15   45 1    
    30   16   17 ar   
    31   16   46 1    
    32   17   18 ar   
    33   17   20 1    
    34   18   19 ar   
    35   18   47 1    
    36   19   48 1    
    37   20   25 1    
    38   20   21 1    
    39   21   22 1    
    40   21   49 1    
    41   21   50 1    
    42   22   23 1    
    43   22   51 1    
    44   22   52 1    
    45   23   24 1    
    46   23   26 1    
    47   23   53 1    
    48   24   25 1    
    49   24   54 1    
    50   24   55 1    
    51   25   56 1    
    52   25   57 1    
    53   26   58 1    
    54   26   59 1    
    55   26   60 1    
    56   27   28 am   BACKBONE|DICT|INTERRES
    57   27   61 1    
    58   28   29 2    
    59   28   30 1    
    60   30   35 ar   
    61   30   31 ar   
    62   31   32 ar   
    63   31   62 1    
    64   32   33 ar   
    65   32   63 1    
    66   33   34 ar   
    67   33   64 1    
    68   34   35 ar   
    69   34   65 1    
    70   35   66 1    
    71   36   67 1    
    72   36   68 1    
@<TRIPOS>SUBSTRUCTURE
     1 UNK         1 GROUP             0       ****    0 ROOT    
