ZINC37378007_5603
                    3D
 Schrodinger Suite 2024-2.
 75 79  0  0  1  0            999 V2000
   -3.7972   53.4304   24.0823 C   0  0  0  0  0  0
   -2.6429   52.5637   23.5584 C   0  0  0  0  0  0
   -1.2730   53.0938   24.0148 C   0  0  0  0  0  0
   -0.0358   52.3154   23.4953 C   0  0  2  0  0  0
   -0.0649   52.3768   22.4053 H   0  0  0  0  0  0
   -0.0593   50.8167   23.8651 C   0  0  0  0  0  0
    1.2767   52.9570   23.9582 C   0  0  0  0  0  0
    1.3920   53.2280   25.2772 N   0  0  0  0  0  0
    2.5813   53.7200   25.6225 C   0  0  0  0  0  0
    3.6735   53.9846   24.7419 C   0  0  0  0  0  0
    4.7119   54.4277   25.6573 C   0  0  0  0  0  0
    4.2466   54.4971   26.8846 N   0  0  0  0  0  0
    2.9638   54.0959   26.8968 N   0  0  0  0  0  0
    2.2246   54.0637   28.1053 C   0  0  0  0  0  0
    1.4754   52.9273   28.4390 C   0  0  0  0  0  0
    0.7000   52.9216   29.5970 C   0  0  0  0  0  0
    0.6625   54.0520   30.4114 C   0  0  0  0  0  0
    1.3930   55.1896   30.0805 C   0  0  0  0  0  0
    2.1716   55.1972   28.9268 C   0  0  0  0  0  0
   -0.0950   54.0525   31.5299 F   0  0  0  0  0  0
    6.1789   54.7681   25.4783 C   0  0  0  0  0  0
    3.4221   53.6968   23.3569 C   0  0  0  0  0  0
    2.2140   53.1653   23.0088 N   0  0  0  0  0  0
    4.2891   53.9196   22.2690 N   0  0  0  0  0  0
    4.0794   53.2656   20.9538 C   0  0  0  0  0  0
    4.5171   54.0461   19.7013 C   0  0  0  0  0  0
    5.9036   54.4959   19.8877 N   0  0  0  0  0  0
    6.1259   55.3030   21.0938 C   0  0  0  0  0  0
    5.6105   54.5522   22.3494 C   0  0  0  0  0  0
    6.8247   54.5045   18.8821 C   0  0  0  0  0  0
    7.8247   55.2260   18.9035 O   0  0  0  0  0  0
    6.6290   53.5951   17.9044 N   0  0  0  0  0  0
    7.5421   53.3039   16.7957 C   0  0  0  0  0  0
    8.8397   52.5582   17.2032 C   0  0  0  0  0  0
    9.7613   52.2201   16.0164 C   0  0  0  0  0  0
    9.0131   51.4805   14.8964 C   0  0  0  0  0  0
    7.7797   52.2742   14.4326 C   0  0  0  0  0  0
    6.8335   52.6243   15.5988 C   0  0  0  0  0  0
   -4.7627   53.0069   23.8055 H   0  0  0  0  0  0
   -3.7746   53.5021   25.1704 H   0  0  0  0  0  0
   -3.7477   54.4437   23.6814 H   0  0  0  0  0  0
   -2.6841   52.5172   22.4694 H   0  0  0  0  0  0
   -2.7842   51.5442   23.9170 H   0  0  0  0  0  0
   -1.2638   53.1163   25.1059 H   0  0  0  0  0  0
   -1.1847   54.1285   23.6825 H   0  0  0  0  0  0
    0.8482   50.3105   23.5324 H   0  0  0  0  0  0
   -0.1386   50.6717   24.9435 H   0  0  0  0  0  0
   -0.8984   50.3005   23.4001 H   0  0  0  0  0  0
    1.4905   52.0486   27.8080 H   0  0  0  0  0  0
    0.1192   52.0501   29.8645 H   0  0  0  0  0  0
    1.3435   56.0664   30.7102 H   0  0  0  0  0  0
    2.7049   56.0960   28.6711 H   0  0  0  0  0  0
    6.6909   54.0479   24.8406 H   0  0  0  0  0  0
    6.3272   55.7670   25.0687 H   0  0  0  0  0  0
    6.7216   54.7521   26.4243 H   0  0  0  0  0  0
    4.6798   52.3553   20.9972 H   0  0  0  0  0  0
    3.0520   52.9393   20.7964 H   0  0  0  0  0  0
    4.3698   53.4187   18.8219 H   0  0  0  0  0  0
    3.8632   54.9119   19.5958 H   0  0  0  0  0  0
    5.5367   56.2143   20.9883 H   0  0  0  0  0  0
    7.1698   55.5909   21.2351 H   0  0  0  0  0  0
    5.6073   55.2707   23.1559 H   0  0  0  0  0  0
    6.3085   53.7426   22.5679 H   0  0  0  0  0  0
    5.8681   52.9401   18.0164 H   0  0  0  0  0  0
    7.8680   54.2715   16.4054 H   0  0  0  0  0  0
    9.3999   53.1396   17.9377 H   0  0  0  0  0  0
    8.5661   51.6164   17.6818 H   0  0  0  0  0  0
   10.1923   53.1408   15.6206 H   0  0  0  0  0  0
   10.6030   51.6178   16.3633 H   0  0  0  0  0  0
    9.6808   51.3048   14.0528 H   0  0  0  0  0  0
    8.7068   50.4960   15.2507 H   0  0  0  0  0  0
    8.1028   53.1943   13.9448 H   0  0  0  0  0  0
    7.2388   51.7052   13.6752 H   0  0  0  0  0  0
    6.3721   51.6981   15.9416 H   0  0  0  0  0  0
    6.0252   53.2562   15.2295 H   0  0  0  0  0  0
  1  2  1  0  0  0
  1 39  1  0  0  0
  1 40  1  0  0  0
  1 41  1  0  0  0
  2  3  1  0  0  0
  2 42  1  0  0  0
  2 43  1  0  0  0
  3  4  1  0  0  0
  3 44  1  0  0  0
  3 45  1  0  0  0
  4  5  1  0  0  0
  4  6  1  0  0  0
  4  7  1  0  0  0
  6 46  1  0  0  0
  6 47  1  0  0  0
  6 48  1  0  0  0
  7 23  2  0  0  0
  7  8  1  0  0  0
  8  9  2  0  0  0
  9 13  1  0  0  0
  9 10  1  0  0  0
 10 11  1  0  0  0
 10 22  2  0  0  0
 11 12  2  0  0  0
 11 21  1  0  0  0
 12 13  1  0  0  0
 13 14  1  0  0  0
 14 19  2  0  0  0
 14 15  1  0  0  0
 15 16  2  0  0  0
 15 49  1  0  0  0
 16 17  1  0  0  0
 16 50  1  0  0  0
 17 18  2  0  0  0
 17 20  1  0  0  0
 18 19  1  0  0  0
 18 51  1  0  0  0
 19 52  1  0  0  0
 21 53  1  0  0  0
 21 54  1  0  0  0
 21 55  1  0  0  0
 22 23  1  0  0  0
 22 24  1  0  0  0
 24 29  1  0  0  0
 24 25  1  0  0  0
 25 26  1  0  0  0
 25 56  1  0  0  0
 25 57  1  0  0  0
 26 27  1  0  0  0
 26 58  1  0  0  0
 26 59  1  0  0  0
 27 28  1  0  0  0
 27 30  1  0  0  0
 28 29  1  0  0  0
 28 60  1  0  0  0
 28 61  1  0  0  0
 29 62  1  0  0  0
 29 63  1  0  0  0
 30 31  2  0  0  0
 30 32  1  0  0  0
 32 33  1  0  0  0
 32 64  1  0  0  0
 33 38  1  0  0  0
 33 34  1  0  0  0
 33 65  1  0  0  0
 34 35  1  0  0  0
 34 66  1  0  0  0
 34 67  1  0  0  0
 35 36  1  0  0  0
 35 68  1  0  0  0
 35 69  1  0  0  0
 36 37  1  0  0  0
 36 70  1  0  0  0
 36 71  1  0  0  0
 37 38  1  0  0  0
 37 72  1  0  0  0
 37 73  1  0  0  0
 38 74  1  0  0  0
 38 75  1  0  0  0
M  END
> <i_i_glide_confnum>
635

> <i_i_glide_lignum>
5604

> <i_i_glide_posenum>
24

> <i_i_glide_rotatable_bonds>
8

> <i_m_Source_File_Index>
2098

> <b_m_subgroup_collapsed>
0

> <r_i_docking_score>
-6.73889

> <r_i_glide_ecoul>
0.242096

> <r_i_glide_eff_state_penalty>
0

> <r_i_glide_einternal>
1.83201

> <r_i_glide_emodel>
-69.4338

> <r_i_glide_energy>
-50.2436

> <r_i_glide_erotb>
0.555971

> <r_i_glide_esite>
-0.0641244

> <r_i_glide_evdw>
-50.4856

> <r_i_glide_gscore>
-6.73889

> <r_i_glide_hbond>
0

> <r_i_glide_ligand_efficiency>
-0.182132

> <r_i_glide_ligand_efficiency_ln>
-1.46151

> <r_i_glide_ligand_efficiency_sa>
-0.606904

> <r_i_glide_lipo>
-3.51512

> <r_i_glide_metal>
0

> <r_i_glide_rewards>
-1.22764

> <s_i_glide_gridfile>
wee1_glide-grid

> <s_m_Source_File>
wee1_decoys_glide_SP.sdf

> <s_m_Source_Path>
/Users/zhangxujun/Desktop

> <s_m_entry_id>
2373

> <s_m_entry_name>
wee1_decoys_glide_SP.2098

> <s_m_subgroup_title>
wee1_decoys_glide_SP

> <s_m_subgroupid>
wee1_decoys_glide_SP


$$$$
