@<TRIPOS>MOLECULE
ZINC39980223_4094
47   50    1
SMALL
USER_CHARGES


@<TRIPOS>ATOM
      1 C1          7.2352   55.9924   17.9001 C.2       1 UNK         0.0000 
      2 C2          8.2105   56.2377   18.9651 C.2       1 UNK         0.0000 
      3 C3          7.9123   55.9038   20.2432 C.2       1 UNK         0.0000 
      4 C4          6.6540   55.2967   20.6172 C.2       1 UNK         0.0000 
      5 N5          6.3672   54.9797   21.8289 N.2       1 UNK         0.0000 
      6 C6          5.1759   54.3459   22.2088 C.2       1 UNK         0.0000 
      7 N7          4.8378   54.0967   23.4139 N.2       1 UNK         0.0000 
      8 S8          5.9541   54.5772   24.6918 S.o2      1 UNK         0.0000 
      9 O9          7.1044   53.6967   24.8820 O.2       1 UNK         0.0000 
     10 O10         6.1943   56.0094   24.8971 O.2       1 UNK         0.0000 
     11 C11         4.9263   54.1805   26.1182 C.ar      1 UNK         0.0000 
     12 C12         3.5423   54.3824   26.0968 C.ar      1 UNK         0.0000 
     13 C13         2.7777   54.0807   27.2225 C.ar      1 UNK         0.0000 
     14 C14         3.3967   53.5842   28.3681 C.ar      1 UNK         0.0000 
     15 C15         4.7744   53.3911   28.3982 C.ar      1 UNK         0.0000 
     16 C16         5.5401   53.6967   27.2790 C.ar      1 UNK         0.0000 
     17 Br17        2.3579   53.1683   29.9081 Br        1 UNK         0.0000 
     18 C18         4.1676   53.9333   21.0807 C.3       1 UNK         0.0000 
     19 H19         3.2508   54.4839   21.2818 H         1 UNK         0.0000 
     20 N20         4.5592   54.4196   19.7135 N.pl3     1 UNK         0.0000 
     21 C21         5.7038   55.0325   19.4453 C.2       1 UNK         0.0000 
     22 C22         6.0297   55.4101   18.1412 C.2       1 UNK         0.0000 
     23 N23         3.8528   52.5004   21.0652 N.pl3     1 UNK         0.0000 
     24 C24         2.8559   51.8868   21.8439 C.ar      1 UNK         0.0000 
     25 C25         2.7041   50.5087   21.7023 C.ar      1 UNK         0.0000 
     26 C26         1.7873   49.8138   22.4840 C.ar      1 UNK         0.0000 
     27 C27         0.9904   50.4981   23.4095 C.ar      1 UNK         0.0000 
     28 C28         1.1108   51.8882   23.5215 C.ar      1 UNK         0.0000 
     29 C29         2.0426   52.5782   22.7499 C.ar      1 UNK         0.0000 
     30 C30        -0.0415   49.7683   24.2276 C.2       1 UNK         0.0000 
     31 O31        -1.1015   50.2983   24.5543 O.2       1 UNK         0.0000 
     32 O32         0.3044   48.4969   24.5783 O.3       1 UNK         0.0000 
     33 H33         7.4838   56.2826   16.8881 H         1 UNK         0.0000 
     34 H34         9.1731   56.6729   18.7295 H         1 UNK         0.0000 
     35 H35         8.6595   56.0872   21.0051 H         1 UNK         0.0000 
     36 H36         3.0577   54.7761   25.2161 H         1 UNK         0.0000 
     37 H37         1.7084   54.2315   27.2091 H         1 UNK         0.0000 
     38 H38         5.2519   53.0001   29.2819 H         1 UNK         0.0000 
     39 H39         6.6096   53.5452   27.3182 H         1 UNK         0.0000 
     40 H40         5.3313   55.2362   17.3332 H         1 UNK         0.0000 
     41 H41         4.3131   51.9267   20.3690 H         1 UNK         0.0000 
     42 H42         3.3104   49.9625   20.9943 H         1 UNK         0.0000 
     43 H43         1.7020   48.7458   22.3469 H         1 UNK         0.0000 
     44 H44         0.4902   52.4416   24.2136 H         1 UNK         0.0000 
     45 H45         2.1225   53.6456   22.8774 H         1 UNK         0.0000 
     46 H46         1.2479   48.3289   24.4772 H         1 UNK         0.0000 
     47 H47         3.9173   54.2284   18.9490 H         1 UNK         0.0000 
@<TRIPOS>BOND
     1    1   22 2    
     2    1    2 1    
     3    1   33 1    
     4    2    3 2    
     5    2   34 1    
     6    3    4 1    
     7    3   35 1    
     8    4   21 1    
     9    4    5 2    
    10    5    6 1    
    11    6    7 2    
    12    6   18 1    
    13    7    8 1    
    14    8    9 2    
    15    8   10 2    
    16    8   11 1    
    17   11   16 ar   
    18   11   12 ar   
    19   12   13 ar   
    20   12   36 1    
    21   13   14 ar   
    22   13   37 1    
    23   14   15 ar   
    24   14   17 1    
    25   15   16 ar   
    26   15   38 1    
    27   16   39 1    
    28   18   19 1    
    29   18   20 1    
    30   18   23 1    
    31   20   21 2    
    32   20   47 1    
    33   21   22 1    
    34   22   40 1    
    35   23   24 1    
    36   23   41 1    
    37   24   29 ar   
    38   24   25 ar   
    39   25   26 ar   
    40   25   42 1    
    41   26   27 ar   
    42   26   43 1    
    43   27   28 ar   
    44   27   30 1    
    45   28   29 ar   
    46   28   44 1    
    47   29   45 1    
    48   30   31 2    
    49   30   32 1    
    50   32   46 1    
@<TRIPOS>SUBSTRUCTURE
     1 UNK         1 GROUP             0       ****    0 ROOT    
