@<TRIPOS>MOLECULE
ZINC12487749_3156
57   60    1
SMALL
USER_CHARGES


@<TRIPOS>ATOM
      1 C1          2.2597   50.1762   22.0810 C.ar      1 UNK         0.0000 
      2 C2          2.3240   51.4757   21.5866 C.ar      1 UNK         0.0000 
      3 C3          1.6601   52.5025   22.2537 C.ar      1 UNK         0.0000 
      4 C4          0.9335   52.2385   23.4155 C.ar      1 UNK         0.0000 
      5 C5          0.8729   50.9295   23.9408 C.ar      1 UNK         0.0000 
      6 C6          1.5382   49.9115   23.2430 C.ar      1 UNK         0.0000 
      7 C7          0.1092   50.5279   25.2047 C.3       1 UNK         0.0000 
      8 H8          0.5690   49.5948   25.5144 H         1 UNK         0.0000 
      9 C9          0.3487   51.3936   26.4766 C.2       1 UNK         0.0000 
     10 O10         0.9235   52.4787   26.3983 O.2       1 UNK         0.0000 
     11 N11        -0.0982   50.9046   27.6492 N.am      1 UNK         0.0000 
     12 C12        -0.1232   51.6989   28.8895 C.3       1 UNK         0.0000 
     13 C13         1.2314   51.9574   29.5495 C.2       1 UNK         0.0000 
     14 C14         1.6103   52.2375   30.8582 C.2       1 UNK         0.0000 
     15 C15         3.0058   52.3174   30.8817 C.2       1 UNK         0.0000 
     16 C16         3.4239   52.1183   29.5800 C.2       1 UNK         0.0000 
     17 O17         2.3534   51.8837   28.7801 O.3       1 UNK         0.0000 
     18 N18        -1.3298   50.3200   24.8474 N.am      1 UNK         0.0000 
     19 C19        -2.2349   51.4069   24.8702 C.ar      1 UNK         0.0000 
     20 C20        -2.9646   51.6614   26.0404 C.ar      1 UNK         0.0000 
     21 C21        -3.8730   52.7177   26.0844 C.ar      1 UNK         0.0000 
     22 C22        -4.0408   53.5432   24.9759 C.ar      1 UNK         0.0000 
     23 C23        -3.3054   53.2972   23.8175 C.ar      1 UNK         0.0000 
     24 C24        -2.4374   52.2142   23.7416 C.ar      1 UNK         0.0000 
     25 F25        -1.8177   51.9544   22.5666 F         1 UNK         0.0000 
     26 C26        -1.8607   49.1013   24.5157 C.2       1 UNK         0.0000 
     27 O27        -2.8367   48.9983   23.7636 O.2       1 UNK         0.0000 
     28 C28        -1.2942   47.7854   25.0914 C.3       1 UNK         0.0000 
     29 N29        -2.2651   47.3158   26.0817 N.am      1 UNK         0.0000 
     30 C30        -3.3034   46.4967   25.8410 C.2       1 UNK         0.0000 
     31 O31        -3.4903   45.9443   24.7548 O.2       1 UNK         0.0000 
     32 C32        -4.2281   46.3299   26.9378 C.2       1 UNK         0.0000 
     33 C33        -4.3619   47.0822   28.1115 C.2       1 UNK         0.0000 
     34 C34        -5.4723   46.7207   28.8791 C.2       1 UNK         0.0000 
     35 C35        -6.2093   45.6972   28.3024 C.2       1 UNK         0.0000 
     36 S36        -5.5076   45.1497   26.8145 S.3       1 UNK         0.0000 
     37 F37         0.2741   53.2691   23.9928 F         1 UNK         0.0000 
     38 H38         2.7666   49.3749   21.5643 H         1 UNK         0.0000 
     39 H39         2.8782   51.6867   20.6830 H         1 UNK         0.0000 
     40 H40         1.6990   53.5105   21.8649 H         1 UNK         0.0000 
     41 H41         1.5045   48.8969   23.6079 H         1 UNK         0.0000 
     42 H42        -0.5614   49.9995   27.6812 H         1 UNK         0.0000 
     43 H43        -0.8077   51.2210   29.5912 H         1 UNK         0.0000 
     44 H44        -0.5849   52.6618   28.6626 H         1 UNK         0.0000 
     45 H45         0.9431   52.3389   31.7057 H         1 UNK         0.0000 
     46 H46         3.6329   52.4967   31.7444 H         1 UNK         0.0000 
     47 H47         4.3909   52.0942   29.0973 H         1 UNK         0.0000 
     48 H48        -2.8395   51.0312   26.9098 H         1 UNK         0.0000 
     49 H49        -4.4452   52.8963   26.9805 H         1 UNK         0.0000 
     50 H50        -4.7349   54.3689   25.0125 H         1 UNK         0.0000 
     51 H51        -3.4325   53.9338   22.9594 H         1 UNK         0.0000 
     52 H52        -1.1728   47.0611   24.2854 H         1 UNK         0.0000 
     53 H53        -0.3302   47.8701   25.5772 H         1 UNK         0.0000 
     54 H54        -2.0968   47.6543   27.0368 H         1 UNK         0.0000 
     55 H55        -3.6961   47.8839   28.3994 H         1 UNK         0.0000 
     56 H56        -5.7374   47.2064   29.8070 H         1 UNK         0.0000 
     57 H57        -7.1244   45.2500   28.6641 H         1 UNK         0.0000 
@<TRIPOS>BOND
     1    1    6 ar   
     2    1    2 ar   
     3    1   38 1    
     4    2    3 ar   
     5    2   39 1    
     6    3    4 ar   
     7    3   40 1    
     8    4    5 ar   
     9    4   37 1    
    10    5    6 ar   
    11    5    7 1    
    12    6   41 1    
    13    7    8 1    
    14    7    9 1    
    15    7   18 1    
    16    9   10 2    
    17    9   11 am   BACKBONE|DICT|INTERRES
    18   11   12 1    
    19   11   42 1    
    20   12   13 1    
    21   12   43 1    
    22   12   44 1    
    23   13   17 1    
    24   13   14 2    
    25   14   15 1    
    26   14   45 1    
    27   15   16 2    
    28   15   46 1    
    29   16   17 1    
    30   16   47 1    
    31   18   19 1    
    32   18   26 am   BACKBONE|DICT|INTERRES
    33   19   24 ar   
    34   19   20 ar   
    35   20   21 ar   
    36   20   48 1    
    37   21   22 ar   
    38   21   49 1    
    39   22   23 ar   
    40   22   50 1    
    41   23   24 ar   
    42   23   51 1    
    43   24   25 1    
    44   26   27 2    
    45   26   28 1    
    46   28   29 1    
    47   28   52 1    
    48   28   53 1    
    49   29   30 am   BACKBONE|DICT|INTERRES
    50   29   54 1    
    51   30   31 2    
    52   30   32 1    
    53   32   36 1    
    54   32   33 2    
    55   33   34 1    
    56   33   55 1    
    57   34   35 2    
    58   34   56 1    
    59   35   36 1    
    60   35   57 1    
@<TRIPOS>SUBSTRUCTURE
     1 UNK         1 GROUP             0       ****    0 ROOT    
