ZINC13131490_3598
                    3D
 Schrodinger Suite 2024-2.
 42 45  0  0  1  0            999 V2000
    1.7628   49.8213   21.5800 C   0  0  0  0  0  0
    1.7341   51.1710   22.2750 C   0  0  0  0  0  0
    0.6647   51.5165   23.1043 C   0  0  0  0  0  0
    0.6490   52.7531   23.7476 C   0  0  0  0  0  0
    1.7048   53.6453   23.5678 C   0  0  0  0  0  0
    2.7872   53.3162   22.7418 C   0  0  0  0  0  0
    2.7807   52.0768   22.0824 C   0  0  0  0  0  0
    3.9447   54.3186   22.6032 C   0  0  2  0  0  0
    3.4729   55.2967   22.5281 H   0  0  0  0  0  0
    4.8037   54.2069   21.3173 C   0  0  0  0  0  0
    6.0466   55.1413   21.2938 C   0  0  1  0  0  0
    5.6840   56.1703   21.2814 H   0  0  0  0  0  0
    6.8484   54.9518   22.5179 N   0  0  0  0  0  0
    6.2020   54.7076   23.7100 C   0  0  0  0  0  0
    4.8636   54.3932   23.7485 N   0  0  0  0  0  0
    4.5137   54.2646   25.0363 N   0  0  0  0  0  0
    5.6484   54.4908   25.6645 C   0  0  0  0  0  0
    6.7043   54.7548   24.9155 N   0  0  0  0  0  0
    5.7318   54.4621   27.0219 N   0  0  0  0  0  0
    6.8776   55.0976   19.9992 C   0  0  0  0  0  0
    8.1432   55.6999   19.9810 C   0  0  0  0  0  0
    8.9279   55.6673   18.8349 C   0  0  0  0  0  0
    8.4566   55.0320   17.6909 C   0  0  0  0  0  0
    7.1965   54.4413   17.6837 C   0  0  0  0  0  0
    6.4065   54.4801   18.8295 C   0  0  0  0  0  0
    9.4421   54.9738   16.2762 Cl  0  0  0  0  0  0
    2.4034   49.1249   22.1238 H   0  0  0  0  0  0
    0.7634   49.3932   21.4923 H   0  0  0  0  0  0
    2.1549   49.9223   20.5666 H   0  0  0  0  0  0
   -0.1510   50.8255   23.2592 H   0  0  0  0  0  0
   -0.1757   53.0154   24.3939 H   0  0  0  0  0  0
    1.6872   54.5942   24.0838 H   0  0  0  0  0  0
    3.5950   51.7825   21.4396 H   0  0  0  0  0  0
    5.1609   53.1861   21.1840 H   0  0  0  0  0  0
    4.1475   54.4015   20.4681 H   0  0  0  0  0  0
    7.7422   55.4233   22.5380 H   0  0  0  0  0  0
    4.9349   54.2064   27.5845 H   0  0  0  0  0  0
    6.5942   54.6575   27.5077 H   0  0  0  0  0  0
    8.5426   56.1819   20.8599 H   0  0  0  0  0  0
    9.9049   56.1253   18.8464 H   0  0  0  0  0  0
    6.8326   53.9471   16.7944 H   0  0  0  0  0  0
    5.4411   54.0006   18.7849 H   0  0  0  0  0  0
  1  2  1  0  0  0
  1 27  1  0  0  0
  1 28  1  0  0  0
  1 29  1  0  0  0
  2  7  2  0  0  0
  2  3  1  0  0  0
  3  4  2  0  0  0
  3 30  1  0  0  0
  4  5  1  0  0  0
  4 31  1  0  0  0
  5  6  2  0  0  0
  5 32  1  0  0  0
  6  7  1  0  0  0
  6  8  1  0  0  0
  7 33  1  0  0  0
  8  9  1  0  0  0
  8 15  1  0  0  0
  8 10  1  0  0  0
 10 11  1  0  0  0
 10 34  1  0  0  0
 10 35  1  0  0  0
 11 12  1  0  0  0
 11 13  1  0  0  0
 11 20  1  0  0  0
 13 14  1  0  0  0
 13 36  1  0  0  0
 14 18  2  0  0  0
 14 15  1  0  0  0
 15 16  1  0  0  0
 16 17  2  0  0  0
 17 18  1  0  0  0
 17 19  1  0  0  0
 19 37  1  0  0  0
 19 38  1  0  0  0
 20 25  2  0  0  0
 20 21  1  0  0  0
 21 22  2  0  0  0
 21 39  1  0  0  0
 22 23  1  0  0  0
 22 40  1  0  0  0
 23 24  2  0  0  0
 23 26  1  0  0  0
 24 25  1  0  0  0
 24 41  1  0  0  0
 25 42  1  0  0  0
M  END
> <i_i_glide_confnum>
7

> <i_i_glide_lignum>
3599

> <i_i_glide_posenum>
324

> <i_i_glide_rotatable_bonds>
2

> <i_m_Source_File_Index>
1367

> <b_m_subgroup_collapsed>
0

> <r_i_docking_score>
-6.5241

> <r_i_glide_ecoul>
-2.68481

> <r_i_glide_eff_state_penalty>
0

> <r_i_glide_einternal>
10.458

> <r_i_glide_emodel>
-47.8912

> <r_i_glide_energy>
-38.2167

> <r_i_glide_erotb>
0.327845

> <r_i_glide_esite>
0

> <r_i_glide_evdw>
-35.5319

> <r_i_glide_gscore>
-6.5241

> <r_i_glide_hbond>
-0.0984097

> <r_i_glide_ligand_efficiency>
-0.271838

> <r_i_glide_ligand_efficiency_ln>
-1.56152

> <r_i_glide_ligand_efficiency_sa>
-0.784116

> <r_i_glide_lipo>
-1.63967

> <r_i_glide_metal>
0

> <r_i_glide_rewards>
-2.93456

> <s_i_glide_gridfile>
wee1_glide-grid

> <s_m_Source_File>
wee1_decoys_glide_SP.sdf

> <s_m_Source_Path>
/Users/zhangxujun/Desktop

> <s_m_entry_id>
1642

> <s_m_entry_name>
wee1_decoys_glide_SP.1367

> <s_m_subgroup_title>
wee1_decoys_glide_SP

> <s_m_subgroupid>
wee1_decoys_glide_SP


$$$$
