@<TRIPOS>MOLECULE
ZINC10011336_2949
58   60    1
SMALL
USER_CHARGES


@<TRIPOS>ATOM
      1 C1          2.5368   55.4122   29.4277 C.3       1 UNK         0.0000 
      2 C2          2.2862   53.9528   29.0002 C.3       1 UNK         0.0000 
      3 C3          0.8564   53.5117   29.3663 C.3       1 UNK         0.0000 
      4 C4          2.5736   53.7319   27.4997 C.3       1 UNK         0.0000 
      5 O5          3.9489   53.9964   27.2235 O.3       1 UNK         0.0000 
      6 C6          4.3792   54.1059   25.9135 C.ar      1 UNK         0.0000 
      7 C7          3.5484   53.9294   24.7959 C.ar      1 UNK         0.0000 
      8 C8          4.0437   54.0965   23.5044 C.ar      1 UNK         0.0000 
      9 C9          5.3820   54.4715   23.2856 C.ar      1 UNK         0.0000 
     10 C10         6.2167   54.6128   24.4059 C.ar      1 UNK         0.0000 
     11 C11         5.7243   54.4303   25.6993 C.ar      1 UNK         0.0000 
     12 Br12        6.9159   54.6296   27.1738 Br        1 UNK         0.0000 
     13 C13         5.9183   54.7767   21.8981 C.2       1 UNK         0.0000 
     14 O14         7.0325   55.2951   21.7768 O.2       1 UNK         0.0000 
     15 N15         5.0818   54.4965   20.8623 N.am      1 UNK         0.0000 
     16 C16         5.2541   54.5146   19.5009 C.2       1 UNK         0.0000 
     17 S17         6.7255   54.4973   18.6779 S.2       1 UNK         0.0000 
     18 N18         4.0471   54.5190   18.8567 N.pl3     1 UNK         0.0000 
     19 C19         3.7988   54.5096   17.4768 C.ar      1 UNK         0.0000 
     20 C20         3.6268   53.2705   16.8486 C.ar      1 UNK         0.0000 
     21 C21         3.3878   53.2159   15.4774 C.ar      1 UNK         0.0000 
     22 C22         3.3145   54.3918   14.7370 C.ar      1 UNK         0.0000 
     23 C23         3.4838   55.6286   15.3632 C.ar      1 UNK         0.0000 
     24 C24         3.7331   55.7111   16.7471 C.ar      1 UNK         0.0000 
     25 O25         3.9045   56.8970   17.4494 O.3       1 UNK         0.0000 
     26 C26         4.1909   58.1362   16.7855 C.3       1 UNK         0.0000 
     27 C27         5.6858   58.5090   16.8909 C.3       1 UNK         0.0000 
     28 H28         5.8088   59.4949   16.4385 H         1 UNK         0.0000 
     29 C29         6.3041   58.4624   18.2891 C.3       1 UNK         0.0000 
     30 C30         7.7773   58.2318   18.0300 C.3       1 UNK         0.0000 
     31 C31         7.8256   57.6394   16.6184 C.3       1 UNK         0.0000 
     32 O32         6.4716   57.5619   16.1746 O.3       1 UNK         0.0000 
     33 H33         1.9245   56.1074   28.8508 H         1 UNK         0.0000 
     34 H34         3.5803   55.6943   29.2806 H         1 UNK         0.0000 
     35 H35         2.3037   55.5687   30.4819 H         1 UNK         0.0000 
     36 H36         2.9732   53.3165   29.5607 H         1 UNK         0.0000 
     37 H37         0.1056   54.0974   28.8336 H         1 UNK         0.0000 
     38 H38         0.6877   52.4613   29.1248 H         1 UNK         0.0000 
     39 H39         0.6679   53.6279   30.4344 H         1 UNK         0.0000 
     40 H40         2.3491   52.7020   27.2138 H         1 UNK         0.0000 
     41 H41         1.9239   54.3896   26.9201 H         1 UNK         0.0000 
     42 H42         2.5107   53.6601   24.9066 H         1 UNK         0.0000 
     43 H43         3.3502   53.9662   22.6859 H         1 UNK         0.0000 
     44 H44         7.2570   54.8834   24.2813 H         1 UNK         0.0000 
     45 H45         4.1879   54.1360   21.1530 H         1 UNK         0.0000 
     46 H46         3.2158   54.5789   19.4290 H         1 UNK         0.0000 
     47 H47         3.6978   52.3494   17.4113 H         1 UNK         0.0000 
     48 H48         3.2657   52.2581   14.9920 H         1 UNK         0.0000 
     49 H49         3.1303   54.3480   13.6717 H         1 UNK         0.0000 
     50 H50         3.4062   56.5017   14.7384 H         1 UNK         0.0000 
     51 H51         3.8658   58.2013   15.7511 H         1 UNK         0.0000 
     52 H52         3.6069   58.9099   17.2815 H         1 UNK         0.0000 
     53 H53         6.0724   59.3467   18.8815 H         1 UNK         0.0000 
     54 H54         5.8790   57.6352   18.8595 H         1 UNK         0.0000 
     55 H55         8.3234   59.1762   18.0633 H         1 UNK         0.0000 
     56 H56         8.2177   57.5635   18.7713 H         1 UNK         0.0000 
     57 H57         8.3931   58.2824   15.9444 H         1 UNK         0.0000 
     58 H58         8.2797   56.6492   16.6044 H         1 UNK         0.0000 
@<TRIPOS>BOND
     1    1    2 1    
     2    1   33 1    
     3    1   34 1    
     4    1   35 1    
     5    2    3 1    
     6    2    4 1    
     7    2   36 1    
     8    3   37 1    
     9    3   38 1    
    10    3   39 1    
    11    4    5 1    
    12    4   40 1    
    13    4   41 1    
    14    5    6 1    
    15    6   11 ar   
    16    6    7 ar   
    17    7    8 ar   
    18    7   42 1    
    19    8    9 ar   
    20    8   43 1    
    21    9   10 ar   
    22    9   13 1    
    23   10   11 ar   
    24   10   44 1    
    25   11   12 1    
    26   13   14 2    
    27   13   15 am   BACKBONE|DICT|INTERRES
    28   15   16 am   BACKBONE|DICT|INTERRES
    29   15   45 1    
    30   16   17 2    
    31   16   18 1    
    32   18   19 1    
    33   18   46 1    
    34   19   24 ar   
    35   19   20 ar   
    36   20   21 ar   
    37   20   47 1    
    38   21   22 ar   
    39   21   48 1    
    40   22   23 ar   
    41   22   49 1    
    42   23   24 ar   
    43   23   50 1    
    44   24   25 1    
    45   25   26 1    
    46   26   27 1    
    47   26   51 1    
    48   26   52 1    
    49   27   28 1    
    50   27   32 1    
    51   27   29 1    
    52   29   30 1    
    53   29   53 1    
    54   29   54 1    
    55   30   31 1    
    56   30   55 1    
    57   30   56 1    
    58   31   32 1    
    59   31   57 1    
    60   31   58 1    
@<TRIPOS>SUBSTRUCTURE
     1 UNK         1 GROUP             0       ****    0 ROOT    
