@<TRIPOS>MOLECULE
ZINC66756948_1559
47   50    1
SMALL
USER_CHARGES


@<TRIPOS>ATOM
      1 C1          2.7575   54.4030   24.6955 C.3       1 UNK         0.0000 
      2 C2          4.1545   54.2497   25.2761 C.ar      1 UNK         0.0000 
      3 C3          4.5901   54.0409   26.5992 C.ar      1 UNK         0.0000 
      4 N4          5.9106   54.0955   26.6350 N.2       1 UNK         0.0000 
      5 N5          6.3853   54.2428   25.3522 N.2       1 UNK         0.0000 
      6 N6          5.3269   54.3235   24.5295 N.pl3     1 UNK         0.0000 
      7 C7          5.5353   54.4958   23.1268 C.ar      1 UNK         0.0000 
      8 C8          4.5941   54.0485   22.1908 C.ar      1 UNK         0.0000 
      9 C9          4.7632   54.2596   20.8245 C.ar      1 UNK         0.0000 
     10 C10         5.9298   54.8903   20.3413 C.ar      1 UNK         0.0000 
     11 C11         6.9302   55.2968   21.2731 C.ar      1 UNK         0.0000 
     12 C12         6.7048   55.1163   22.6592 C.ar      1 UNK         0.0000 
     13 C13         8.1400   55.8121   20.7538 C.ar      1 UNK         0.0000 
     14 C14         8.3012   55.9455   19.3767 C.ar      1 UNK         0.0000 
     15 C15         7.2542   55.5645   18.5427 C.ar      1 UNK         0.0000 
     16 N16         6.0882   55.0425   18.9963 N.ar      1 UNK         0.0000 
     17 C17         3.7725   53.8951   27.7839 C.2       1 UNK         0.0000 
     18 O18         4.1465   54.3542   28.8649 O.2       1 UNK         0.0000 
     19 N19         2.6310   53.1968   27.5723 N.am      1 UNK         0.0000 
     20 C20         1.5704   52.8521   28.4472 C.ar      1 UNK         0.0000 
     21 C21         1.5009   53.3597   29.7590 C.ar      1 UNK         0.0000 
     22 C22         0.4832   52.9783   30.6263 C.ar      1 UNK         0.0000 
     23 C23        -0.4953   52.0966   30.1927 C.ar      1 UNK         0.0000 
     24 C24        -0.4751   51.6163   28.8898 C.ar      1 UNK         0.0000 
     25 C25         0.5495   51.9665   27.9972 C.ar      1 UNK         0.0000 
     26 C26         0.5260   51.3717   26.5988 C.2       1 UNK         0.0000 
     27 O27         0.9442   52.0161   25.6358 O.2       1 UNK         0.0000 
     28 N28         0.0855   50.1033   26.4817 N.am      1 UNK         0.0000 
     29 C29         0.1019   49.3424   25.2405 C.3       1 UNK         0.0000 
     30 H30         1.9906   54.4954   25.4579 H         1 UNK         0.0000 
     31 H31         2.6691   55.2942   24.0790 H         1 UNK         0.0000 
     32 H32         2.4452   53.5445   24.1072 H         1 UNK         0.0000 
     33 H33         3.7140   53.5101   22.4899 H         1 UNK         0.0000 
     34 H34         4.0164   53.9131   20.1222 H         1 UNK         0.0000 
     35 H35         7.4732   55.4459   23.3453 H         1 UNK         0.0000 
     36 H36         8.9352   56.0943   21.4294 H         1 UNK         0.0000 
     37 H37         9.2231   56.3345   18.9666 H         1 UNK         0.0000 
     38 H38         7.3469   55.6620   17.4706 H         1 UNK         0.0000 
     39 H39         2.4940   52.8597   26.6279 H         1 UNK         0.0000 
     40 H40         2.2272   54.0542   30.1409 H         1 UNK         0.0000 
     41 H41         0.4560   53.3542   31.6391 H         1 UNK         0.0000 
     42 H42        -1.2700   51.7750   30.8758 H         1 UNK         0.0000 
     43 H43        -1.2630   50.9343   28.5983 H         1 UNK         0.0000 
     44 H44        -0.3127   49.6245   27.2845 H         1 UNK         0.0000 
     45 H45        -0.2566   48.3284   25.4259 H         1 UNK         0.0000 
     46 H46         1.1145   49.2749   24.8385 H         1 UNK         0.0000 
     47 H47        -0.5416   49.8077   24.4925 H         1 UNK         0.0000 
@<TRIPOS>BOND
     1    1    2 1    
     2    1   30 1    
     3    1   31 1    
     4    1   32 1    
     5    2    6 ar   
     6    2    3 ar   
     7    3    4 ar   
     8    3   17 1    
     9    4    5 ar   
    10    5    6 ar   
    11    6    7 1    
    12    7   12 ar   
    13    7    8 ar   
    14    8    9 ar   
    15    8   33 1    
    16    9   10 ar   
    17    9   34 1    
    18   10   16 ar   
    19   10   11 ar   
    20   11   12 ar   
    21   11   13 ar   
    22   12   35 1    
    23   13   14 ar   
    24   13   36 1    
    25   14   15 ar   
    26   14   37 1    
    27   15   16 ar   
    28   15   38 1    
    29   17   18 2    
    30   17   19 am   BACKBONE|DICT|INTERRES
    31   19   20 1    
    32   19   39 1    
    33   20   25 ar   
    34   20   21 ar   
    35   21   22 ar   
    36   21   40 1    
    37   22   23 ar   
    38   22   41 1    
    39   23   24 ar   
    40   23   42 1    
    41   24   25 ar   
    42   24   43 1    
    43   25   26 1    
    44   26   27 2    
    45   26   28 am   BACKBONE|DICT|INTERRES
    46   28   29 1    
    47   28   44 1    
    48   29   45 1    
    49   29   46 1    
    50   29   47 1    
@<TRIPOS>SUBSTRUCTURE
     1 UNK         1 GROUP             0       ****    0 ROOT    
