ZINC35300773_4497
                    3D
 Schrodinger Suite 2024-2.
 55 57  0  0  1  0            999 V2000
    3.9380   57.7164   16.9609 C   0  0  0  0  0  0
    4.1372   56.4872   17.8641 C   0  0  0  0  0  0
    5.1651   55.4508   17.3317 C   0  0  2  0  0  0
    6.1202   55.9726   17.2380 H   0  0  0  0  0  0
    4.7694   54.9951   15.9071 C   0  0  0  0  0  0
    5.3702   54.2246   18.2976 C   0  0  2  0  0  0
    4.3972   53.7386   18.4064 H   0  0  0  0  0  0
    5.8471   54.6896   19.7021 C   0  0  0  0  0  0
    6.8643   55.3785   19.8125 O   0  0  0  0  0  0
    5.0749   54.2840   20.7327 N   0  0  0  0  0  0
    5.3374   54.4754   22.0831 C   0  0  0  0  0  0
    6.4491   54.8941   22.6462 N   0  0  0  0  0  0
    6.3693   54.8978   24.0359 N   0  0  0  0  0  0
    5.1996   54.4972   24.4901 C   0  0  0  0  0  0
    4.0751   54.0952   23.2123 S   0  0  0  0  0  0
    4.8427   54.3760   25.9456 C   0  0  0  0  0  0
    5.8392   54.4955   26.9246 C   0  0  0  0  0  0
    5.5177   54.3956   28.2751 C   0  0  0  0  0  0
    4.1987   54.1721   28.6600 C   0  0  0  0  0  0
    3.1997   54.0436   27.6983 C   0  0  0  0  0  0
    3.5217   54.1439   26.3493 C   0  0  0  0  0  0
    3.8851   54.0884   29.9714 F   0  0  0  0  0  0
    6.2439   53.1673   17.7544 N   0  0  0  0  0  0
    7.4971   53.2720   17.2820 C   0  0  0  0  0  0
    8.1552   54.3116   17.2928 O   0  0  0  0  0  0
    7.9136   52.1020   16.7570 N   0  0  0  0  0  0
    9.1643   51.8372   16.1675 C   0  0  0  0  0  0
    9.2042   50.9378   15.1021 C   0  0  0  0  0  0
   10.4149   50.6149   14.4898 C   0  0  0  0  0  0
   11.6022   51.1830   14.9553 C   0  0  0  0  0  0
   11.5859   52.0750   16.0334 C   0  0  0  0  0  0
   10.3616   52.4047   16.6290 C   0  0  0  0  0  0
   12.8917   52.6716   16.5601 C   0  0  0  0  0  0
   13.7831   52.8278   15.5795 F   0  0  0  0  0  0
   13.4090   51.8482   17.4721 F   0  0  0  0  0  0
   12.6929   53.8614   17.1305 F   0  0  0  0  0  0
    3.3574   58.4899   17.4628 H   0  0  0  0  0  0
    4.8926   58.1590   16.6738 H   0  0  0  0  0  0
    3.3924   57.4636   16.0516 H   0  0  0  0  0  0
    3.1741   55.9976   18.0147 H   0  0  0  0  0  0
    4.4452   56.8509   18.8445 H   0  0  0  0  0  0
    3.7864   54.5254   15.9036 H   0  0  0  0  0  0
    4.7476   55.8295   15.2080 H   0  0  0  0  0  0
    5.4770   54.2800   15.4910 H   0  0  0  0  0  0
    4.2302   53.7774   20.5105 H   0  0  0  0  0  0
    6.8667   54.6718   26.6448 H   0  0  0  0  0  0
    6.2904   54.4965   29.0242 H   0  0  0  0  0  0
    2.1792   53.8683   28.0035 H   0  0  0  0  0  0
    2.7276   54.0460   25.6218 H   0  0  0  0  0  0
    5.8549   52.2330   17.8251 H   0  0  0  0  0  0
    7.2318   51.3590   16.7014 H   0  0  0  0  0  0
    8.2944   50.4949   14.7245 H   0  0  0  0  0  0
   10.4412   49.9264   13.6560 H   0  0  0  0  0  0
   12.5319   50.9155   14.4721 H   0  0  0  0  0  0
   10.3433   53.0791   17.4725 H   0  0  0  0  0  0
  1  2  1  0  0  0
  1 37  1  0  0  0
  1 38  1  0  0  0
  1 39  1  0  0  0
  2  3  1  0  0  0
  2 40  1  0  0  0
  2 41  1  0  0  0
  3  4  1  0  0  0
  3  5  1  0  0  0
  3  6  1  0  0  0
  5 42  1  0  0  0
  5 43  1  0  0  0
  5 44  1  0  0  0
  6  7  1  0  0  0
  6  8  1  0  0  0
  6 23  1  0  0  0
  8  9  2  0  0  0
  8 10  1  0  0  0
 10 11  1  0  0  0
 10 45  1  0  0  0
 11 15  1  0  0  0
 11 12  2  0  0  0
 12 13  1  0  0  0
 13 14  2  0  0  0
 14 15  1  0  0  0
 14 16  1  0  0  0
 16 21  2  0  0  0
 16 17  1  0  0  0
 17 18  2  0  0  0
 17 46  1  0  0  0
 18 19  1  0  0  0
 18 47  1  0  0  0
 19 20  2  0  0  0
 19 22  1  0  0  0
 20 21  1  0  0  0
 20 48  1  0  0  0
 21 49  1  0  0  0
 23 24  1  0  0  0
 23 50  1  0  0  0
 24 25  2  0  0  0
 24 26  1  0  0  0
 26 27  1  0  0  0
 26 51  1  0  0  0
 27 32  2  0  0  0
 27 28  1  0  0  0
 28 29  2  0  0  0
 28 52  1  0  0  0
 29 30  1  0  0  0
 29 53  1  0  0  0
 30 31  2  0  0  0
 30 54  1  0  0  0
 31 32  1  0  0  0
 31 33  1  0  0  0
 32 55  1  0  0  0
 33 34  1  0  0  0
 33 35  1  0  0  0
 33 36  1  0  0  0
M  END
> <i_i_glide_confnum>
142

> <i_i_glide_lignum>
4498

> <i_i_glide_posenum>
312

> <i_i_glide_rotatable_bonds>
11

> <i_m_Source_File_Index>
1259

> <b_m_subgroup_collapsed>
0

> <r_i_docking_score>
-5.19788

> <r_i_glide_ecoul>
-4.92249

> <r_i_glide_eff_state_penalty>
0

> <r_i_glide_einternal>
8.38955

> <r_i_glide_emodel>
-60.7564

> <r_i_glide_energy>
-48.3182

> <r_i_glide_erotb>
0.747296

> <r_i_glide_esite>
-0.132625

> <r_i_glide_evdw>
-43.3957

> <r_i_glide_gscore>
-5.19788

> <r_i_glide_hbond>
-0.16

> <r_i_glide_ligand_efficiency>
-0.152879

> <r_i_glide_ligand_efficiency_ln>
-1.14836

> <r_i_glide_ligand_efficiency_sa>
-0.495268

> <r_i_glide_lipo>
-2.51551

> <r_i_glide_metal>
0

> <r_i_glide_rewards>
-0.228877

> <s_i_glide_gridfile>
wee1_glide-grid

> <s_m_Source_File>
wee1_decoys_glide_SP.sdf

> <s_m_Source_Path>
/Users/zhangxujun/Desktop

> <s_m_entry_id>
1534

> <s_m_entry_name>
wee1_decoys_glide_SP.1259

> <s_m_subgroup_title>
wee1_decoys_glide_SP

> <s_m_subgroupid>
wee1_decoys_glide_SP


$$$$
