@<TRIPOS>MOLECULE
ZINC32933121_2832
54   58    1
SMALL
USER_CHARGES


@<TRIPOS>ATOM
      1 C1          0.5388   51.0035   27.5621 C.3       1 UNK         0.0000 
      2 C2          0.6283   52.4867   27.1680 C.3       1 UNK         0.0000 
      3 H3         -0.3330   52.9493   27.3924 H         1 UNK         0.0000 
      4 C4          0.9669   52.6678   25.6761 C.3       1 UNK         0.0000 
      5 C5          2.3181   53.3178   25.6892 C.ar      1 UNK         0.0000 
      6 C6          3.1546   53.6595   24.6276 C.ar      1 UNK         0.0000 
      7 C7          4.4249   54.2155   24.8731 C.ar      1 UNK         0.0000 
      8 C8          4.7804   54.4962   26.1995 C.ar      1 UNK         0.0000 
      9 C9          3.9140   54.2085   27.2511 C.ar      1 UNK         0.0000 
     10 C10         2.6821   53.6049   26.9946 C.ar      1 UNK         0.0000 
     11 N11         1.6751   53.2213   27.8921 N.pl3     1 UNK         0.0000 
     12 S12         1.9160   53.0629   29.6526 S.o2      1 UNK         0.0000 
     13 O13         2.3979   51.7005   29.9116 O.2       1 UNK         0.0000 
     14 O14         2.7084   54.2186   30.0817 O.2       1 UNK         0.0000 
     15 C15         0.1846   53.2558   30.3637 C.3       1 UNK         0.0000 
     16 C16         5.4112   54.4965   23.7599 C.2       1 UNK         0.0000 
     17 O17         6.5339   54.9352   24.0214 O.2       1 UNK         0.0000 
     18 N18         4.9668   54.2463   22.5103 N.am      1 UNK         0.0000 
     19 C19         5.5866   54.5017   21.2799 C.ar      1 UNK         0.0000 
     20 C20         6.5927   55.4698   21.1021 C.ar      1 UNK         0.0000 
     21 C21         7.1988   55.6725   19.8592 C.ar      1 UNK         0.0000 
     22 C22         6.7878   54.8705   18.7876 C.ar      1 UNK         0.0000 
     23 C23         5.7643   53.9143   18.9840 C.ar      1 UNK         0.0000 
     24 C24         5.1248   53.7275   20.2092 C.ar      1 UNK         0.0000 
     25 N25         5.6572   53.2964   17.7664 N.pl3     1 UNK         0.0000 
     26 H26         5.1065   52.4788   17.5288 H         1 UNK         0.0000 
     27 C27         6.5777   53.8689   16.9156 C.ar      1 UNK         0.0000 
     28 N28         7.2485   54.8387   17.4980 N.2       1 UNK         0.0000 
     29 C29         6.7889   53.4158   15.5011 C.ar      1 UNK         0.0000 
     30 C30         7.6411   54.1328   14.6506 C.ar      1 UNK         0.0000 
     31 C31         7.8425   53.7123   13.3380 C.ar      1 UNK         0.0000 
     32 C32         7.2001   52.5696   12.8701 C.ar      1 UNK         0.0000 
     33 C33         6.3530   51.8469   13.7055 C.ar      1 UNK         0.0000 
     34 C34         6.1476   52.2695   15.0159 C.ar      1 UNK         0.0000 
     35 F35         7.3957   52.1611   11.5966 F         1 UNK         0.0000 
     36 H36        -0.1858   50.4681   26.9460 H         1 UNK         0.0000 
     37 H37         0.2088   50.8964   28.5955 H         1 UNK         0.0000 
     38 H38         1.5020   50.4977   27.4612 H         1 UNK         0.0000 
     39 H39         0.9867   51.7124   25.1479 H         1 UNK         0.0000 
     40 H40         0.2187   53.2968   25.1954 H         1 UNK         0.0000 
     41 H41         2.8269   53.4281   23.6243 H         1 UNK         0.0000 
     42 H42         5.7429   54.9345   26.4324 H         1 UNK         0.0000 
     43 H43         4.2363   54.4487   28.2501 H         1 UNK         0.0000 
     44 H44         0.2400   53.1409   31.4452 H         1 UNK         0.0000 
     45 H45        -0.1855   54.2462   30.1086 H         1 UNK         0.0000 
     46 H46        -0.4661   52.4880   29.9541 H         1 UNK         0.0000 
     47 H47         4.0748   53.7869   22.4357 H         1 UNK         0.0000 
     48 H48         6.9229   56.0808   21.9302 H         1 UNK         0.0000 
     49 H49         7.9838   56.4009   19.7325 H         1 UNK         0.0000 
     50 H50         4.3485   52.9843   20.3252 H         1 UNK         0.0000 
     51 H51         8.1469   55.0206   15.0047 H         1 UNK         0.0000 
     52 H52         8.4978   54.2694   12.6843 H         1 UNK         0.0000 
     53 H53         5.8593   50.9583   13.3386 H         1 UNK         0.0000 
     54 H54         5.4849   51.6969   15.6477 H         1 UNK         0.0000 
@<TRIPOS>BOND
     1    1    2 1    
     2    1   36 1    
     3    1   37 1    
     4    1   38 1    
     5    2    3 1    
     6    2   11 1    
     7    2    4 1    
     8    4    5 1    
     9    4   39 1    
    10    4   40 1    
    11    5   10 ar   
    12    5    6 ar   
    13    6    7 ar   
    14    6   41 1    
    15    7    8 ar   
    16    7   16 1    
    17    8    9 ar   
    18    8   42 1    
    19    9   10 ar   
    20    9   43 1    
    21   10   11 1    
    22   11   12 1    
    23   12   13 2    
    24   12   14 2    
    25   12   15 1    
    26   15   44 1    
    27   15   45 1    
    28   15   46 1    
    29   16   17 2    
    30   16   18 am   BACKBONE|DICT|INTERRES
    31   18   19 1    
    32   18   47 1    
    33   19   24 ar   
    34   19   20 ar   
    35   20   21 ar   
    36   20   48 1    
    37   21   22 ar   
    38   21   49 1    
    39   22   28 ar   
    40   22   23 ar   
    41   23   24 ar   
    42   23   25 ar   
    43   24   50 1    
    44   25   26 1    
    45   25   27 ar   
    46   27   28 ar   
    47   27   29 1    
    48   29   34 ar   
    49   29   30 ar   
    50   30   31 ar   
    51   30   51 1    
    52   31   32 ar   
    53   31   52 1    
    54   32   33 ar   
    55   32   35 1    
    56   33   34 ar   
    57   33   53 1    
    58   34   54 1    
@<TRIPOS>SUBSTRUCTURE
     1 UNK         1 GROUP             0       ****    0 ROOT    
