@<TRIPOS>MOLECULE
ZINC13396353_527
46   48    1
SMALL
USER_CHARGES


@<TRIPOS>ATOM
      1 C1          0.6503   50.1555   21.1218 C.ar      1 UNK         0.0000 
      2 C2         -0.0904   49.2491   20.3704 C.ar      1 UNK         0.0000 
      3 C3          0.3357   48.8914   19.0895 C.ar      1 UNK         0.0000 
      4 C4          1.5270   49.4102   18.5779 C.ar      1 UNK         0.0000 
      5 C5          2.2761   50.3073   19.3379 C.ar      1 UNK         0.0000 
      6 C6          1.8292   50.7073   20.5986 C.ar      1 UNK         0.0000 
      7 N7          2.6161   51.6362   21.3053 N.am      1 UNK         0.0000 
      8 C8          2.1902   52.5611   22.1989 C.2       1 UNK         0.0000 
      9 O9          1.0040   52.8008   22.4288 O.2       1 UNK         0.0000 
     10 C10         3.2711   53.3109   22.9509 C.ar      1 UNK         0.0000 
     11 C11         4.5103   53.5972   22.3497 C.ar      1 UNK         0.0000 
     12 C12         5.5285   54.2194   23.0747 C.ar      1 UNK         0.0000 
     13 C13         5.3273   54.5736   24.4065 C.ar      1 UNK         0.0000 
     14 C14         4.0959   54.3255   25.0108 C.ar      1 UNK         0.0000 
     15 C15         3.0751   53.6970   24.2928 C.ar      1 UNK         0.0000 
     16 F16         1.9042   53.4428   24.9314 F         1 UNK         0.0000 
     17 F17         3.8919   54.6914   26.2987 F         1 UNK         0.0000 
     18 F18         6.3152   55.1835   25.1022 F         1 UNK         0.0000 
     19 F19         6.7083   54.4929   22.4748 F         1 UNK         0.0000 
     20 S20        -0.6961   47.8366   18.0642 S.o2      1 UNK         0.0000 
     21 O21        -1.8809   47.5015   18.8635 O.2       1 UNK         0.0000 
     22 O22        -0.8232   48.5338   16.7782 O.2       1 UNK         0.0000 
     23 N23         0.2210   46.3421   17.7974 N.pl3     1 UNK         0.0000 
     24 C24         1.2359   46.2483   16.7242 C.3       1 UNK         0.0000 
     25 C25         1.0500   44.9103   15.9754 C.3       1 UNK         0.0000 
     26 C26         1.0322   43.6969   16.9414 C.3       1 UNK         0.0000 
     27 C27         0.0596   43.9142   18.1488 C.3       1 UNK         0.0000 
     28 H28        -0.9689   43.8986   17.7808 H         1 UNK         0.0000 
     29 C29         0.2912   45.2889   18.8326 C.3       1 UNK         0.0000 
     30 C30         0.1201   42.7634   19.1861 C.2       1 UNK         0.0000 
     31 O31        -0.4949   42.9033   20.2687 O.co2     1 UNK         0.0000 
     32 H32         0.3004   50.4227   22.1077 H         1 UNK         0.0000 
     33 H33        -1.0112   48.8514   20.7764 H         1 UNK         0.0000 
     34 H34         1.8688   49.1420   17.5856 H         1 UNK         0.0000 
     35 H35         3.1871   50.7076   18.9159 H         1 UNK         0.0000 
     36 H36         3.5946   51.6353   21.0672 H         1 UNK         0.0000 
     37 H37         4.7016   53.3455   21.3148 H         1 UNK         0.0000 
     38 H38         1.1436   47.1045   16.0537 H         1 UNK         0.0000 
     39 H39         2.2263   46.2993   17.1805 H         1 UNK         0.0000 
     40 H40         0.1179   44.9448   15.4093 H         1 UNK         0.0000 
     41 H41         1.8437   44.7881   15.2376 H         1 UNK         0.0000 
     42 H42         0.7480   42.8087   16.3748 H         1 UNK         0.0000 
     43 H43         2.0564   43.5585   17.2824 H         1 UNK         0.0000 
     44 H44         1.2813   45.3349   19.2817 H         1 UNK         0.0000 
     45 H45        -0.4434   45.4947   19.6103 H         1 UNK         0.0000 
     46 O46         0.7043   41.6998   18.8817 O.co2     1 UNK         0.0000 
@<TRIPOS>BOND
     1    1    6 ar   
     2    1    2 ar   
     3    1   32 1    
     4    2    3 ar   
     5    2   33 1    
     6    3    4 ar   
     7    3   20 1    
     8    4    5 ar   
     9    4   34 1    
    10    5    6 ar   
    11    5   35 1    
    12    6    7 1    
    13    7    8 am   BACKBONE|DICT|INTERRES
    14    7   36 1    
    15    8    9 2    
    16    8   10 1    
    17   10   15 ar   
    18   10   11 ar   
    19   11   12 ar   
    20   11   37 1    
    21   12   13 ar   
    22   12   19 1    
    23   13   14 ar   
    24   13   18 1    
    25   14   15 ar   
    26   14   17 1    
    27   15   16 1    
    28   20   21 2    
    29   20   22 2    
    30   20   23 1    
    31   23   29 1    
    32   23   24 1    
    33   24   25 1    
    34   24   38 1    
    35   24   39 1    
    36   25   26 1    
    37   25   40 1    
    38   25   41 1    
    39   26   27 1    
    40   26   42 1    
    41   26   43 1    
    42   27   28 1    
    43   27   29 1    
    44   27   30 1    
    45   29   44 1    
    46   29   45 1    
    47   30   31 2    
    48   30   46 1    
@<TRIPOS>SUBSTRUCTURE
     1 UNK         1 GROUP             0       ****    0 ROOT    
