@<TRIPOS>MOLECULE
ZINC33688976_5747
80   82    1
SMALL
USER_CHARGES


@<TRIPOS>ATOM
      1 C1         -3.6581   52.5101   23.7818 C.3       1 UNK         0.0000 
      2 C2         -2.8746   52.0743   25.0031 C.ar      1 UNK         0.0000 
      3 C3         -3.4782   51.2808   25.9836 C.ar      1 UNK         0.0000 
      4 C4         -2.7593   50.8970   27.1155 C.ar      1 UNK         0.0000 
      5 C5         -1.4345   51.2968   27.2715 C.ar      1 UNK         0.0000 
      6 C6         -0.8109   52.0863   26.2930 C.ar      1 UNK         0.0000 
      7 C7         -1.5487   52.4814   25.1631 C.ar      1 UNK         0.0000 
      8 N8          0.5361   52.4985   26.4619 N.pl3     1 UNK         0.0000 
      9 C9          1.5046   52.7695   25.5113 C.ar      1 UNK         0.0000 
     10 C10         2.5654   53.2970   26.2290 C.ar      1 UNK         0.0000 
     11 C11         2.1785   53.3294   27.5731 C.ar      1 UNK         0.0000 
     12 N12         0.9644   52.8340   27.6961 N.2       1 UNK         0.0000 
     13 C13         2.9367   53.8511   28.8010 C.3       1 UNK         0.0000 
     14 C14         4.3668   54.3013   28.4153 C.3       1 UNK         0.0000 
     15 C15         3.0531   52.7356   29.8689 C.3       1 UNK         0.0000 
     16 C16         2.1750   55.0636   29.3891 C.3       1 UNK         0.0000 
     17 N17         1.3518   52.4837   24.1656 N.am      1 UNK         0.0000 
     18 C18         2.1114   52.9714   23.1663 C.2       1 UNK         0.0000 
     19 O19         2.9945   53.8178   23.3115 O.2       1 UNK         0.0000 
     20 C20         1.7292   52.4886   21.7527 C.3       1 UNK         0.0000 
     21 N21         2.8514   51.8198   21.0556 N.am      1 UNK         0.0000 
     22 C22         2.6290   50.4166   20.6780 C.3       1 UNK         0.0000 
     23 C23         2.1542   50.2559   19.2130 C.3       1 UNK         0.0000 
     24 C24         1.4205   48.9265   18.9157 C.3       1 UNK         0.0000 
     25 C25         0.8727   48.9045   17.4782 C.3       1 UNK         0.0000 
     26 C26         2.3034   47.6969   19.1783 C.3       1 UNK         0.0000 
     27 C27         3.9671   52.4611   20.6028 C.2       1 UNK         0.0000 
     28 O28         5.0816   51.9397   20.6254 O.2       1 UNK         0.0000 
     29 N29         3.7317   53.6912   20.1060 N.am      1 UNK         0.0000 
     30 C30         4.6607   54.6107   19.6010 C.ar      1 UNK         0.0000 
     31 C31         4.2862   55.3701   18.4867 C.ar      1 UNK         0.0000 
     32 C32         5.0878   56.4176   18.0292 C.ar      1 UNK         0.0000 
     33 C33         6.3130   56.6540   18.6724 C.ar      1 UNK         0.0000 
     34 C34         6.7133   55.8814   19.7708 C.ar      1 UNK         0.0000 
     35 C35         5.8735   54.8781   20.2436 C.ar      1 UNK         0.0000 
     36 O36         7.8867   56.0955   20.4574 O.3       1 UNK         0.0000 
     37 C37         9.0359   56.4039   19.6807 C.3       1 UNK         0.0000 
     38 O38         4.5940   57.1729   16.9810 O.3       1 UNK         0.0000 
     39 C39         5.2921   58.3602   16.5991 C.3       1 UNK         0.0000 
     40 H40        -4.7224   52.5813   24.0072 H         1 UNK         0.0000 
     41 H41        -3.5115   51.7980   22.9670 H         1 UNK         0.0000 
     42 H42        -3.3371   53.5006   23.4501 H         1 UNK         0.0000 
     43 H43        -4.5014   50.9513   25.8660 H         1 UNK         0.0000 
     44 H44        -3.2129   50.2604   27.8596 H         1 UNK         0.0000 
     45 H45        -0.8960   50.9617   28.1494 H         1 UNK         0.0000 
     46 H46        -1.1106   53.1280   24.4182 H         1 UNK         0.0000 
     47 H47         3.5156   53.6201   25.8256 H         1 UNK         0.0000 
     48 H48         4.3503   55.0848   27.6576 H         1 UNK         0.0000 
     49 H49         4.9192   54.6918   29.2709 H         1 UNK         0.0000 
     50 H50         4.9459   53.4756   28.0027 H         1 UNK         0.0000 
     51 H51         2.0733   52.4267   30.2371 H         1 UNK         0.0000 
     52 H52         3.5312   51.8468   29.4553 H         1 UNK         0.0000 
     53 H53         3.6439   53.0526   30.7289 H         1 UNK         0.0000 
     54 H54         1.1780   54.7844   29.7326 H         1 UNK         0.0000 
     55 H55         2.6967   55.5075   30.2345 H         1 UNK         0.0000 
     56 H56         2.0425   55.8486   28.6422 H         1 UNK         0.0000 
     57 H57         0.6066   51.8466   23.9255 H         1 UNK         0.0000 
     58 H58         0.9031   51.7816   21.8457 H         1 UNK         0.0000 
     59 H59         1.2951   53.2985   21.1763 H         1 UNK         0.0000 
     60 H60         3.5053   49.8031   20.8749 H         1 UNK         0.0000 
     61 H61         1.8537   50.0086   21.3281 H         1 UNK         0.0000 
     62 H62         1.4876   51.0786   18.9603 H         1 UNK         0.0000 
     63 H63         3.0138   50.3543   18.5456 H         1 UNK         0.0000 
     64 H64         0.5608   48.8615   19.5874 H         1 UNK         0.0000 
     65 H65         1.6815   48.9699   16.7487 H         1 UNK         0.0000 
     66 H66         0.3181   47.9876   17.2765 H         1 UNK         0.0000 
     67 H67         0.1964   49.7391   17.2956 H         1 UNK         0.0000 
     68 H68         3.1770   47.6985   18.5222 H         1 UNK         0.0000 
     69 H69         2.6617   47.6938   20.2092 H         1 UNK         0.0000 
     70 H70         1.7567   46.7654   19.0039 H         1 UNK         0.0000 
     71 H71         2.7700   53.9953   20.0539 H         1 UNK         0.0000 
     72 H72         3.3339   55.1956   18.0061 H         1 UNK         0.0000 
     73 H73         6.9368   57.4644   18.3405 H         1 UNK         0.0000 
     74 H74         6.1596   54.3253   21.1269 H         1 UNK         0.0000 
     75 H75         9.8826   56.4994   20.3537 H         1 UNK         0.0000 
     76 H76         9.2586   55.5990   18.9730 H         1 UNK         0.0000 
     77 H77         8.9526   57.3449   19.1312 H         1 UNK         0.0000 
     78 H78         4.7248   58.8863   15.8318 H         1 UNK         0.0000 
     79 H79         5.4097   59.0454   17.4408 H         1 UNK         0.0000 
     80 H80         6.2762   58.1334   16.1858 H         1 UNK         0.0000 
@<TRIPOS>BOND
     1    1    2 1    
     2    1   40 1    
     3    1   41 1    
     4    1   42 1    
     5    2    7 ar   
     6    2    3 ar   
     7    3    4 ar   
     8    3   43 1    
     9    4    5 ar   
    10    4   44 1    
    11    5    6 ar   
    12    5   45 1    
    13    6    7 ar   
    14    6    8 1    
    15    7   46 1    
    16    8   12 ar   
    17    8    9 ar   
    18    9   10 ar   
    19    9   17 1    
    20   10   11 ar   
    21   10   47 1    
    22   11   12 ar   
    23   11   13 1    
    24   13   14 1    
    25   13   15 1    
    26   13   16 1    
    27   14   48 1    
    28   14   49 1    
    29   14   50 1    
    30   15   51 1    
    31   15   52 1    
    32   15   53 1    
    33   16   54 1    
    34   16   55 1    
    35   16   56 1    
    36   17   18 am   BACKBONE|DICT|INTERRES
    37   17   57 1    
    38   18   19 2    
    39   18   20 1    
    40   20   21 1    
    41   20   58 1    
    42   20   59 1    
    43   21   22 1    
    44   21   27 am   BACKBONE|DICT|INTERRES
    45   22   23 1    
    46   22   60 1    
    47   22   61 1    
    48   23   24 1    
    49   23   62 1    
    50   23   63 1    
    51   24   25 1    
    52   24   26 1    
    53   24   64 1    
    54   25   65 1    
    55   25   66 1    
    56   25   67 1    
    57   26   68 1    
    58   26   69 1    
    59   26   70 1    
    60   27   28 2    
    61   27   29 am   BACKBONE|DICT|INTERRES
    62   29   30 1    
    63   29   71 1    
    64   30   35 ar   
    65   30   31 ar   
    66   31   32 ar   
    67   31   72 1    
    68   32   33 ar   
    69   32   38 1    
    70   33   34 ar   
    71   33   73 1    
    72   34   35 ar   
    73   34   36 1    
    74   35   74 1    
    75   36   37 1    
    76   37   75 1    
    77   37   76 1    
    78   37   77 1    
    79   38   39 1    
    80   39   78 1    
    81   39   79 1    
    82   39   80 1    
@<TRIPOS>SUBSTRUCTURE
     1 UNK         1 GROUP             0       ****    0 ROOT    
