@<TRIPOS>MOLECULE
ZINC37560539_5701
67   70    1
SMALL
USER_CHARGES


@<TRIPOS>ATOM
      1 C1          0.1289   51.1666   28.2155 C.3       1 UNK         0.0000 
      2 C2         -0.1323   50.9954   26.7322 C.ar      1 UNK         0.0000 
      3 C3          0.2943   49.8346   26.0818 C.ar      1 UNK         0.0000 
      4 C4          0.0917   49.6932   24.7130 C.ar      1 UNK         0.0000 
      5 C5         -0.5335   50.7166   23.9964 C.ar      1 UNK         0.0000 
      6 C6         -0.9964   51.8572   24.6553 C.ar      1 UNK         0.0000 
      7 C7         -0.7909   51.9994   26.0232 C.ar      1 UNK         0.0000 
      8 N8         -0.6557   50.6273   22.6005 N.pl3     1 UNK         0.0000 
      9 C9          0.4597   51.0457   21.7381 C.3       1 UNK         0.0000 
     10 C10         1.0688   52.3740   22.2288 C.3       1 UNK         0.0000 
     11 C11         2.1037   52.8533   21.2184 C.3       1 UNK         0.0000 
     12 N12         3.2035   51.7716   21.1488 N.4       1 UNK         0.0000 
     13 C13         2.6629   50.3999   20.6739 C.3       1 UNK         0.0000 
     14 C14         1.5627   49.9643   21.6701 C.3       1 UNK         0.0000 
     15 C15         4.3656   52.2913   20.2767 C.3       1 UNK         0.0000 
     16 C16         5.1229   53.4392   20.9338 C.ar      1 UNK         0.0000 
     17 C17         5.5038   53.3487   22.2776 C.ar      1 UNK         0.0000 
     18 C18         6.2676   54.3432   22.8822 C.ar      1 UNK         0.0000 
     19 C19         6.7044   55.4215   22.1046 C.ar      1 UNK         0.0000 
     20 C20         6.3030   55.5669   20.7768 C.ar      1 UNK         0.0000 
     21 C21         5.5041   54.5643   20.1950 C.ar      1 UNK         0.0000 
     22 O22         6.7279   56.7126   20.1344 O.3       1 UNK         0.0000 
     23 C23         6.2890   56.9581   18.8008 C.3       1 UNK         0.0000 
     24 O24         6.5584   54.1890   24.2199 O.3       1 UNK         0.0000 
     25 C25         6.7048   55.3673   25.0057 C.3       1 UNK         0.0000 
     26 S26        -2.2199   50.2663   21.8308 S.o2      1 UNK         0.0000 
     27 O27        -3.1705   49.9227   22.8942 O.2       1 UNK         0.0000 
     28 O28        -2.4909   51.3551   20.8819 O.2       1 UNK         0.0000 
     29 C29        -1.8785   48.7778   20.8976 C.ar      1 UNK         0.0000 
     30 C30        -1.4368   48.8597   19.5746 C.ar      1 UNK         0.0000 
     31 C31        -1.0809   47.6959   18.8947 C.ar      1 UNK         0.0000 
     32 C32        -1.1611   46.4637   19.5427 C.ar      1 UNK         0.0000 
     33 C33        -1.6023   46.3828   20.8627 C.ar      1 UNK         0.0000 
     34 C34        -1.9543   47.5437   21.5454 C.ar      1 UNK         0.0000 
     35 Cl35       -0.6972   45.0234   18.7107 Cl        1 UNK         0.0000 
     36 H36        -0.5182   50.4976   28.7795 H         1 UNK         0.0000 
     37 H37         1.1608   50.9030   28.4510 H         1 UNK         0.0000 
     38 H38        -0.0349   52.1918   28.5498 H         1 UNK         0.0000 
     39 H39         0.7804   49.0421   26.6332 H         1 UNK         0.0000 
     40 H40         0.4398   48.8006   24.2141 H         1 UNK         0.0000 
     41 H41        -1.4949   52.6422   24.1058 H         1 UNK         0.0000 
     42 H42        -1.1349   52.8930   26.5244 H         1 UNK         0.0000 
     43 H43         0.0598   51.2019   20.7343 H         1 UNK         0.0000 
     44 H44         1.5508   52.2560   23.2012 H         1 UNK         0.0000 
     45 H45         0.3047   53.1372   22.3500 H         1 UNK         0.0000 
     46 H46         2.5647   53.7760   21.5722 H         1 UNK         0.0000 
     47 H47         1.7027   52.9764   20.2111 H         1 UNK         0.0000 
     48 H48         2.3078   50.5136   19.6473 H         1 UNK         0.0000 
     49 H49         3.5039   49.7038   20.6989 H         1 UNK         0.0000 
     50 H50         1.1430   49.0085   21.3555 H         1 UNK         0.0000 
     51 H51         2.0165   49.8053   22.6496 H         1 UNK         0.0000 
     52 H52         3.9423   52.5563   19.3053 H         1 UNK         0.0000 
     53 H53         5.0360   51.4425   20.1295 H         1 UNK         0.0000 
     54 H54         5.2211   52.4973   22.8730 H         1 UNK         0.0000 
     55 H55         7.3499   56.1679   22.5330 H         1 UNK         0.0000 
     56 H56         5.2016   54.6343   19.1611 H         1 UNK         0.0000 
     57 H57         6.6812   57.9171   18.4602 H         1 UNK         0.0000 
     58 H58         6.6470   56.1905   18.1125 H         1 UNK         0.0000 
     59 H59         5.2006   57.0110   18.7396 H         1 UNK         0.0000 
     60 H60         6.8220   55.0870   26.0524 H         1 UNK         0.0000 
     61 H61         5.8207   56.0041   24.9355 H         1 UNK         0.0000 
     62 H62         7.5782   55.9539   24.7227 H         1 UNK         0.0000 
     63 H63        -1.3575   49.8156   19.0769 H         1 UNK         0.0000 
     64 H64        -0.7316   47.7520   17.8733 H         1 UNK         0.0000 
     65 H65        -1.6504   45.4268   21.3623 H         1 UNK         0.0000 
     66 H66        -2.2699   47.4851   22.5787 H         1 UNK         0.0000 
     67 H67         3.5698   51.6550   22.0825 H         1 UNK         0.0000 
@<TRIPOS>BOND
     1    1    2 1    
     2    1   36 1    
     3    1   37 1    
     4    1   38 1    
     5    2    7 ar   
     6    2    3 ar   
     7    3    4 ar   
     8    3   39 1    
     9    4    5 ar   
    10    4   40 1    
    11    5    6 ar   
    12    5    8 1    
    13    6    7 ar   
    14    6   41 1    
    15    7   42 1    
    16    8    9 1    
    17    8   26 1    
    18    9   14 1    
    19    9   10 1    
    20    9   43 1    
    21   10   11 1    
    22   10   44 1    
    23   10   45 1    
    24   11   12 1    
    25   11   46 1    
    26   11   47 1    
    27   12   13 1    
    28   12   15 1    
    29   12   67 1    
    30   13   14 1    
    31   13   48 1    
    32   13   49 1    
    33   14   50 1    
    34   14   51 1    
    35   15   16 1    
    36   15   52 1    
    37   15   53 1    
    38   16   21 ar   
    39   16   17 ar   
    40   17   18 ar   
    41   17   54 1    
    42   18   19 ar   
    43   18   24 1    
    44   19   20 ar   
    45   19   55 1    
    46   20   21 ar   
    47   20   22 1    
    48   21   56 1    
    49   22   23 1    
    50   23   57 1    
    51   23   58 1    
    52   23   59 1    
    53   24   25 1    
    54   25   60 1    
    55   25   61 1    
    56   25   62 1    
    57   26   27 2    
    58   26   28 2    
    59   26   29 1    
    60   29   34 ar   
    61   29   30 ar   
    62   30   31 ar   
    63   30   63 1    
    64   31   32 ar   
    65   31   64 1    
    66   32   33 ar   
    67   32   35 1    
    68   33   34 ar   
    69   33   65 1    
    70   34   66 1    
@<TRIPOS>SUBSTRUCTURE
     1 UNK         1 GROUP             0       ****    0 ROOT    
