@<TRIPOS>MOLECULE
ZINC46613779_4586
42   43    1
SMALL
USER_CHARGES


@<TRIPOS>ATOM
      1 C1          6.7009   56.0871   21.7714 C.3       1 UNK         0.0000 
      2 C2          6.1003   54.7302   22.1785 C.3       1 UNK         0.0000 
      3 H3          6.9692   54.0964   22.0818 H         1 UNK         0.0000 
      4 C4          5.6869   54.6119   23.6644 C.ar      1 UNK         0.0000 
      5 C5          6.6731   54.5901   24.6561 C.ar      1 UNK         0.0000 
      6 C6          6.3299   54.4962   26.0023 C.ar      1 UNK         0.0000 
      7 C7          4.9938   54.4010   26.3801 C.ar      1 UNK         0.0000 
      8 C8          3.9980   54.4055   25.3976 C.ar      1 UNK         0.0000 
      9 C9          4.3442   54.4963   24.0514 C.ar      1 UNK         0.0000 
     10 O10         4.7134   54.3410   27.7270 O.3       1 UNK         0.0000 
     11 C11         3.7298   53.4005   28.1452 C.3       1 UNK         0.0000 
     12 F12         4.0081   53.0008   29.3853 F         1 UNK         0.0000 
     13 F13         2.5126   53.9453   28.1258 F         1 UNK         0.0000 
     14 N14         5.1042   54.2844   21.1860 N.am      1 UNK         0.0000 
     15 C15         4.6419   53.0277   21.0502 C.2       1 UNK         0.0000 
     16 O16         5.1046   52.0767   21.6815 O.2       1 UNK         0.0000 
     17 N17         3.6016   52.9424   20.1961 N.am      1 UNK         0.0000 
     18 N18         3.1452   51.6600   19.8864 N.am      1 UNK         0.0000 
     19 C19         1.8658   51.3341   20.1785 C.2       1 UNK         0.0000 
     20 O20         1.0666   52.0978   20.7315 O.2       1 UNK         0.0000 
     21 C21         1.4488   49.9191   19.8270 C.ar      1 UNK         0.0000 
     22 C22         2.2070   49.1274   18.9496 C.ar      1 UNK         0.0000 
     23 C23         1.8244   47.8236   18.6534 C.ar      1 UNK         0.0000 
     24 C24         0.6733   47.2954   19.2290 C.ar      1 UNK         0.0000 
     25 C25        -0.1033   48.0686   20.0873 C.ar      1 UNK         0.0000 
     26 C26         0.2839   49.3734   20.3868 C.ar      1 UNK         0.0000 
     27 Cl27        0.2131   45.6688   18.8827 Cl        1 UNK         0.0000 
     28 H28         7.4726   56.3992   22.4746 H         1 UNK         0.0000 
     29 H29         7.1818   56.0137   20.7949 H         1 UNK         0.0000 
     30 H30         5.9524   56.8704   21.6815 H         1 UNK         0.0000 
     31 H31         7.7137   54.6409   24.3908 H         1 UNK         0.0000 
     32 H32         7.1006   54.4882   26.7592 H         1 UNK         0.0000 
     33 H33         2.9548   54.3458   25.6686 H         1 UNK         0.0000 
     34 H34         3.5558   54.5057   23.3137 H         1 UNK         0.0000 
     35 H35         3.7166   52.4975   27.5325 H         1 UNK         0.0000 
     36 H36         4.8494   54.9622   20.4826 H         1 UNK         0.0000 
     37 H37         3.4799   53.5862   19.4282 H         1 UNK         0.0000 
     38 H38         3.6436   51.2578   19.1014 H         1 UNK         0.0000 
     39 H39         3.1041   49.5042   18.4824 H         1 UNK         0.0000 
     40 H40         2.4279   47.2335   17.9790 H         1 UNK         0.0000 
     41 H41        -0.9982   47.6574   20.5301 H         1 UNK         0.0000 
     42 H42        -0.3256   49.9548   21.0651 H         1 UNK         0.0000 
@<TRIPOS>BOND
     1    1    2 1    
     2    1   28 1    
     3    1   29 1    
     4    1   30 1    
     5    2    3 1    
     6    2    4 1    
     7    2   14 1    
     8    4    9 ar   
     9    4    5 ar   
    10    5    6 ar   
    11    5   31 1    
    12    6    7 ar   
    13    6   32 1    
    14    7    8 ar   
    15    7   10 1    
    16    8    9 ar   
    17    8   33 1    
    18    9   34 1    
    19   10   11 1    
    20   11   12 1    
    21   11   13 1    
    22   11   35 1    
    23   14   15 am   BACKBONE|DICT|INTERRES
    24   14   36 1    
    25   15   16 2    
    26   15   17 am   BACKBONE|DICT|INTERRES
    27   17   18 1    
    28   17   37 1    
    29   18   19 am   BACKBONE|DICT|INTERRES
    30   18   38 1    
    31   19   20 2    
    32   19   21 1    
    33   21   26 ar   
    34   21   22 ar   
    35   22   23 ar   
    36   22   39 1    
    37   23   24 ar   
    38   23   40 1    
    39   24   25 ar   
    40   24   27 1    
    41   25   26 ar   
    42   25   41 1    
    43   26   42 1    
@<TRIPOS>SUBSTRUCTURE
     1 UNK         1 GROUP             0       ****    0 ROOT    
