ZINC51090096_4749
                    3D
 Schrodinger Suite 2024-2.
 29 30  0  0  1  0            999 V2000
    4.2526   54.0761   21.7527 C   0  0  0  0  0  0
    4.0922   53.9966   23.1362 C   0  0  0  0  0  0
    5.1377   54.4254   23.9798 C   0  0  0  0  0  0
    6.3049   54.8978   23.4536 N   0  0  0  0  0  0
    6.4407   54.9938   22.1061 C   0  0  0  0  0  0
    5.4375   54.5823   21.2255 C   0  0  0  0  0  0
    7.6289   55.5981   21.6817 N   0  0  0  0  0  0
    8.0386   55.6967   20.2905 N   0  0  0  0  0  0
    5.0310   54.3963   25.4966 C   0  0  0  0  0  0
    6.0084   54.6565   26.2030 O   0  0  0  0  0  0
    3.8128   54.0518   25.9818 N   0  0  0  0  0  0
    3.4092   53.7096   27.2869 C   0  0  0  0  0  0
    4.1823   53.9076   28.4453 C   0  0  0  0  0  0
    3.7161   53.4514   29.6811 C   0  0  0  0  0  0
    2.4929   52.7895   29.7726 C   0  0  0  0  0  0
    1.7070   52.6187   28.6362 C   0  0  0  0  0  0
    2.1576   53.0831   27.4002 C   0  0  0  0  0  0
    1.3795   52.8943   26.3070 F   0  0  0  0  0  0
    1.9102   52.0992   31.4487 Br  0  0  0  0  0  0
    3.4581   53.7613   21.0931 H   0  0  0  0  0  0
    3.1614   53.6043   23.5199 H   0  0  0  0  0  0
    5.5559   54.6744   20.1581 H   0  0  0  0  0  0
    8.4113   55.6955   22.3282 H   0  0  0  0  0  0
    7.9887   54.7862   19.8511 H   0  0  0  0  0  0
    7.4680   56.3816   19.8107 H   0  0  0  0  0  0
    3.0958   53.8874   25.2930 H   0  0  0  0  0  0
    5.1465   54.3945   28.4129 H   0  0  0  0  0  0
    4.3042   53.5932   30.5731 H   0  0  0  0  0  0
    0.7550   52.1081   28.7067 H   0  0  0  0  0  0
  1  6  2  0  0  0
  1  2  1  0  0  0
  1 20  1  0  0  0
  2  3  2  0  0  0
  2 21  1  0  0  0
  3  4  1  0  0  0
  3  9  1  0  0  0
  4  5  2  0  0  0
  5  6  1  0  0  0
  5  7  1  0  0  0
  6 22  1  0  0  0
  7  8  1  0  0  0
  7 23  1  0  0  0
  8 24  1  0  0  0
  8 25  1  0  0  0
  9 10  2  0  0  0
  9 11  1  0  0  0
 11 12  1  0  0  0
 11 26  1  0  0  0
 12 17  2  0  0  0
 12 13  1  0  0  0
 13 14  2  0  0  0
 13 27  1  0  0  0
 14 15  1  0  0  0
 14 28  1  0  0  0
 15 16  2  0  0  0
 15 19  1  0  0  0
 16 17  1  0  0  0
 16 29  1  0  0  0
 17 18  1  0  0  0
M  END
> <i_i_glide_confnum>
10

> <i_i_glide_lignum>
4750

> <i_i_glide_posenum>
300

> <i_i_glide_rotatable_bonds>
4

> <i_m_Source_File_Index>
1369

> <b_m_subgroup_collapsed>
0

> <r_i_docking_score>
-5.9372

> <r_i_glide_ecoul>
-4.0207

> <r_i_glide_eff_state_penalty>
0

> <r_i_glide_einternal>
4.33601

> <r_i_glide_emodel>
-50.8215

> <r_i_glide_energy>
-39.0096

> <r_i_glide_erotb>
0.531733

> <r_i_glide_esite>
0

> <r_i_glide_evdw>
-34.9889

> <r_i_glide_gscore>
-5.9372

> <r_i_glide_hbond>
-0.32

> <r_i_glide_ligand_efficiency>
-0.312484

> <r_i_glide_ligand_efficiency_ln>
-1.50521

> <r_i_glide_ligand_efficiency_sa>
-0.833833

> <r_i_glide_lipo>
-2.01385

> <r_i_glide_metal>
0

> <r_i_glide_rewards>
-1.78253

> <s_i_glide_gridfile>
wee1_glide-grid

> <s_m_Source_File>
wee1_decoys_glide_SP.sdf

> <s_m_Source_Path>
/Users/zhangxujun/Desktop

> <s_m_entry_id>
1644

> <s_m_entry_name>
wee1_decoys_glide_SP.1369

> <s_m_subgroup_title>
wee1_decoys_glide_SP

> <s_m_subgroupid>
wee1_decoys_glide_SP


$$$$
