@<TRIPOS>MOLECULE
ZINC02853633_5275
64   67    1
SMALL
USER_CHARGES


@<TRIPOS>ATOM
      1 C1          6.6815   54.2815   27.2009 C.3       1 UNK         0.0000 
      2 C2          6.0917   54.5079   25.8036 C.3       1 UNK         0.0000 
      3 O3          4.7199   54.1424   25.8437 O.3       1 UNK         0.0000 
      4 C4          3.9919   53.9961   24.7159 C.2       1 UNK         0.0000 
      5 O5          4.4174   54.2308   23.5853 O.2       1 UNK         0.0000 
      6 C6          2.6400   53.4641   24.9880 C.2       1 UNK         0.0000 
      7 C7          1.9303   53.5498   26.2317 C.2       1 UNK         0.0000 
      8 C8          0.7090   52.8622   26.2199 C.2       1 UNK         0.0000 
      9 S9          0.3199   52.2924   24.6398 S.3       1 UNK         0.0000 
     10 C10         1.8702   52.7725   24.0257 C.2       1 UNK         0.0000 
     11 N11         2.2273   52.5116   22.6938 N.pl3     1 UNK         0.0000 
     12 C12         2.0846   51.3491   21.9663 C.2       1 UNK         0.0000 
     13 S13         1.5016   49.8751   22.4816 S.2       1 UNK         0.0000 
     14 N14         2.4661   51.3868   20.6546 N.pl3     1 UNK         0.0000 
     15 C15         3.1838   52.3357   19.9812 C.ar      1 UNK         0.0000 
     16 C16         2.8895   52.8967   18.7950 C.ar      1 UNK         0.0000 
     17 N17         3.9227   53.7652   18.4814 N.pl3     1 UNK         0.0000 
     18 N18         4.8351   53.7381   19.5375 N.pl3     1 UNK         0.0000 
     19 C19         4.4740   52.8060   20.4416 C.ar      1 UNK         0.0000 
     20 O20         5.1045   52.4272   21.4305 O.2       1 UNK         0.0000 
     21 C21         6.0499   54.4592   19.5474 C.ar      1 UNK         0.0000 
     22 C22         6.8593   54.4818   18.4063 C.ar      1 UNK         0.0000 
     23 C23         8.0999   55.1138   18.4481 C.ar      1 UNK         0.0000 
     24 C24         8.5310   55.7081   19.6323 C.ar      1 UNK         0.0000 
     25 C25         7.7284   55.6969   20.7697 C.ar      1 UNK         0.0000 
     26 C26         6.4745   55.0977   20.7211 C.ar      1 UNK         0.0000 
     27 C27         3.6137   55.1286   18.0432 C.3       1 UNK         0.0000 
     28 C28         1.7149   52.7069   17.8521 C.3       1 UNK         0.0000 
     29 C29        -0.2527   52.6282   27.3705 C.3       1 UNK         0.0000 
     30 C30         0.1551   51.4166   28.2296 C.3       1 UNK         0.0000 
     31 C31         1.6447   51.3602   28.6414 C.3       1 UNK         0.0000 
     32 C32         2.1930   52.5889   29.3971 C.3       1 UNK         0.0000 
     33 C33         3.0944   53.5144   28.5520 C.3       1 UNK         0.0000 
     34 C34         2.3685   54.3417   27.4707 C.3       1 UNK         0.0000 
     35 H35         7.7482   54.4998   27.2256 H         1 UNK         0.0000 
     36 H36         6.1943   54.9150   27.9439 H         1 UNK         0.0000 
     37 H37         6.5550   53.2440   27.5133 H         1 UNK         0.0000 
     38 H38         6.6288   53.8981   25.0744 H         1 UNK         0.0000 
     39 H39         6.1936   55.5521   25.5044 H         1 UNK         0.0000 
     40 H40         2.8952   53.1686   22.3123 H         1 UNK         0.0000 
     41 H41         2.2401   50.5668   20.1110 H         1 UNK         0.0000 
     42 H42         6.5429   53.9879   17.4980 H         1 UNK         0.0000 
     43 H43         8.7332   55.1211   17.5738 H         1 UNK         0.0000 
     44 H44         9.5042   56.1751   19.6701 H         1 UNK         0.0000 
     45 H45         8.0836   56.1381   21.6902 H         1 UNK         0.0000 
     46 H46         5.8615   55.0818   21.6100 H         1 UNK         0.0000 
     47 H47         2.8188   55.1362   17.2963 H         1 UNK         0.0000 
     48 H48         3.2988   55.7513   18.8814 H         1 UNK         0.0000 
     49 H49         4.4824   55.5995   17.5807 H         1 UNK         0.0000 
     50 H50         1.0324   51.9481   18.2364 H         1 UNK         0.0000 
     51 H51         1.1543   53.6349   17.7365 H         1 UNK         0.0000 
     52 H52         2.0674   52.3810   16.8720 H         1 UNK         0.0000 
     53 H53        -1.2695   52.4758   27.0052 H         1 UNK         0.0000 
     54 H54        -0.3151   53.5079   28.0113 H         1 UNK         0.0000 
     55 H55        -0.0847   50.5018   27.6829 H         1 UNK         0.0000 
     56 H56        -0.4713   51.3869   29.1236 H         1 UNK         0.0000 
     57 H57         2.2645   51.1431   27.7719 H         1 UNK         0.0000 
     58 H58         1.7694   50.4968   29.2810 H         1 UNK         0.0000 
     59 H59         2.7910   52.2297   30.2369 H         1 UNK         0.0000 
     60 H60         1.3799   53.1568   29.8512 H         1 UNK         0.0000 
     61 H61         3.9052   52.9376   28.1056 H         1 UNK         0.0000 
     62 H62         3.5835   54.2127   29.2321 H         1 UNK         0.0000 
     63 H63         1.5119   54.8401   27.9240 H         1 UNK         0.0000 
     64 H64         2.9947   55.1889   27.1941 H         1 UNK         0.0000 
@<TRIPOS>BOND
     1    1    2 1    
     2    1   35 1    
     3    1   36 1    
     4    1   37 1    
     5    2    3 1    
     6    2   38 1    
     7    2   39 1    
     8    3    4 1    
     9    4    5 2    
    10    4    6 1    
    11    6   10 2    
    12    6    7 1    
    13    7   34 1    
    14    7    8 2    
    15    8    9 1    
    16    8   29 1    
    17    9   10 1    
    18   10   11 1    
    19   11   12 1    
    20   11   40 1    
    21   12   13 2    
    22   12   14 1    
    23   14   15 1    
    24   14   41 1    
    25   15   19 ar   
    26   15   16 ar   
    27   16   17 ar   
    28   16   28 1    
    29   17   18 1    
    30   17   27 1    
    31   18   19 ar   
    32   18   21 1    
    33   19   20 2    
    34   21   26 ar   
    35   21   22 ar   
    36   22   23 ar   
    37   22   42 1    
    38   23   24 ar   
    39   23   43 1    
    40   24   25 ar   
    41   24   44 1    
    42   25   26 ar   
    43   25   45 1    
    44   26   46 1    
    45   27   47 1    
    46   27   48 1    
    47   27   49 1    
    48   28   50 1    
    49   28   51 1    
    50   28   52 1    
    51   29   30 1    
    52   29   53 1    
    53   29   54 1    
    54   30   31 1    
    55   30   55 1    
    56   30   56 1    
    57   31   32 1    
    58   31   57 1    
    59   31   58 1    
    60   32   33 1    
    61   32   59 1    
    62   32   60 1    
    63   33   34 1    
    64   33   61 1    
    65   33   62 1    
    66   34   63 1    
    67   34   64 1    
@<TRIPOS>SUBSTRUCTURE
     1 UNK         1 GROUP             0       ****    0 ROOT    
