@<TRIPOS>MOLECULE
ZINC49540763_4742
34   37    1
SMALL
USER_CHARGES


@<TRIPOS>ATOM
      1 C1          0.5427   52.3645   30.2686 C.ar      1 UNK         0.0000 
      2 C2          1.8185   52.8457   30.5509 C.ar      1 UNK         0.0000 
      3 C3          2.6396   53.2517   29.4872 C.ar      1 UNK         0.0000 
      4 C4          2.1730   53.1519   28.1396 C.ar      1 UNK         0.0000 
      5 C5          0.8885   52.6399   27.8851 C.ar      1 UNK         0.0000 
      6 C6          0.0922   52.2440   28.9585 C.ar      1 UNK         0.0000 
      7 N7         -1.1637   51.6966   28.7166 N.pl3     1 UNK         0.0000 
      8 C8          3.2482   53.6395   27.3353 C.ar      1 UNK         0.0000 
      9 N9          4.2071   53.9864   28.2699 N.pl3     1 UNK         0.0000 
     10 N10         3.9016   53.7646   29.5594 N.2       1 UNK         0.0000 
     11 H11         5.1005   54.3894   28.0296 H         1 UNK         0.0000 
     12 C12         3.3640   53.8155   25.9061 C.2       1 UNK         0.0000 
     13 O13         2.3576   53.6969   25.2075 O.2       1 UNK         0.0000 
     14 N14         4.6054   54.0973   25.4425 N.am      1 UNK         0.0000 
     15 C15         4.9894   54.2748   24.1144 C.2       1 UNK         0.0000 
     16 N16         6.1807   54.7512   23.8184 N.2       1 UNK         0.0000 
     17 C17         6.3101   54.8966   22.5130 C.2       1 UNK         0.0000 
     18 C18         5.2620   54.4970   21.7246 C.2       1 UNK         0.0000 
     19 S19         3.9789   53.9015   22.7182 S.3       1 UNK         0.0000 
     20 C20         5.5042   54.6910   20.2571 C.3       1 UNK         0.0000 
     21 C21         6.7804   55.5582   20.2737 C.3       1 UNK         0.0000 
     22 C22         7.4152   55.4906   21.6809 C.3       1 UNK         0.0000 
     23 H23        -0.0949   52.0565   31.0871 H         1 UNK         0.0000 
     24 H24         2.1545   52.8967   31.5749 H         1 UNK         0.0000 
     25 H25         0.5291   52.5454   26.8708 H         1 UNK         0.0000 
     26 H26        -1.3301   51.3948   27.7676 H         1 UNK         0.0000 
     27 H27        -1.5304   51.1056   29.4530 H         1 UNK         0.0000 
     28 H28         4.6888   55.2090   19.7512 H         1 UNK         0.0000 
     29 H29         5.6631   53.7441   19.7389 H         1 UNK         0.0000 
     30 H30         6.5089   56.5917   20.0520 H         1 UNK         0.0000 
     31 H31         7.4845   55.2530   19.4981 H         1 UNK         0.0000 
     32 H32         8.3171   54.8821   21.6817 H         1 UNK         0.0000 
     33 H33         7.7138   56.4805   22.0237 H         1 UNK         0.0000 
     34 H34         5.3392   54.2287   26.1171 H         1 UNK         0.0000 
@<TRIPOS>BOND
     1    1    6 ar   
     2    1    2 ar   
     3    1   23 1    
     4    2    3 ar   
     5    2   24 1    
     6    3    4 ar   
     7    3   10 ar   
     8    4    5 ar   
     9    4    8 ar   
    10    5    6 ar   
    11    5   25 1    
    12    6    7 1    
    13    7   26 1    
    14    7   27 1    
    15    8   12 1    
    16    8    9 ar   
    17    9   11 1    
    18    9   10 ar   
    19   12   13 2    
    20   12   14 am   BACKBONE|DICT|INTERRES
    21   14   15 am   BACKBONE|DICT|INTERRES
    22   14   34 1    
    23   15   19 1    
    24   15   16 2    
    25   16   17 1    
    26   17   22 1    
    27   17   18 2    
    28   18   19 1    
    29   18   20 1    
    30   20   21 1    
    31   20   28 1    
    32   20   29 1    
    33   21   22 1    
    34   21   30 1    
    35   21   31 1    
    36   22   32 1    
    37   22   33 1    
@<TRIPOS>SUBSTRUCTURE
     1 UNK         1 GROUP             0       ****    0 ROOT    
