@<TRIPOS>MOLECULE
ZINC09312774_4256
54   57    1
SMALL
USER_CHARGES


@<TRIPOS>ATOM
      1 C1          5.7000   54.7685   24.4063 C.3       1 UNK         0.0000 
      2 C2          4.4268   54.2480   25.0755 C.2       1 UNK         0.0000 
      3 C3          4.2533   53.8815   26.3824 C.2       1 UNK         0.0000 
      4 C4          2.9027   53.2521   26.8963 C.3       1 UNK         0.0000 
      5 H5          3.2161   52.2671   27.2124 H         1 UNK         0.0000 
      6 C6          1.9037   53.0963   25.7254 C.2       1 UNK         0.0000 
      7 C7          2.1989   53.5006   24.4714 C.2       1 UNK         0.0000 
      8 N8          3.4116   54.0627   24.1667 N.pl3     1 UNK         0.0000 
      9 S9          1.1044   53.3943   23.0714 S.3       1 UNK         0.0000 
     10 C10         2.1045   52.5634   21.7938 C.3       1 UNK         0.0000 
     11 C11         1.2833   52.0970   20.5850 C.2       1 UNK         0.0000 
     12 O12         0.0939   51.8059   20.7272 O.2       1 UNK         0.0000 
     13 N13         1.9609   52.0399   19.4189 N.am      1 UNK         0.0000 
     14 C14         1.4777   51.7096   18.1643 C.2       1 UNK         0.0000 
     15 N15         2.3018   51.7015   17.1589 N.2       1 UNK         0.0000 
     16 C16         1.6791   51.3550   16.0017 C.ar      1 UNK         0.0000 
     17 C17         2.3108   51.2489   14.7542 C.ar      1 UNK         0.0000 
     18 C18         1.5393   50.8905   13.6471 C.ar      1 UNK         0.0000 
     19 C19         0.1709   50.6463   13.7687 C.ar      1 UNK         0.0000 
     20 C20        -0.4821   50.7461   14.9986 C.ar      1 UNK         0.0000 
     21 C21         0.2849   51.1017   16.1166 C.ar      1 UNK         0.0000 
     22 S22        -0.1990   51.3114   17.7928 S.3       1 UNK         0.0000 
     23 C23         0.6208   52.5142   25.9631 C.1       1 UNK         0.0000 
     24 N24        -0.4426   52.0852   26.1115 N.1       1 UNK         0.0000 
     25 C25         2.2491   53.8363   28.1775 C.ar      1 UNK         0.0000 
     26 C26         2.4745   55.1857   28.4385 C.ar      1 UNK         0.0000 
     27 C27         1.9163   55.8466   29.5271 C.ar      1 UNK         0.0000 
     28 C28         1.1037   55.1394   30.4001 C.ar      1 UNK         0.0000 
     29 C29         0.8449   53.7909   30.1681 C.ar      1 UNK         0.0000 
     30 C30         1.4049   53.1202   29.0658 C.ar      1 UNK         0.0000 
     31 N31         1.0493   51.6964   28.8826 N.pl3     1 UNK         0.0000 
     32 O32        -0.0904   51.3563   29.1800 O.co2     1 UNK         0.0000 
     33 O33         1.9029   50.9152   28.4818 O.co2     1 UNK         0.0000 
     34 C34         5.3601   54.0480   27.3617 C.2       1 UNK         0.0000 
     35 O35         6.2733   54.8617   27.2187 O.2       1 UNK         0.0000 
     36 C36         5.3960   53.1878   28.6197 C.3       1 UNK         0.0000 
     37 H37         6.5917   54.2949   24.8145 H         1 UNK         0.0000 
     38 H38         5.7180   54.5632   23.3349 H         1 UNK         0.0000 
     39 H39         5.7930   55.8446   24.5453 H         1 UNK         0.0000 
     40 H40         3.5412   54.4201   23.2319 H         1 UNK         0.0000 
     41 H41         2.8889   53.2465   21.4676 H         1 UNK         0.0000 
     42 H42         2.5796   51.6851   22.2329 H         1 UNK         0.0000 
     43 H43         2.9469   52.2532   19.4333 H         1 UNK         0.0000 
     44 H44         3.3739   51.4212   14.6628 H         1 UNK         0.0000 
     45 H45         2.0091   50.7980   12.6774 H         1 UNK         0.0000 
     46 H46        -0.3936   50.3728   12.8881 H         1 UNK         0.0000 
     47 H47        -1.5427   50.5570   15.0850 H         1 UNK         0.0000 
     48 H48         3.1096   55.6967   27.7512 H         1 UNK         0.0000 
     49 H49         2.1211   56.8951   29.6952 H         1 UNK         0.0000 
     50 H50         0.6762   55.6348   31.2588 H         1 UNK         0.0000 
     51 H51         0.2002   53.2607   30.8576 H         1 UNK         0.0000 
     52 H52         5.2488   52.1362   28.3786 H         1 UNK         0.0000 
     53 H53         6.3719   53.2964   29.0929 H         1 UNK         0.0000 
     54 H54         4.6333   53.4990   29.3317 H         1 UNK         0.0000 
@<TRIPOS>BOND
     1    1    2 1    
     2    1   37 1    
     3    1   38 1    
     4    1   39 1    
     5    2    8 1    
     6    2    3 2    
     7    3    4 1    
     8    3   34 1    
     9    4    5 1    
    10    4    6 1    
    11    4   25 1    
    12    6    7 2    
    13    6   23 1    
    14    7    8 1    
    15    7    9 1    
    16    8   40 1    
    17    9   10 1    
    18   10   11 1    
    19   10   41 1    
    20   10   42 1    
    21   11   12 2    
    22   11   13 am   BACKBONE|DICT|INTERRES
    23   13   14 am   BACKBONE|DICT|INTERRES
    24   13   43 1    
    25   14   22 1    
    26   14   15 2    
    27   15   16 1    
    28   16   21 ar   
    29   16   17 ar   
    30   17   18 ar   
    31   17   44 1    
    32   18   19 ar   
    33   18   45 1    
    34   19   20 ar   
    35   19   46 1    
    36   20   21 ar   
    37   20   47 1    
    38   21   22 1    
    39   23   24 3    
    40   25   30 ar   
    41   25   26 ar   
    42   26   27 ar   
    43   26   48 1    
    44   27   28 ar   
    45   27   49 1    
    46   28   29 ar   
    47   28   50 1    
    48   29   30 ar   
    49   29   51 1    
    50   30   31 1    
    51   31   32 2    
    52   31   33 1    
    53   34   35 2    
    54   34   36 1    
    55   36   52 1    
    56   36   53 1    
    57   36   54 1    
@<TRIPOS>SUBSTRUCTURE
     1 UNK         1 GROUP             0       ****    0 ROOT    
