@<TRIPOS>MOLECULE
ZINC37641527_2981
67   70    1
SMALL
USER_CHARGES


@<TRIPOS>ATOM
      1 C1          3.5323   51.3120   20.8685 C.3       1 UNK         0.0000 
      2 C2          2.2706   50.5504   20.5096 C.ar      1 UNK         0.0000 
      3 C3          2.3043   49.5431   19.5485 C.ar      1 UNK         0.0000 
      4 C4          1.1445   48.8511   19.2165 C.ar      1 UNK         0.0000 
      5 C5         -0.0787   49.1669   19.8253 C.ar      1 UNK         0.0000 
      6 C6         -0.1266   50.2037   20.7779 C.ar      1 UNK         0.0000 
      7 C7          1.0594   50.8774   21.1191 C.ar      1 UNK         0.0000 
      8 O8         -1.3619   50.5158   21.3229 O.3       1 UNK         0.0000 
      9 C9         -1.4782   51.4922   22.3571 C.3       1 UNK         0.0000 
     10 C10        -1.0550   50.9403   23.7064 C.2       1 UNK         0.0000 
     11 N11        -0.8291   51.7261   24.7313 N.2       1 UNK         0.0000 
     12 C12        -0.5907   51.0680   25.8538 C.2       1 UNK         0.0000 
     13 C13        -0.5583   49.6759   25.7240 C.2       1 UNK         0.0000 
     14 S14        -0.9076   49.2456   24.0811 S.3       1 UNK         0.0000 
     15 C15        -0.3265   51.8358   27.0446 C.2       1 UNK         0.0000 
     16 O16         0.2922   52.8966   27.0037 O.2       1 UNK         0.0000 
     17 N17        -0.8258   51.2967   28.1696 N.am      1 UNK         0.0000 
     18 C18        -0.8091   51.8275   29.5380 C.3       1 UNK         0.0000 
     19 C19         0.4576   52.5821   30.0021 C.3       1 UNK         0.0000 
     20 C20         1.7769   51.8208   29.7592 C.3       1 UNK         0.0000 
     21 N21         2.6546   52.4505   28.7843 N.am      1 UNK         0.0000 
     22 C22         3.4230   53.5279   28.9932 C.2       1 UNK         0.0000 
     23 O23         3.5053   54.0966   30.0817 O.2       1 UNK         0.0000 
     24 C24         4.2458   53.9633   27.8101 C.ar      1 UNK         0.0000 
     25 C25         5.5183   54.4967   28.0188 C.ar      1 UNK         0.0000 
     26 C26         6.3285   54.8568   26.9488 C.ar      1 UNK         0.0000 
     27 C27         5.8831   54.6764   25.6185 C.ar      1 UNK         0.0000 
     28 C28         6.7045   54.9803   24.5091 C.ar      1 UNK         0.0000 
     29 C29         6.2685   54.7292   23.2119 C.ar      1 UNK         0.0000 
     30 C30         4.9910   54.2266   22.9856 C.ar      1 UNK         0.0000 
     31 C31         4.1323   53.9707   24.0527 C.ar      1 UNK         0.0000 
     32 C32         4.5739   54.1601   25.3878 C.ar      1 UNK         0.0000 
     33 C33         3.7630   53.8276   26.4996 C.ar      1 UNK         0.0000 
     34 C34        -1.3619   48.3991   19.4607 C.3       1 UNK         0.0000 
     35 C35        -2.2534   49.2175   18.5082 C.3       1 UNK         0.0000 
     36 C36        -1.1304   46.9756   18.9078 C.3       1 UNK         0.0000 
     37 H37         3.3114   52.3753   20.9645 H         1 UNK         0.0000 
     38 H38         3.9320   50.9602   21.8183 H         1 UNK         0.0000 
     39 H39         4.2989   51.2167   20.0983 H         1 UNK         0.0000 
     40 H40         3.2294   49.2956   19.0459 H         1 UNK         0.0000 
     41 H41         1.2150   48.0807   18.4643 H         1 UNK         0.0000 
     42 H42         1.0584   51.6677   21.8529 H         1 UNK         0.0000 
     43 H43        -0.9959   52.4323   22.0843 H         1 UNK         0.0000 
     44 H44        -2.5396   51.7351   22.4118 H         1 UNK         0.0000 
     45 H45        -0.3778   48.9176   26.4783 H         1 UNK         0.0000 
     46 H46        -1.2410   50.3717   28.0820 H         1 UNK         0.0000 
     47 H47        -1.6845   52.4513   29.6789 H         1 UNK         0.0000 
     48 H48        -0.9496   50.9580   30.1832 H         1 UNK         0.0000 
     49 H49         0.4820   53.5645   29.5278 H         1 UNK         0.0000 
     50 H50         0.3589   52.7954   31.0678 H         1 UNK         0.0000 
     51 H51         2.3186   51.6967   30.6993 H         1 UNK         0.0000 
     52 H52         1.5688   50.8283   29.3707 H         1 UNK         0.0000 
     53 H53         2.6123   52.0829   27.8456 H         1 UNK         0.0000 
     54 H54         5.9035   54.6258   29.0218 H         1 UNK         0.0000 
     55 H55         7.3126   55.2523   27.1450 H         1 UNK         0.0000 
     56 H56         7.6859   55.3919   24.6764 H         1 UNK         0.0000 
     57 H57         6.9197   54.9426   22.3765 H         1 UNK         0.0000 
     58 H58         4.6572   54.0555   21.9729 H         1 UNK         0.0000 
     59 H59         3.1402   53.5836   23.8687 H         1 UNK         0.0000 
     60 H60         2.7740   53.4349   26.3087 H         1 UNK         0.0000 
     61 H61        -1.9101   48.2578   20.3943 H         1 UNK         0.0000 
     62 H62        -2.4908   50.1976   18.9228 H         1 UNK         0.0000 
     63 H63        -1.7633   49.3776   17.5470 H         1 UNK         0.0000 
     64 H64        -3.1992   48.7096   18.3178 H         1 UNK         0.0000 
     65 H65        -0.4665   46.4009   19.5548 H         1 UNK         0.0000 
     66 H66        -2.0703   46.4269   18.8400 H         1 UNK         0.0000 
     67 H67        -0.6963   46.9923   17.9075 H         1 UNK         0.0000 
@<TRIPOS>BOND
     1    1    2 1    
     2    1   37 1    
     3    1   38 1    
     4    1   39 1    
     5    2    7 ar   
     6    2    3 ar   
     7    3    4 ar   
     8    3   40 1    
     9    4    5 ar   
    10    4   41 1    
    11    5    6 ar   
    12    5   34 1    
    13    6    7 ar   
    14    6    8 1    
    15    7   42 1    
    16    8    9 1    
    17    9   10 1    
    18    9   43 1    
    19    9   44 1    
    20   10   14 1    
    21   10   11 2    
    22   11   12 1    
    23   12   13 2    
    24   12   15 1    
    25   13   14 1    
    26   13   45 1    
    27   15   16 2    
    28   15   17 am   BACKBONE|DICT|INTERRES
    29   17   18 1    
    30   17   46 1    
    31   18   19 1    
    32   18   47 1    
    33   18   48 1    
    34   19   20 1    
    35   19   49 1    
    36   19   50 1    
    37   20   21 1    
    38   20   51 1    
    39   20   52 1    
    40   21   22 am   BACKBONE|DICT|INTERRES
    41   21   53 1    
    42   22   23 2    
    43   22   24 1    
    44   24   33 ar   
    45   24   25 ar   
    46   25   26 ar   
    47   25   54 1    
    48   26   27 ar   
    49   26   55 1    
    50   27   32 ar   
    51   27   28 ar   
    52   28   29 ar   
    53   28   56 1    
    54   29   30 ar   
    55   29   57 1    
    56   30   31 ar   
    57   30   58 1    
    58   31   32 ar   
    59   31   59 1    
    60   32   33 ar   
    61   33   60 1    
    62   34   35 1    
    63   34   36 1    
    64   34   61 1    
    65   35   62 1    
    66   35   63 1    
    67   35   64 1    
    68   36   65 1    
    69   36   66 1    
    70   36   67 1    
@<TRIPOS>SUBSTRUCTURE
     1 UNK         1 GROUP             0       ****    0 ROOT    
