ZINC22925280_1180
                    3D
 Schrodinger Suite 2024-2.
 66 70  0  0  1  0            999 V2000
    2.6041   55.1052   29.0335 C   0  0  0  0  0  0
    3.3960   54.4966   28.0639 C   0  0  0  0  0  0
    2.8390   53.5358   27.2255 C   0  0  0  0  0  0
    1.4907   53.1842   27.3506 C   0  0  0  0  0  0
    0.7067   53.7965   28.3362 C   0  0  0  0  0  0
    1.2640   54.7570   29.1772 C   0  0  0  0  0  0
    0.9133   52.1089   26.4170 C   0  0  1  0  0  0
    1.6981   51.9051   25.6878 H   0  0  0  0  0  0
    0.6813   50.7820   27.1783 C   0  0  0  0  0  0
   -0.4164   50.9052   28.0779 O   0  0  0  0  0  0
   -1.5928   51.2967   27.4751 C   0  0  0  0  0  0
   -2.7680   50.9109   28.1236 C   0  0  0  0  0  0
   -4.0022   51.2949   27.6133 C   0  0  0  0  0  0
   -4.0557   52.1011   26.4794 C   0  0  0  0  0  0
   -2.8802   52.4972   25.8414 C   0  0  0  0  0  0
   -1.6126   52.0752   26.3028 C   0  0  0  0  0  0
   -0.3548   52.3957   25.6841 N   0  0  0  0  0  0
   -0.2545   52.8967   24.4110 C   0  0  0  0  0  0
   -1.1660   52.8337   23.5831 O   0  0  0  0  0  0
    1.0228   53.6531   23.9575 C   0  0  0  0  0  0
    1.8967   52.8807   23.0434 N   0  0  0  0  0  0
    1.2374   52.7108   21.7297 C   0  0  0  0  0  0
    2.1529   52.0486   20.6805 C   0  0  0  0  0  0
    3.3606   52.9819   20.4851 N   0  3  0  0  0  0
    4.1070   53.0997   21.8319 C   0  0  0  0  0  0
    3.1274   53.6848   22.8737 C   0  0  0  0  0  0
    4.2905   52.5039   19.3392 C   0  0  0  0  0  0
    5.0813   53.7083   18.8169 C   0  0  0  0  0  0
    6.3072   53.6795   18.8823 O   0  0  0  0  0  0
    4.3566   54.7357   18.3197 N   0  0  0  0  0  0
    4.8072   55.9859   17.8565 C   0  0  0  0  0  0
    3.9048   56.7306   17.0880 C   0  0  0  0  0  0
    4.2665   57.9821   16.5899 C   0  0  0  0  0  0
    5.5322   58.4984   16.8602 C   0  0  0  0  0  0
    6.4312   57.7791   17.6438 C   0  0  0  0  0  0
    6.0737   56.5286   18.1433 C   0  0  0  0  0  0
    7.6485   58.2961   17.9290 F   0  0  0  0  0  0
    3.0349   55.8541   29.6817 H   0  0  0  0  0  0
    4.4397   54.7644   27.9654 H   0  0  0  0  0  0
    3.4627   53.0626   26.4794 H   0  0  0  0  0  0
   -0.3331   53.5308   28.4537 H   0  0  0  0  0  0
    0.6630   55.2275   29.9425 H   0  0  0  0  0  0
    0.4822   49.9751   26.4691 H   0  0  0  0  0  0
    1.5716   50.4978   27.7387 H   0  0  0  0  0  0
   -2.7157   50.3027   29.0158 H   0  0  0  0  0  0
   -4.9110   50.9851   28.1100 H   0  0  0  0  0  0
   -5.0127   52.4233   26.0969 H   0  0  0  0  0  0
   -2.9945   53.1419   24.9843 H   0  0  0  0  0  0
    1.5702   54.0563   24.8079 H   0  0  0  0  0  0
    0.7053   54.5751   23.4696 H   0  0  0  0  0  0
    0.9363   53.6955   21.3675 H   0  0  0  0  0  0
    0.3524   52.0827   21.8229 H   0  0  0  0  0  0
    1.6390   51.9993   19.7182 H   0  0  0  0  0  0
    2.5154   51.0569   20.9661 H   0  0  0  0  0  0
    4.4942   52.1110   22.0894 H   0  0  0  0  0  0
    4.9332   53.7960   21.6716 H   0  0  0  0  0  0
    3.6485   53.7914   23.8270 H   0  0  0  0  0  0
    2.8396   54.6770   22.5179 H   0  0  0  0  0  0
    3.6629   52.0969   18.5445 H   0  0  0  0  0  0
    4.9180   51.7017   19.7290 H   0  0  0  0  0  0
    3.3653   54.5839   18.2146 H   0  0  0  0  0  0
    2.9184   56.3474   16.8659 H   0  0  0  0  0  0
    3.5667   58.5613   16.0037 H   0  0  0  0  0  0
    5.8059   59.4750   16.4829 H   0  0  0  0  0  0
    6.7946   56.0075   18.7534 H   0  0  0  0  0  0
    2.9890   53.8910   20.2284 H   0  0  0  0  0  0
  1  6  2  0  0  0
  1  2  1  0  0  0
  1 38  1  0  0  0
  2  3  2  0  0  0
  2 39  1  0  0  0
  3  4  1  0  0  0
  3 40  1  0  0  0
  4  5  2  0  0  0
  4  7  1  0  0  0
  5  6  1  0  0  0
  5 41  1  0  0  0
  6 42  1  0  0  0
  7  8  1  0  0  0
  7 17  1  0  0  0
  7  9  1  0  0  0
  9 10  1  0  0  0
  9 43  1  0  0  0
  9 44  1  0  0  0
 10 11  1  0  0  0
 11 16  2  0  0  0
 11 12  1  0  0  0
 12 13  2  0  0  0
 12 45  1  0  0  0
 13 14  1  0  0  0
 13 46  1  0  0  0
 14 15  2  0  0  0
 14 47  1  0  0  0
 15 16  1  0  0  0
 15 48  1  0  0  0
 16 17  1  0  0  0
 17 18  1  0  0  0
 18 19  2  0  0  0
 18 20  1  0  0  0
 20 21  1  0  0  0
 20 49  1  0  0  0
 20 50  1  0  0  0
 21 26  1  0  0  0
 21 22  1  0  0  0
 22 23  1  0  0  0
 22 51  1  0  0  0
 22 52  1  0  0  0
 23 24  1  0  0  0
 23 53  1  0  0  0
 23 54  1  0  0  0
 24 25  1  0  0  0
 24 27  1  0  0  0
 24 66  1  0  0  0
 25 26  1  0  0  0
 25 55  1  0  0  0
 25 56  1  0  0  0
 26 57  1  0  0  0
 26 58  1  0  0  0
 27 28  1  0  0  0
 27 59  1  0  0  0
 27 60  1  0  0  0
 28 29  2  0  0  0
 28 30  1  0  0  0
 30 31  1  0  0  0
 30 61  1  0  0  0
 31 36  2  0  0  0
 31 32  1  0  0  0
 32 33  2  0  0  0
 32 62  1  0  0  0
 33 34  1  0  0  0
 33 63  1  0  0  0
 34 35  2  0  0  0
 34 64  1  0  0  0
 35 36  1  0  0  0
 35 37  1  0  0  0
 36 65  1  0  0  0
M  CHG  1  24   1
M  END
> <i_i_glide_confnum>
2

> <i_i_glide_lignum>
1181

> <i_i_glide_posenum>
263

> <i_i_glide_rotatable_bonds>
8

> <i_m_Source_File_Index>
5533

> <b_m_subgroup_collapsed>
0

> <r_i_docking_score>
-4.60507

> <r_i_glide_ecoul>
-5.81527

> <r_i_glide_eff_state_penalty>
0

> <r_i_glide_einternal>
12.8999

> <r_i_glide_emodel>
-51.8723

> <r_i_glide_energy>
-43.3864

> <r_i_glide_erotb>
0.594194

> <r_i_glide_esite>
-0.0701923

> <r_i_glide_evdw>
-37.5711

> <r_i_glide_gscore>
-4.60507

> <r_i_glide_hbond>
0

> <r_i_glide_ligand_efficiency>
-0.127919

> <r_i_glide_ligand_efficiency_ln>
-1.0047

> <r_i_glide_ligand_efficiency_sa>
-0.422378

> <r_i_glide_lipo>
-2.22045

> <r_i_glide_metal>
0

> <r_i_glide_rewards>
-0.157769

> <s_i_glide_gridfile>
wee1_glide-grid

> <s_m_Source_File>
wee1_decoys_glide_SP.sdf

> <s_m_Source_Path>
/Users/zhangxujun/Desktop

> <s_m_entry_id>
5808

> <s_m_entry_name>
wee1_decoys_glide_SP.5533

> <s_m_subgroup_title>
wee1_decoys_glide_SP

> <s_m_subgroupid>
wee1_decoys_glide_SP


$$$$
