@<TRIPOS>MOLECULE
ZINC35842959_4070
61   64    1
SMALL
USER_CHARGES


@<TRIPOS>ATOM
      1 C1          4.0077   54.0837   24.1922 C.3       1 UNK         0.0000 
      2 C2          2.5831   53.5762   24.3170 C.ar      1 UNK         0.0000 
      3 C3          1.7996   53.4415   23.1726 C.ar      1 UNK         0.0000 
      4 C4          0.4834   53.0051   23.2815 C.ar      1 UNK         0.0000 
      5 C5         -0.0732   52.7527   24.5306 C.ar      1 UNK         0.0000 
      6 C6          0.7240   52.8457   25.6753 C.ar      1 UNK         0.0000 
      7 C7          2.0490   53.2654   25.5691 C.ar      1 UNK         0.0000 
      8 S8         -1.8371   52.4158   24.6562 S.o2      1 UNK         0.0000 
      9 O9         -2.4939   53.2968   23.6820 O.2       1 UNK         0.0000 
     10 O10        -2.1876   52.4886   26.0792 O.2       1 UNK         0.0000 
     11 N11        -2.0861   50.7426   24.1105 N.pl3     1 UNK         0.0000 
     12 C12        -1.7735   49.6399   25.0496 C.3       1 UNK         0.0000 
     13 C13        -0.2690   49.3346   25.1366 C.3       1 UNK         0.0000 
     14 C14         0.4443   48.8363   23.8609 C.3       1 UNK         0.0000 
     15 N15         0.1134   49.5017   22.5768 N.pl3     1 UNK         0.0000 
     16 C16        -1.2800   49.4065   22.0961 C.3       1 UNK         0.0000 
     17 C17        -2.2124   50.4999   22.6503 C.3       1 UNK         0.0000 
     18 C18         1.1159   50.1714   21.7657 C.ar      1 UNK         0.0000 
     19 C19         2.4619   50.3013   22.1525 C.ar      1 UNK         0.0000 
     20 C20         3.3641   51.0146   21.3613 C.ar      1 UNK         0.0000 
     21 C21         2.9323   51.5884   20.1655 C.ar      1 UNK         0.0000 
     22 C22         1.6038   51.4236   19.7760 C.ar      1 UNK         0.0000 
     23 N23         0.7624   50.7432   20.5852 N.pl3     1 UNK         0.0000 
     24 N24         3.8345   52.2461   19.3294 N.am      1 UNK         0.0000 
     25 C25         4.5675   53.3193   19.6687 C.2       1 UNK         0.0000 
     26 O26         4.3934   53.9841   20.6930 O.2       1 UNK         0.0000 
     27 N27         5.5226   53.5471   18.7475 N.am      1 UNK         0.0000 
     28 C28         6.3914   54.6480   18.6879 C.ar      1 UNK         0.0000 
     29 C29         5.9936   55.9472   19.0373 C.ar      1 UNK         0.0000 
     30 C30         6.8886   57.0119   18.9288 C.ar      1 UNK         0.0000 
     31 C31         8.1884   56.7841   18.4754 C.ar      1 UNK         0.0000 
     32 C32         8.5854   55.4975   18.1122 C.ar      1 UNK         0.0000 
     33 C33         7.6860   54.4356   18.2060 C.ar      1 UNK         0.0000 
     34 F34         9.8397   55.2796   17.6591 F         1 UNK         0.0000 
     35 H35         4.0506   54.8967   23.4678 H         1 UNK         0.0000 
     36 H36         4.3842   54.4763   25.1370 H         1 UNK         0.0000 
     37 H37         4.6723   53.2976   23.8369 H         1 UNK         0.0000 
     38 H38         2.2051   53.6801   22.1989 H         1 UNK         0.0000 
     39 H39        -0.1170   52.8967   22.3910 H         1 UNK         0.0000 
     40 H40         0.3069   52.6427   26.6519 H         1 UNK         0.0000 
     41 H41         2.6520   53.3626   26.4602 H         1 UNK         0.0000 
     42 H42        -2.3969   48.7716   24.8331 H         1 UNK         0.0000 
     43 H43        -2.0923   49.9558   26.0447 H         1 UNK         0.0000 
     44 H44        -0.1199   48.5875   25.9198 H         1 UNK         0.0000 
     45 H45         0.2514   50.2119   25.5122 H         1 UNK         0.0000 
     46 H46         0.2231   47.7813   23.6969 H         1 UNK         0.0000 
     47 H47         1.5040   48.8967   24.0567 H         1 UNK         0.0000 
     48 H48        -1.3037   49.4022   21.0072 H         1 UNK         0.0000 
     49 H49        -1.6298   48.4111   22.3744 H         1 UNK         0.0000 
     50 H50        -2.0879   51.4360   22.1067 H         1 UNK         0.0000 
     51 H51        -3.2339   50.1611   22.4720 H         1 UNK         0.0000 
     52 H52         2.8512   49.8855   23.0660 H         1 UNK         0.0000 
     53 H53         4.3926   51.1197   21.6751 H         1 UNK         0.0000 
     54 H54         1.1871   51.8150   18.8582 H         1 UNK         0.0000 
     55 H55         4.0918   51.7484   18.4825 H         1 UNK         0.0000 
     56 H56         5.7135   52.7947   18.0993 H         1 UNK         0.0000 
     57 H57         4.9854   56.1382   19.3689 H         1 UNK         0.0000 
     58 H58         6.5696   58.0130   19.1820 H         1 UNK         0.0000 
     59 H59         8.8871   57.6034   18.3915 H         1 UNK         0.0000 
     60 H60         8.0105   53.4472   17.9133 H         1 UNK         0.0000 
     61 H61        -0.1984   50.6516   20.2913 H         1 UNK         0.0000 
@<TRIPOS>BOND
     1    1    2 1    
     2    1   35 1    
     3    1   36 1    
     4    1   37 1    
     5    2    7 ar   
     6    2    3 ar   
     7    3    4 ar   
     8    3   38 1    
     9    4    5 ar   
    10    4   39 1    
    11    5    6 ar   
    12    5    8 1    
    13    6    7 ar   
    14    6   40 1    
    15    7   41 1    
    16    8    9 2    
    17    8   10 2    
    18    8   11 1    
    19   11   17 1    
    20   11   12 1    
    21   12   13 1    
    22   12   42 1    
    23   12   43 1    
    24   13   14 1    
    25   13   44 1    
    26   13   45 1    
    27   14   15 1    
    28   14   46 1    
    29   14   47 1    
    30   15   16 1    
    31   15   18 1    
    32   16   17 1    
    33   16   48 1    
    34   16   49 1    
    35   17   50 1    
    36   17   51 1    
    37   18   23 ar   
    38   18   19 ar   
    39   19   20 ar   
    40   19   52 1    
    41   20   21 ar   
    42   20   53 1    
    43   21   22 ar   
    44   21   24 1    
    45   22   23 ar   
    46   22   54 1    
    47   23   61 1    
    48   24   25 am   BACKBONE|DICT|INTERRES
    49   24   55 1    
    50   25   26 2    
    51   25   27 am   BACKBONE|DICT|INTERRES
    52   27   28 1    
    53   27   56 1    
    54   28   33 ar   
    55   28   29 ar   
    56   29   30 ar   
    57   29   57 1    
    58   30   31 ar   
    59   30   58 1    
    60   31   32 ar   
    61   31   59 1    
    62   32   33 ar   
    63   32   34 1    
    64   33   60 1    
@<TRIPOS>SUBSTRUCTURE
     1 UNK         1 GROUP             0       ****    0 ROOT    
