@<TRIPOS>MOLECULE
ZINC20751735_4488
64   69    1
SMALL
USER_CHARGES


@<TRIPOS>ATOM
      1 C1          1.0236   51.7203   28.3420 C.3       1 UNK         0.0000 
      2 C2          2.0096   52.6530   27.6631 C.ar      1 UNK         0.0000 
      3 C3          1.8364   53.0283   26.3292 C.ar      1 UNK         0.0000 
      4 C4          2.7533   53.8809   25.7154 C.ar      1 UNK         0.0000 
      5 C5          3.8538   54.3683   26.4243 C.ar      1 UNK         0.0000 
      6 C6          4.0410   53.9866   27.7669 C.ar      1 UNK         0.0000 
      7 C7          3.1171   53.1268   28.3704 C.ar      1 UNK         0.0000 
      8 C8          5.2068   54.4904   28.6140 C.3       1 UNK         0.0000 
      9 N9          4.6981   55.2964   25.8042 N.pl3     1 UNK         0.0000 
     10 S10         6.2871   54.8905   25.1625 S.o2      1 UNK         0.0000 
     11 O11         7.0982   56.0967   25.2819 O.2       1 UNK         0.0000 
     12 O12         6.7122   53.6701   25.8369 O.2       1 UNK         0.0000 
     13 C13         6.0501   54.5563   23.4183 C.ar      1 UNK         0.0000 
     14 C14         5.1238   53.5931   23.0452 C.ar      1 UNK         0.0000 
     15 C15         4.8626   53.3476   21.7051 C.ar      1 UNK         0.0000 
     16 C16         5.5032   54.0951   20.7204 C.ar      1 UNK         0.0000 
     17 C17         6.3954   55.1344   21.0673 C.ar      1 UNK         0.0000 
     18 C18         6.7018   55.3054   22.4293 C.ar      1 UNK         0.0000 
     19 C19         6.9943   56.0487   19.9884 C.3       1 UNK         0.0000 
     20 H20         6.6135   57.0542   20.1730 H         1 UNK         0.0000 
     21 C21         8.5093   56.0292   19.9367 C.2       1 UNK         0.0000 
     22 C22         8.9613   55.3449   18.8714 C.2       1 UNK         0.0000 
     23 C23         7.8222   54.8249   18.0286 C.3       1 UNK         0.0000 
     24 C24         6.6245   55.6243   18.5551 C.3       1 UNK         0.0000 
     25 H25         6.5753   56.5344   17.9520 H         1 UNK         0.0000 
     26 C26         5.2330   54.9501   18.4478 C.3       1 UNK         0.0000 
     27 H27         4.4918   55.6359   18.8546 H         1 UNK         0.0000 
     28 N28         5.1338   53.8409   19.3897 N.pl3     1 UNK         0.0000 
     29 C29         4.7831   54.6606   16.9990 C.ar      1 UNK         0.0000 
     30 C30         4.0330   55.6705   16.2931 C.ar      1 UNK         0.0000 
     31 C31         3.7872   56.9837   16.8056 C.ar      1 UNK         0.0000 
     32 C32         3.0443   57.9140   16.0861 C.ar      1 UNK         0.0000 
     33 C33         2.5191   57.5865   14.8446 C.ar      1 UNK         0.0000 
     34 C34         2.7407   56.3284   14.2976 C.ar      1 UNK         0.0000 
     35 C35         3.5028   55.3597   14.9991 C.ar      1 UNK         0.0000 
     36 C36         3.7491   54.0905   14.4304 C.ar      1 UNK         0.0000 
     37 C37         4.5326   53.1609   15.0980 C.ar      1 UNK         0.0000 
     38 C38         5.0612   53.4376   16.3512 C.ar      1 UNK         0.0000 
     39 O39         5.9089   52.4968   16.8822 O.3       1 UNK         0.0000 
     40 H40         0.3073   51.2901   27.6409 H         1 UNK         0.0000 
     41 H41         0.4784   52.2465   29.1255 H         1 UNK         0.0000 
     42 H42         1.5564   50.8948   28.8137 H         1 UNK         0.0000 
     43 H43         0.9882   52.6663   25.7671 H         1 UNK         0.0000 
     44 H44         2.5912   54.1832   24.6911 H         1 UNK         0.0000 
     45 H45         3.2593   52.8301   29.3991 H         1 UNK         0.0000 
     46 H46         5.8765   53.6661   28.8535 H         1 UNK         0.0000 
     47 H47         5.7890   55.2758   28.1332 H         1 UNK         0.0000 
     48 H48         4.8396   54.8983   29.5567 H         1 UNK         0.0000 
     49 H49         4.3666   56.2374   25.6699 H         1 UNK         0.0000 
     50 H50         4.5947   53.0381   23.8015 H         1 UNK         0.0000 
     51 H51         4.1432   52.5868   21.4358 H         1 UNK         0.0000 
     52 H52         7.4044   56.0733   22.7216 H         1 UNK         0.0000 
     53 H53         9.1229   56.4936   20.6956 H         1 UNK         0.0000 
     54 H54         9.9952   55.1591   18.6187 H         1 UNK         0.0000 
     55 H55         7.7078   53.7503   18.1671 H         1 UNK         0.0000 
     56 H56         7.9778   55.0064   16.9645 H         1 UNK         0.0000 
     57 H57         4.4135   53.1655   19.1788 H         1 UNK         0.0000 
     58 H58         4.1907   57.2986   17.7545 H         1 UNK         0.0000 
     59 H59         2.8813   58.9032   16.4914 H         1 UNK         0.0000 
     60 H60         1.9472   58.3200   14.2961 H         1 UNK         0.0000 
     61 H61         2.3396   56.0876   13.3240 H         1 UNK         0.0000 
     62 H62         3.3508   53.8571   13.4533 H         1 UNK         0.0000 
     63 H63         4.7467   52.2131   14.6264 H         1 UNK         0.0000 
     64 H64         5.5060   51.6731   17.2361 H         1 UNK         0.0000 
@<TRIPOS>BOND
     1    1    2 1    
     2    1   40 1    
     3    1   41 1    
     4    1   42 1    
     5    2    7 ar   
     6    2    3 ar   
     7    3    4 ar   
     8    3   43 1    
     9    4    5 ar   
    10    4   44 1    
    11    5    6 ar   
    12    5    9 1    
    13    6    7 ar   
    14    6    8 1    
    15    7   45 1    
    16    8   46 1    
    17    8   47 1    
    18    8   48 1    
    19    9   10 1    
    20    9   49 1    
    21   10   11 2    
    22   10   12 2    
    23   10   13 1    
    24   13   18 ar   
    25   13   14 ar   
    26   14   15 ar   
    27   14   50 1    
    28   15   16 ar   
    29   15   51 1    
    30   16   28 1    
    31   16   17 ar   
    32   17   18 ar   
    33   17   19 1    
    34   18   52 1    
    35   19   20 1    
    36   19   24 1    
    37   19   21 1    
    38   21   22 2    
    39   21   53 1    
    40   22   23 1    
    41   22   54 1    
    42   23   24 1    
    43   23   55 1    
    44   23   56 1    
    45   24   25 1    
    46   24   26 1    
    47   26   27 1    
    48   26   28 1    
    49   26   29 1    
    50   28   57 1    
    51   29   38 ar   
    52   29   30 ar   
    53   30   35 ar   
    54   30   31 ar   
    55   31   32 ar   
    56   31   58 1    
    57   32   33 ar   
    58   32   59 1    
    59   33   34 ar   
    60   33   60 1    
    61   34   35 ar   
    62   34   61 1    
    63   35   36 ar   
    64   36   37 ar   
    65   36   62 1    
    66   37   38 ar   
    67   37   63 1    
    68   38   39 1    
    69   39   64 1    
@<TRIPOS>SUBSTRUCTURE
     1 UNK         1 GROUP             0       ****    0 ROOT    
