ZINC46839050_2166
                    3D
 Schrodinger Suite 2024-2.
 69 71  0  0  1  0            999 V2000
    3.7381   54.6977   25.7959 C   0  0  0  0  0  0
    4.1818   53.9573   24.5232 C   0  0  2  0  0  0
    3.9506   52.8969   24.6091 H   0  0  0  0  0  0
    5.6939   54.2097   24.2726 C   0  0  0  0  0  0
    6.2151   53.7373   22.9017 C   0  0  0  0  0  0
    5.3254   54.2342   21.7546 C   0  0  0  0  0  0
    3.8543   53.8526   21.9708 C   0  0  0  0  0  0
    3.3540   54.4656   23.3060 N   0  3  1  0  0  0
    1.8196   54.2416   23.4330 C   0  0  0  0  0  0
    1.3147   52.8399   23.7787 C   0  0  0  0  0  0
    0.8725   52.5578   25.0743 C   0  0  0  0  0  0
    0.3129   51.3219   25.3767 C   0  0  0  0  0  0
    0.1901   50.3456   24.3859 C   0  0  0  0  0  0
    0.6350   50.6205   23.0894 C   0  0  0  0  0  0
    1.1868   51.8645   22.7853 C   0  0  0  0  0  0
   -0.4930   49.0088   24.6919 C   0  0  0  0  0  0
   -1.5756   49.0626   25.6819 N   0  0  0  0  0  0
   -2.7531   49.6983   25.5395 C   0  0  0  0  0  0
   -3.0798   50.2616   24.4947 O   0  0  0  0  0  0
   -3.7122   49.6527   26.7540 C   0  0  0  0  0  0
   -3.3058   50.6951   27.8269 C   0  0  0  0  0  0
   -4.2528   50.5954   29.0505 C   0  0  0  0  0  0
   -5.6368   50.7784   28.5592 N   0  0  0  0  0  0
   -6.0949   49.7222   27.6227 C   0  0  0  0  0  0
   -5.2032   49.7904   26.3582 C   0  0  0  0  0  0
   -6.4288   51.7724   29.0541 C   0  0  0  0  0  0
   -6.0956   52.4958   29.9996 O   0  0  0  0  0  0
   -7.6043   51.9536   28.4176 N   0  0  0  0  0  0
   -8.5599   53.0357   28.6618 C   0  0  0  0  0  0
   -9.5398   53.1659   27.4861 C   0  0  0  0  0  0
   -9.3012   52.8888   30.0053 C   0  0  0  0  0  0
    4.3475   54.3944   26.6490 H   0  0  0  0  0  0
    3.8520   55.7699   25.6830 H   0  0  0  0  0  0
    2.7083   54.4960   26.0750 H   0  0  0  0  0  0
    6.2752   53.7204   25.0558 H   0  0  0  0  0  0
    5.9022   55.2771   24.3617 H   0  0  0  0  0  0
    6.2805   52.6489   22.8814 H   0  0  0  0  0  0
    7.2376   54.0974   22.7626 H   0  0  0  0  0  0
    5.6700   53.8137   20.8089 H   0  0  0  0  0  0
    5.4190   55.3156   21.6552 H   0  0  0  0  0  0
    3.7085   52.7720   22.0150 H   0  0  0  0  0  0
    3.2467   54.2757   21.1692 H   0  0  0  0  0  0
    1.3995   54.5718   22.4824 H   0  0  0  0  0  0
    1.5023   54.9607   24.1851 H   0  0  0  0  0  0
    0.9190   53.2972   25.8570 H   0  0  0  0  0  0
   -0.0424   51.1308   26.3794 H   0  0  0  0  0  0
    0.5314   49.8822   22.3068 H   0  0  0  0  0  0
    1.4876   52.0700   21.7685 H   0  0  0  0  0  0
    0.2684   48.3236   25.0667 H   0  0  0  0  0  0
   -0.8850   48.5666   23.7745 H   0  0  0  0  0  0
   -1.3712   48.6865   26.6110 H   0  0  0  0  0  0
   -3.5408   48.6670   27.1945 H   0  0  0  0  0  0
   -3.3891   51.7165   27.4492 H   0  0  0  0  0  0
   -2.3021   50.5067   28.2093 H   0  0  0  0  0  0
   -3.9804   51.2947   29.8405 H   0  0  0  0  0  0
   -4.1825   49.5989   29.4907 H   0  0  0  0  0  0
   -5.9458   48.7636   28.1242 H   0  0  0  0  0  0
   -7.1586   49.7641   27.3825 H   0  0  0  0  0  0
   -5.5128   48.9628   25.7184 H   0  0  0  0  0  0
   -5.4083   50.7486   25.8743 H   0  0  0  0  0  0
   -7.8078   51.3591   27.6305 H   0  0  0  0  0  0
   -7.9921   53.9685   28.6962 H   0  0  0  0  0  0
  -10.2748   53.9491   27.6789 H   0  0  0  0  0  0
  -10.1033   52.2450   27.3283 H   0  0  0  0  0  0
   -9.0274   53.4349   26.5620 H   0  0  0  0  0  0
  -10.0379   53.6845   30.1314 H   0  0  0  0  0  0
   -9.8462   51.9454   30.0592 H   0  0  0  0  0  0
   -8.6203   52.9526   30.8551 H   0  0  0  0  0  0
    3.5062   55.4616   23.2332 H   0  0  0  0  0  0
  1  2  1  0  0  0
  1 32  1  0  0  0
  1 33  1  0  0  0
  1 34  1  0  0  0
  2  3  1  0  0  0
  2  8  1  0  0  0
  2  4  1  0  0  0
  4  5  1  0  0  0
  4 35  1  0  0  0
  4 36  1  0  0  0
  5  6  1  0  0  0
  5 37  1  0  0  0
  5 38  1  0  0  0
  6  7  1  0  0  0
  6 39  1  0  0  0
  6 40  1  0  0  0
  7  8  1  0  0  0
  7 41  1  0  0  0
  7 42  1  0  0  0
  8  9  1  0  0  0
  8 69  1  0  0  0
  9 10  1  0  0  0
  9 43  1  0  0  0
  9 44  1  0  0  0
 10 15  2  0  0  0
 10 11  1  0  0  0
 11 12  2  0  0  0
 11 45  1  0  0  0
 12 13  1  0  0  0
 12 46  1  0  0  0
 13 14  2  0  0  0
 13 16  1  0  0  0
 14 15  1  0  0  0
 14 47  1  0  0  0
 15 48  1  0  0  0
 16 17  1  0  0  0
 16 49  1  0  0  0
 16 50  1  0  0  0
 17 18  1  0  0  0
 17 51  1  0  0  0
 18 19  2  0  0  0
 18 20  1  0  0  0
 20 25  1  0  0  0
 20 21  1  0  0  0
 20 52  1  0  0  0
 21 22  1  0  0  0
 21 53  1  0  0  0
 21 54  1  0  0  0
 22 23  1  0  0  0
 22 55  1  0  0  0
 22 56  1  0  0  0
 23 24  1  0  0  0
 23 26  1  0  0  0
 24 25  1  0  0  0
 24 57  1  0  0  0
 24 58  1  0  0  0
 25 59  1  0  0  0
 25 60  1  0  0  0
 26 27  2  0  0  0
 26 28  1  0  0  0
 28 29  1  0  0  0
 28 61  1  0  0  0
 29 30  1  0  0  0
 29 31  1  0  0  0
 29 62  1  0  0  0
 30 63  1  0  0  0
 30 64  1  0  0  0
 30 65  1  0  0  0
 31 66  1  0  0  0
 31 67  1  0  0  0
 31 68  1  0  0  0
M  CHG  1   8   1
M  END
> <i_i_glide_confnum>
177

> <i_i_glide_lignum>
2167

> <i_i_glide_posenum>
97

> <i_i_glide_rotatable_bonds>
9

> <i_m_Source_File_Index>
2918

> <b_m_subgroup_collapsed>
0

> <r_i_docking_score>
-4.77645

> <r_i_glide_ecoul>
-8.23528

> <r_i_glide_eff_state_penalty>
0

> <r_i_glide_einternal>
3.82951

> <r_i_glide_emodel>
-46.9456

> <r_i_glide_energy>
-34.6504

> <r_i_glide_erotb>
0.914708

> <r_i_glide_esite>
-0.180832

> <r_i_glide_evdw>
-26.4152

> <r_i_glide_gscore>
-4.77645

> <r_i_glide_hbond>
-0.307417

> <r_i_glide_ligand_efficiency>
-0.159215

> <r_i_glide_ligand_efficiency_ln>
-1.08526

> <r_i_glide_ligand_efficiency_sa>
-0.494718

> <r_i_glide_lipo>
-2.02167

> <r_i_glide_metal>
0

> <r_i_glide_rewards>
-0.625188

> <s_i_glide_gridfile>
wee1_glide-grid

> <s_m_Source_File>
wee1_decoys_glide_SP.sdf

> <s_m_Source_Path>
/Users/zhangxujun/Desktop

> <s_m_entry_id>
3193

> <s_m_entry_name>
wee1_decoys_glide_SP.2918

> <s_m_subgroup_title>
wee1_decoys_glide_SP

> <s_m_subgroupid>
wee1_decoys_glide_SP


$$$$
