@<TRIPOS>MOLECULE
ZINC15874460_4931
56   58    1
SMALL
USER_CHARGES


@<TRIPOS>ATOM
      1 C1          6.0110   54.5560   26.1710 C.ar      1 UNK         0.0000 
      2 C2          5.9988   54.6720   24.7834 C.ar      1 UNK         0.0000 
      3 C3          4.8693   54.3003   24.0488 C.ar      1 UNK         0.0000 
      4 C4          3.7264   53.8029   24.7085 C.ar      1 UNK         0.0000 
      5 C5          3.7592   53.6971   26.1066 C.ar      1 UNK         0.0000 
      6 C6          4.8885   54.0716   26.8333 C.ar      1 UNK         0.0000 
      7 Cl7         4.9022   53.9263   28.5524 Cl        1 UNK         0.0000 
      8 S8          2.2431   53.3011   23.7844 S.o2      1 UNK         0.0000 
      9 O9          2.7030   52.6438   22.5561 O.2       1 UNK         0.0000 
     10 O10         1.3978   54.4962   23.7006 O.2       1 UNK         0.0000 
     11 N11         1.3450   52.0669   24.7201 N.pl3     1 UNK         0.0000 
     12 C12         0.9754   50.7653   24.0831 C.3       1 UNK         0.0000 
     13 C13        -0.5436   50.5026   24.1037 C.3       1 UNK         0.0000 
     14 C14        -1.0822   50.6429   25.5549 C.3       1 UNK         0.0000 
     15 C15        -0.8227   52.0979   26.0193 C.3       1 UNK         0.0000 
     16 C16         0.6893   52.3978   26.0149 C.3       1 UNK         0.0000 
     17 C17        -2.6107   50.4172   25.5355 C.2       1 UNK         0.0000 
     18 O18        -3.3107   51.1246   24.8002 O.2       1 UNK         0.0000 
     19 N19        -3.1071   49.4433   26.3298 N.am      1 UNK         0.0000 
     20 N20        -4.4971   49.3196   26.3857 N.pl3     1 UNK         0.0000 
     21 C21        -5.1988   49.1497   27.5403 C.2       1 UNK         0.0000 
     22 S22        -6.8566   49.1827   27.3658 S.2       1 UNK         0.0000 
     23 N23        -4.4955   48.9579   28.7059 N.pl3     1 UNK         0.0000 
     24 C24        -5.0464   48.8299   30.0664 C.3       1 UNK         0.0000 
     25 C25        -5.5775   50.1493   30.6855 C.3       1 UNK         0.0000 
     26 C26        -6.0959   49.9952   32.1261 C.3       1 UNK         0.0000 
     27 C27        -7.1093   48.8485   32.2495 C.3       1 UNK         0.0000 
     28 C28        -6.4945   47.5148   31.7958 C.3       1 UNK         0.0000 
     29 C29        -5.9301   47.5776   30.3630 C.3       1 UNK         0.0000 
     30 Cl30        4.9508   54.4967   22.3312 Cl        1 UNK         0.0000 
     31 H31         6.8855   54.8395   26.7365 H         1 UNK         0.0000 
     32 H32         6.8714   55.0494   24.2697 H         1 UNK         0.0000 
     33 H33         2.9237   53.3196   26.6656 H         1 UNK         0.0000 
     34 H34         1.5048   49.9622   24.5927 H         1 UNK         0.0000 
     35 H35         1.3370   50.7493   23.0548 H         1 UNK         0.0000 
     36 H36        -0.6828   49.4902   23.7233 H         1 UNK         0.0000 
     37 H37        -0.9794   51.2411   23.4279 H         1 UNK         0.0000 
     38 H38        -0.6461   49.9066   26.2369 H         1 UNK         0.0000 
     39 H39        -1.2684   52.8312   25.3392 H         1 UNK         0.0000 
     40 H40        -1.1651   52.2590   27.0438 H         1 UNK         0.0000 
     41 H41         1.2020   51.8448   26.8037 H         1 UNK         0.0000 
     42 H42         0.8579   53.4514   26.2259 H         1 UNK         0.0000 
     43 H43        -2.5966   48.9276   27.0433 H         1 UNK         0.0000 
     44 H44        -4.8444   48.8570   25.5575 H         1 UNK         0.0000 
     45 H45        -3.4838   48.8947   28.6470 H         1 UNK         0.0000 
     46 H46        -4.1475   48.6351   30.6582 H         1 UNK         0.0000 
     47 H47        -6.4030   50.5245   30.0807 H         1 UNK         0.0000 
     48 H48        -4.7934   50.9090   30.6662 H         1 UNK         0.0000 
     49 H49        -6.5515   50.9292   32.4563 H         1 UNK         0.0000 
     50 H50        -5.2570   49.8196   32.8005 H         1 UNK         0.0000 
     51 H51        -7.9963   49.0708   31.6516 H         1 UNK         0.0000 
     52 H52        -7.4480   48.7715   33.2806 H         1 UNK         0.0000 
     53 H53        -7.2379   46.7192   31.8661 H         1 UNK         0.0000 
     54 H54        -5.6965   47.2365   32.4812 H         1 UNK         0.0000 
     55 H55        -5.3633   46.6688   30.1610 H         1 UNK         0.0000 
     56 H56        -6.7967   47.5616   29.7074 H         1 UNK         0.0000 
@<TRIPOS>BOND
     1    1    6 ar   
     2    1    2 ar   
     3    1   31 1    
     4    2    3 ar   
     5    2   32 1    
     6    3    4 ar   
     7    3   30 1    
     8    4    5 ar   
     9    4    8 1    
    10    5    6 ar   
    11    5   33 1    
    12    6    7 1    
    13    8    9 2    
    14    8   10 2    
    15    8   11 1    
    16   11   16 1    
    17   11   12 1    
    18   12   13 1    
    19   12   34 1    
    20   12   35 1    
    21   13   14 1    
    22   13   36 1    
    23   13   37 1    
    24   14   15 1    
    25   14   17 1    
    26   14   38 1    
    27   15   16 1    
    28   15   39 1    
    29   15   40 1    
    30   16   41 1    
    31   16   42 1    
    32   17   18 2    
    33   17   19 am   BACKBONE|DICT|INTERRES
    34   19   20 1    
    35   19   43 1    
    36   20   21 1    
    37   20   44 1    
    38   21   22 2    
    39   21   23 1    
    40   23   24 1    
    41   23   45 1    
    42   24   29 1    
    43   24   25 1    
    44   24   46 1    
    45   25   26 1    
    46   25   47 1    
    47   25   48 1    
    48   26   27 1    
    49   26   49 1    
    50   26   50 1    
    51   27   28 1    
    52   27   51 1    
    53   27   52 1    
    54   28   29 1    
    55   28   53 1    
    56   28   54 1    
    57   29   55 1    
    58   29   56 1    
@<TRIPOS>SUBSTRUCTURE
     1 UNK         1 GROUP             0       ****    0 ROOT    
