@<TRIPOS>MOLECULE
ZINC39691017_2162
66   68    1
SMALL
USER_CHARGES


@<TRIPOS>ATOM
      1 C1          2.0365   56.0575   29.6033 C.3       1 UNK         0.0000 
      2 C2          1.7009   54.5539   29.7100 C.3       1 UNK         0.0000 
      3 C3          0.2626   54.3709   30.2538 C.3       1 UNK         0.0000 
      4 C4          2.0574   53.8071   28.3745 C.3       1 UNK         0.0000 
      5 H5          1.8088   54.5127   27.5897 H         1 UNK         0.0000 
      6 C6          1.2797   52.4808   28.1335 C.2       1 UNK         0.0000 
      7 O7          1.1400   51.6965   29.0749 O.2       1 UNK         0.0000 
      8 N8          0.7133   52.2379   26.9227 N.am      1 UNK         0.0000 
      9 C9          1.0717   52.8941   25.6729 C.3       1 UNK         0.0000 
     10 C10         0.0203   52.4018   24.6519 C.3       1 UNK         0.0000 
     11 H11        -0.7799   53.1415   24.6950 H         1 UNK         0.0000 
     12 C12        -0.4175   50.9944   25.1785 C.3       1 UNK         0.0000 
     13 C13        -0.2769   51.1857   26.7175 C.3       1 UNK         0.0000 
     14 C14         0.4649   49.8245   24.6625 C.3       1 UNK         0.0000 
     15 C15         0.1733   48.4970   25.3844 C.3       1 UNK         0.0000 
     16 N16        -1.3358   48.1668   25.2817 N.4       1 UNK         0.0000 
     17 C17        -2.3215   49.3377   25.5246 C.3       1 UNK         0.0000 
     18 C18        -1.8469   50.5830   24.7450 C.3       1 UNK         0.0000 
     19 C19         0.6761   52.5332   23.2436 C.2       1 UNK         0.0000 
     20 O20         1.7098   53.1870   23.0787 O.2       1 UNK         0.0000 
     21 N21         0.0880   51.8854   22.2231 N.am      1 UNK         0.0000 
     22 C22         0.5878   51.8759   20.8406 C.3       1 UNK         0.0000 
     23 C23         1.7989   50.9890   20.5254 C.2       1 UNK         0.0000 
     24 C24         2.5086   50.3028   21.4411 C.2       1 UNK         0.0000 
     25 C25         2.1753   50.9375   19.0535 C.3       1 UNK         0.0000 
     26 O26         3.4553   53.5015   28.4755 O.3       1 UNK         0.0000 
     27 C27         4.3787   53.9143   27.5346 C.ar      1 UNK         0.0000 
     28 C28         5.7134   53.7179   27.8854 C.ar      1 UNK         0.0000 
     29 C29         6.7361   54.0906   27.0211 C.ar      1 UNK         0.0000 
     30 C30         6.4293   54.6516   25.7851 C.ar      1 UNK         0.0000 
     31 C31         5.1035   54.8562   25.4188 C.ar      1 UNK         0.0000 
     32 C32         4.0810   54.4966   26.2923 C.ar      1 UNK         0.0000 
     33 H33         1.3938   56.5607   28.8792 H         1 UNK         0.0000 
     34 H34         1.9076   56.5687   30.5587 H         1 UNK         0.0000 
     35 H35         3.0700   56.2100   29.2876 H         1 UNK         0.0000 
     36 H36         2.3548   54.1489   30.4818 H         1 UNK         0.0000 
     37 H37        -0.4864   54.4961   29.4752 H         1 UNK         0.0000 
     38 H38         0.1131   53.3783   30.6799 H         1 UNK         0.0000 
     39 H39         0.0404   55.0775   31.0534 H         1 UNK         0.0000 
     40 H40         2.0611   52.4970   25.4295 H         1 UNK         0.0000 
     41 H41         1.1048   53.9810   25.7060 H         1 UNK         0.0000 
     42 H42        -1.2194   51.6124   27.0649 H         1 UNK         0.0000 
     43 H43        -0.1293   50.2687   27.2840 H         1 UNK         0.0000 
     44 H44         1.5040   50.0544   24.8574 H         1 UNK         0.0000 
     45 H45         0.3945   49.6817   23.5850 H         1 UNK         0.0000 
     46 H46         0.4205   48.4973   26.4470 H         1 UNK         0.0000 
     47 H47         0.7033   47.6676   24.9154 H         1 UNK         0.0000 
     48 H48        -1.5340   47.4461   25.9668 H         1 UNK         0.0000 
     49 H49        -2.3574   49.4979   26.6029 H         1 UNK         0.0000 
     50 H50        -3.3015   48.9864   25.2000 H         1 UNK         0.0000 
     51 H51        -1.9412   50.4549   23.6663 H         1 UNK         0.0000 
     52 H52        -2.5354   51.3899   25.0047 H         1 UNK         0.0000 
     53 H53        -0.7161   51.3098   22.4170 H         1 UNK         0.0000 
     54 H54        -0.2322   51.5173   20.2166 H         1 UNK         0.0000 
     55 H55         0.7817   52.8966   20.5034 H         1 UNK         0.0000 
     56 H56         3.3501   49.6964   21.1452 H         1 UNK         0.0000 
     57 H57         2.2819   50.3327   22.4941 H         1 UNK         0.0000 
     58 H58         2.4160   51.9341   18.6818 H         1 UNK         0.0000 
     59 H59         3.0495   50.3082   18.8778 H         1 UNK         0.0000 
     60 H60         1.3564   50.5330   18.4584 H         1 UNK         0.0000 
     61 H61         5.9554   53.2790   28.8420 H         1 UNK         0.0000 
     62 H62         7.7628   53.9345   27.3112 H         1 UNK         0.0000 
     63 H63         7.2195   54.9229   25.0997 H         1 UNK         0.0000 
     64 H64         4.8682   55.2895   24.4590 H         1 UNK         0.0000 
     65 H65         3.0772   54.6772   25.9615 H         1 UNK         0.0000 
     66 H66        -1.5194   47.7727   24.3710 H         1 UNK         0.0000 
@<TRIPOS>BOND
     1    1    2 1    
     2    1   33 1    
     3    1   34 1    
     4    1   35 1    
     5    2    3 1    
     6    2    4 1    
     7    2   36 1    
     8    3   37 1    
     9    3   38 1    
    10    3   39 1    
    11    4    5 1    
    12    4    6 1    
    13    4   26 1    
    14    6    7 2    
    15    6    8 am   BACKBONE|DICT|INTERRES
    16    8   13 1    
    17    8    9 1    
    18    9   10 1    
    19    9   40 1    
    20    9   41 1    
    21   10   11 1    
    22   10   12 1    
    23   10   19 1    
    24   12   18 1    
    25   12   13 1    
    26   12   14 1    
    27   13   42 1    
    28   13   43 1    
    29   14   15 1    
    30   14   44 1    
    31   14   45 1    
    32   15   16 1    
    33   15   46 1    
    34   15   47 1    
    35   16   17 1    
    36   16   48 1    
    37   16   66 1    
    38   17   18 1    
    39   17   49 1    
    40   17   50 1    
    41   18   51 1    
    42   18   52 1    
    43   19   20 2    
    44   19   21 am   BACKBONE|DICT|INTERRES
    45   21   22 1    
    46   21   53 1    
    47   22   23 1    
    48   22   54 1    
    49   22   55 1    
    50   23   24 2    
    51   23   25 1    
    52   24   56 1    
    53   24   57 1    
    54   25   58 1    
    55   25   59 1    
    56   25   60 1    
    57   26   27 1    
    58   27   32 ar   
    59   27   28 ar   
    60   28   29 ar   
    61   28   61 1    
    62   29   30 ar   
    63   29   62 1    
    64   30   31 ar   
    65   30   63 1    
    66   31   32 ar   
    67   31   64 1    
    68   32   65 1    
@<TRIPOS>SUBSTRUCTURE
     1 UNK         1 GROUP             0       ****    0 ROOT    
