ZINC02229598_1266
                    3D
 Schrodinger Suite 2024-2.
 59 63  0  0  1  0            999 V2000
   -4.7073   53.3424   25.5584 C   0  0  0  0  0  0
   -3.6166   52.4721   24.9475 C   0  0  0  0  0  0
   -3.0119   52.8938   23.7564 C   0  0  0  0  0  0
   -1.9958   52.1474   23.1636 C   0  0  0  0  0  0
   -1.5833   50.9650   23.7705 C   0  0  0  0  0  0
   -2.1912   50.5263   24.9350 C   0  0  0  0  0  0
   -3.2045   51.2682   25.5565 C   0  0  0  0  0  0
   -3.8506   50.7889   26.8528 C   0  0  0  0  0  0
   -1.6541   49.2875   25.2820 N   0  0  0  0  0  0
   -0.7784   48.8356   24.3690 C   0  0  0  0  0  0
   -0.3307   47.6974   24.2551 O   0  0  0  0  0  0
   -0.4189   50.0537   23.4984 C   0  0  2  0  0  0
    1.0333   50.5380   23.8129 C   0  0  1  0  0  0
    1.5837   49.8204   24.4292 H   0  0  0  0  0  0
    1.7638   50.7219   22.5039 C   0  0  1  0  0  0
    2.6396   50.0705   22.4785 H   0  0  0  0  0  0
    0.7673   50.4055   21.3552 C   0  0  1  0  0  0
    0.1955   51.2989   21.0904 H   0  0  0  0  0  0
    1.3658   49.8011   20.0503 C   0  0  0  0  0  0
    2.4225   50.6969   19.3747 C   0  0  0  0  0  0
    1.9049   48.3655   20.2140 C   0  0  0  0  0  0
    2.2306   52.1773   22.5331 C   0  0  0  0  0  0
    2.9084   52.7177   21.6618 O   0  0  0  0  0  0
    1.8320   52.7214   23.7080 N   0  0  0  0  0  0
    1.1223   51.8955   24.5112 C   0  0  0  0  0  0
    0.6794   52.1426   25.6339 O   0  0  0  0  0  0
    2.1894   54.0895   24.1071 C   0  0  0  0  0  0
    3.5206   54.1800   24.8445 C   0  0  0  0  0  0
    3.5518   54.0977   26.2393 C   0  0  0  0  0  0
    4.7615   54.2371   26.9152 C   0  0  0  0  0  0
    5.9314   54.4701   26.1966 C   0  0  0  0  0  0
    5.9066   54.5586   24.8068 C   0  0  0  0  0  0
    4.6975   54.4184   24.1290 C   0  0  0  0  0  0
    7.1018   54.6159   26.8558 F   0  0  0  0  0  0
   -4.5100   53.5106   26.6172 H   0  0  0  0  0  0
   -4.7674   54.3225   25.0829 H   0  0  0  0  0  0
   -5.6783   52.8516   25.4709 H   0  0  0  0  0  0
   -3.3143   53.8160   23.2841 H   0  0  0  0  0  0
   -1.5126   52.5155   22.2724 H   0  0  0  0  0  0
   -3.4986   49.8026   27.1592 H   0  0  0  0  0  0
   -3.6335   51.4860   27.6620 H   0  0  0  0  0  0
   -4.9333   50.7334   26.7411 H   0  0  0  0  0  0
   -1.9694   48.7233   26.0620 H   0  0  0  0  0  0
    0.5391   49.7309   19.3396 H   0  0  0  0  0  0
    3.3435   50.7477   19.9562 H   0  0  0  0  0  0
    2.6992   50.3149   18.3905 H   0  0  0  0  0  0
    2.0608   51.7156   19.2317 H   0  0  0  0  0  0
    2.6864   48.3000   20.9717 H   0  0  0  0  0  0
    1.1088   47.6749   20.4810 H   0  0  0  0  0  0
    2.3362   48.0011   19.2795 H   0  0  0  0  0  0
    2.2236   54.7379   23.2287 H   0  0  0  0  0  0
    1.4047   54.4966   24.7462 H   0  0  0  0  0  0
    2.6422   53.9245   26.7974 H   0  0  0  0  0  0
    4.7956   54.1699   27.9927 H   0  0  0  0  0  0
    6.8214   54.7388   24.2602 H   0  0  0  0  0  0
    4.6750   54.4939   23.0505 H   0  0  0  0  0  0
   -0.2947   49.5412   22.0575 N   0  3  0  0  0  0
    0.0305   48.5858   22.1019 H   0  0  0  0  0  0
   -1.1838   49.5331   21.5795 H   0  0  0  0  0  0
  1  2  1  0  0  0
  1 35  1  0  0  0
  1 36  1  0  0  0
  1 37  1  0  0  0
  2  7  2  0  0  0
  2  3  1  0  0  0
  3  4  2  0  0  0
  3 38  1  0  0  0
  4  5  1  0  0  0
  4 39  1  0  0  0
  5 12  1  0  0  0
  5  6  2  0  0  0
  6  7  1  0  0  0
  6  9  1  0  0  0
  7  8  1  0  0  0
  8 40  1  0  0  0
  8 41  1  0  0  0
  8 42  1  0  0  0
  9 10  1  0  0  0
  9 43  1  0  0  0
 10 11  2  0  0  0
 10 12  1  0  0  0
 12 13  1  0  0  0
 12 57  1  0  0  0
 13 14  1  0  0  0
 13 25  1  0  0  0
 13 15  1  0  0  0
 15 16  1  0  0  0
 15 17  1  0  0  0
 15 22  1  0  0  0
 17 18  1  0  0  0
 17 19  1  0  0  0
 17 57  1  0  0  0
 19 20  1  0  0  0
 19 21  1  0  0  0
 19 44  1  0  0  0
 20 45  1  0  0  0
 20 46  1  0  0  0
 20 47  1  0  0  0
 21 48  1  0  0  0
 21 49  1  0  0  0
 21 50  1  0  0  0
 22 23  2  0  0  0
 22 24  1  0  0  0
 24 25  1  0  0  0
 24 27  1  0  0  0
 25 26  2  0  0  0
 27 28  1  0  0  0
 27 51  1  0  0  0
 27 52  1  0  0  0
 28 33  2  0  0  0
 28 29  1  0  0  0
 29 30  2  0  0  0
 29 53  1  0  0  0
 30 31  1  0  0  0
 30 54  1  0  0  0
 31 32  2  0  0  0
 31 34  1  0  0  0
 32 33  1  0  0  0
 32 55  1  0  0  0
 33 56  1  0  0  0
 57 58  1  0  0  0
 57 59  1  0  0  0
M  CHG  1  57   1
M  END
> <i_i_glide_confnum>
10

> <i_i_glide_lignum>
1267

> <i_i_glide_posenum>
253

> <i_i_glide_rotatable_bonds>
3

> <i_m_Source_File_Index>
4731

> <b_m_subgroup_collapsed>
0

> <r_i_docking_score>
-5.36993

> <r_i_glide_ecoul>
-1.28135

> <r_i_glide_eff_state_penalty>
0

> <r_i_glide_einternal>
1.64289

> <r_i_glide_emodel>
-52.2683

> <r_i_glide_energy>
-40.1442

> <r_i_glide_erotb>
0.20924

> <r_i_glide_esite>
-0.10382

> <r_i_glide_evdw>
-38.8628

> <r_i_glide_gscore>
-5.36993

> <r_i_glide_hbond>
-0.0114168

> <r_i_glide_ligand_efficiency>
-0.16781

> <r_i_glide_ligand_efficiency_ln>
-1.20247

> <r_i_glide_ligand_efficiency_sa>
-0.532764

> <r_i_glide_lipo>
-2.32562

> <r_i_glide_metal>
0

> <r_i_glide_rewards>
-1.00297

> <s_i_glide_gridfile>
wee1_glide-grid

> <s_m_Source_File>
wee1_decoys_glide_SP.sdf

> <s_m_Source_Path>
/Users/zhangxujun/Desktop

> <s_m_entry_id>
5006

> <s_m_entry_name>
wee1_decoys_glide_SP.4731

> <s_m_subgroup_title>
wee1_decoys_glide_SP

> <s_m_subgroupid>
wee1_decoys_glide_SP


$$$$
