@<TRIPOS>MOLECULE
ZINC12561845_4661
60   63    1
SMALL
USER_CHARGES


@<TRIPOS>ATOM
      1 C1         -3.3985   52.2430   17.7556 C.3       1 UNK         0.0000 
      2 O2         -2.8918   52.0269   19.0695 O.3       1 UNK         0.0000 
      3 C3         -1.6228   51.4829   19.2343 C.ar      1 UNK         0.0000 
      4 C4         -0.7401   51.3175   18.1486 C.ar      1 UNK         0.0000 
      5 C5          0.5183   50.7558   18.3267 C.ar      1 UNK         0.0000 
      6 C6          0.9140   50.3423   19.5895 C.ar      1 UNK         0.0000 
      7 C7          0.0548   50.5059   20.6714 C.ar      1 UNK         0.0000 
      8 C8         -1.2184   51.0949   20.5365 C.ar      1 UNK         0.0000 
      9 N9         -2.0937   51.2712   21.5937 N.2       1 UNK         0.0000 
     10 S10        -1.7115   51.2120   23.1231 S.o2      1 UNK         0.0000 
     11 O11        -2.7004   51.9211   23.9401 O.2       1 UNK         0.0000 
     12 O12        -0.3009   51.5250   23.3723 O.2       1 UNK         0.0000 
     13 C13        -1.9083   49.4485   23.5812 C.ar      1 UNK         0.0000 
     14 C14        -2.0512   48.4804   22.5692 C.ar      1 UNK         0.0000 
     15 C15        -2.2024   47.1178   22.8567 C.ar      1 UNK         0.0000 
     16 C16        -2.2327   46.7276   24.1949 C.ar      1 UNK         0.0000 
     17 C17        -2.0949   47.6564   25.2122 C.ar      1 UNK         0.0000 
     18 C18        -1.9169   49.0104   24.9345 C.ar      1 UNK         0.0000 
     19 N19        -1.7280   49.7941   26.0817 N.pl3     1 UNK         0.0000 
     20 N20        -0.8175   50.8341   26.1030 N.2       1 UNK         0.0000 
     21 C21        -0.2491   51.1440   27.1910 C.2       1 UNK         0.0000 
     22 C22         0.8595   52.1020   27.1876 C.ar      1 UNK         0.0000 
     23 C23         1.7515   52.1633   28.2591 C.ar      1 UNK         0.0000 
     24 C24         2.9340   52.8951   28.1441 C.ar      1 UNK         0.0000 
     25 C25         3.2510   53.5835   26.9592 C.ar      1 UNK         0.0000 
     26 C26         2.2802   53.6197   25.9510 C.ar      1 UNK         0.0000 
     27 C27         1.1082   52.8951   26.0638 C.ar      1 UNK         0.0000 
     28 N28         4.5304   54.0972   26.7194 N.pl3     1 UNK         0.0000 
     29 C29         4.8293   54.9404   25.5396 C.3       1 UNK         0.0000 
     30 C30         6.3112   55.0228   25.1420 C.3       1 UNK         0.0000 
     31 O31         7.1044   55.2965   26.2758 O.3       1 UNK         0.0000 
     32 C32         6.9746   54.3041   27.2775 C.3       1 UNK         0.0000 
     33 C33         5.5275   54.2859   27.7911 C.3       1 UNK         0.0000 
     34 N34        -2.3208   46.1110   21.7731 N.pl3     1 UNK         0.0000 
     35 O35        -2.2365   46.4892   20.6091 O.co2     1 UNK         0.0000 
     36 O36        -2.4942   44.9325   22.0820 O.co2     1 UNK         0.0000 
     37 H37        -4.4559   52.4961   17.8103 H         1 UNK         0.0000 
     38 H38        -2.8802   53.0664   17.2627 H         1 UNK         0.0000 
     39 H39        -3.3208   51.3468   17.1371 H         1 UNK         0.0000 
     40 H40        -1.0104   51.6235   17.1501 H         1 UNK         0.0000 
     41 H41         1.1870   50.6349   17.4864 H         1 UNK         0.0000 
     42 H42         1.8866   49.8936   19.7299 H         1 UNK         0.0000 
     43 H43         0.4062   50.1415   21.6228 H         1 UNK         0.0000 
     44 H44        -2.0449   48.7743   21.5313 H         1 UNK         0.0000 
     45 H45        -2.3494   45.6967   24.4670 H         1 UNK         0.0000 
     46 H46        -2.0977   47.3052   26.2364 H         1 UNK         0.0000 
     47 H47        -1.7240   49.2748   26.9695 H         1 UNK         0.0000 
     48 H48        -0.4936   50.6793   28.1438 H         1 UNK         0.0000 
     49 H49         1.5779   51.5779   29.1514 H         1 UNK         0.0000 
     50 H50         3.6233   52.8409   28.9701 H         1 UNK         0.0000 
     51 H51         2.4187   54.1510   25.0253 H         1 UNK         0.0000 
     52 H52         0.4230   52.9100   25.2294 H         1 UNK         0.0000 
     53 H53         4.4161   55.9360   25.6874 H         1 UNK         0.0000 
     54 H54         4.3465   54.5275   24.6563 H         1 UNK         0.0000 
     55 H55         6.6228   54.0805   24.6862 H         1 UNK         0.0000 
     56 H56         6.4680   55.8029   24.3965 H         1 UNK         0.0000 
     57 H57         7.2333   53.3205   26.8791 H         1 UNK         0.0000 
     58 H58         7.6792   54.4966   28.0835 H         1 UNK         0.0000 
     59 H59         5.4898   53.4648   28.5033 H         1 UNK         0.0000 
     60 H60         5.3027   55.1977   28.3460 H         1 UNK         0.0000 
@<TRIPOS>BOND
     1    1    2 1    
     2    1   37 1    
     3    1   38 1    
     4    1   39 1    
     5    2    3 1    
     6    3    8 ar   
     7    3    4 ar   
     8    4    5 ar   
     9    4   40 1    
    10    5    6 ar   
    11    5   41 1    
    12    6    7 ar   
    13    6   42 1    
    14    7    8 ar   
    15    7   43 1    
    16    8    9 1    
    17    9   10 1    
    18   10   11 2    
    19   10   12 2    
    20   10   13 1    
    21   13   18 ar   
    22   13   14 ar   
    23   14   15 ar   
    24   14   44 1    
    25   15   16 ar   
    26   15   34 1    
    27   16   17 ar   
    28   16   45 1    
    29   17   18 ar   
    30   17   46 1    
    31   18   19 1    
    32   19   20 1    
    33   19   47 1    
    34   20   21 2    
    35   21   22 1    
    36   21   48 1    
    37   22   27 ar   
    38   22   23 ar   
    39   23   24 ar   
    40   23   49 1    
    41   24   25 ar   
    42   24   50 1    
    43   25   26 ar   
    44   25   28 1    
    45   26   27 ar   
    46   26   51 1    
    47   27   52 1    
    48   28   33 1    
    49   28   29 1    
    50   29   30 1    
    51   29   53 1    
    52   29   54 1    
    53   30   31 1    
    54   30   55 1    
    55   30   56 1    
    56   31   32 1    
    57   32   33 1    
    58   32   57 1    
    59   32   58 1    
    60   33   59 1    
    61   33   60 1    
    62   34   35 2    
    63   34   36 1    
@<TRIPOS>SUBSTRUCTURE
     1 UNK         1 GROUP             0       ****    0 ROOT    
