@<TRIPOS>MOLECULE
ZINC17157642_1729
38   39    1
SMALL
USER_CHARGES


@<TRIPOS>ATOM
      1 C1          1.3972   53.2260   26.3986 C.3       1 UNK         0.0000 
      2 C2          2.5695   54.0679   26.9328 C.2       1 UNK         0.0000 
      3 N3          3.5354   54.4972   26.2048 N.2       1 UNK         0.0000 
      4 N4          3.5710   54.1126   24.9094 N.am      1 UNK         0.0000 
      5 C5          4.6284   54.3614   24.1177 C.2       1 UNK         0.0000 
      6 O6          5.6799   54.8971   24.4659 O.2       1 UNK         0.0000 
      7 N7          4.4301   53.9718   22.8614 N.am      1 UNK         0.0000 
      8 C8          2.5656   54.3492   28.4812 C.3       1 UNK         0.0000 
      9 C9          4.0235   54.5769   29.0053 C.3       1 UNK         0.0000 
     10 C10         4.9308   53.3425   28.8812 C.3       1 UNK         0.0000 
     11 C11         4.3030   52.1336   29.5833 C.3       1 UNK         0.0000 
     12 C12         2.8548   51.8658   29.1246 C.3       1 UNK         0.0000 
     13 C13         2.0470   53.1400   29.3082 C.2       1 UNK         0.0000 
     14 C14         1.0386   53.2192   30.2028 C.2       1 UNK         0.0000 
     15 C15         0.3042   54.4920   30.5721 C.3       1 UNK         0.0000 
     16 C16         1.1359   55.7278   30.1819 C.3       1 UNK         0.0000 
     17 C17         1.6827   55.6157   28.7478 C.3       1 UNK         0.0000 
     18 H18         1.0957   53.5371   25.3983 H         1 UNK         0.0000 
     19 H19         1.6623   52.1710   26.3371 H         1 UNK         0.0000 
     20 H20         0.5153   53.2986   27.0349 H         1 UNK         0.0000 
     21 H21         2.7740   53.5911   24.5813 H         1 UNK         0.0000 
     22 H22         3.5294   53.6512   22.5435 H         1 UNK         0.0000 
     23 H23         5.1768   54.0960   22.1973 H         1 UNK         0.0000 
     24 H24         4.5053   55.3786   28.4598 H         1 UNK         0.0000 
     25 H25         4.0055   54.8921   30.0489 H         1 UNK         0.0000 
     26 H26         5.1043   53.0957   27.8326 H         1 UNK         0.0000 
     27 H27         5.9195   53.5621   29.2805 H         1 UNK         0.0000 
     28 H28         4.9407   51.2957   29.3432 H         1 UNK         0.0000 
     29 H29         4.3312   52.2663   30.6662 H         1 UNK         0.0000 
     30 H30         2.4175   51.0455   29.6816 H         1 UNK         0.0000 
     31 H31         2.8363   51.5315   28.0913 H         1 UNK         0.0000 
     32 H32         0.7656   52.3200   30.7379 H         1 UNK         0.0000 
     33 H33        -0.6669   54.4954   30.0813 H         1 UNK         0.0000 
     34 H34         0.1032   54.5122   31.6442 H         1 UNK         0.0000 
     35 H35         0.5393   56.6334   30.2908 H         1 UNK         0.0000 
     36 H36         1.9613   55.8479   30.8816 H         1 UNK         0.0000 
     37 H37         0.8160   55.6229   28.0832 H         1 UNK         0.0000 
     38 H38         2.2416   56.5205   28.5062 H         1 UNK         0.0000 
@<TRIPOS>BOND
     1    1    2 1    
     2    1   18 1    
     3    1   19 1    
     4    1   20 1    
     5    2    3 2    
     6    2    8 1    
     7    3    4 1    
     8    4    5 am   BACKBONE|DICT|INTERRES
     9    4   21 1    
    10    5    6 2    
    11    5    7 am   BACKBONE|DICT|INTERRES
    12    7   22 1    
    13    7   23 1    
    14    8   13 1    
    15    8   17 1    
    16    8    9 1    
    17    9   10 1    
    18    9   24 1    
    19    9   25 1    
    20   10   11 1    
    21   10   26 1    
    22   10   27 1    
    23   11   12 1    
    24   11   28 1    
    25   11   29 1    
    26   12   13 1    
    27   12   30 1    
    28   12   31 1    
    29   13   14 2    
    30   14   15 1    
    31   14   32 1    
    32   15   16 1    
    33   15   33 1    
    34   15   34 1    
    35   16   17 1    
    36   16   35 1    
    37   16   36 1    
    38   17   37 1    
    39   17   38 1    
@<TRIPOS>SUBSTRUCTURE
     1 UNK         1 GROUP             0       ****    0 ROOT    
