@<TRIPOS>MOLECULE
ZINC04095177_4693
31   33    1
SMALL
USER_CHARGES


@<TRIPOS>ATOM
      1 C1          1.9038   56.2479   29.6823 C.3       1 UNK         0.0000 
      2 C2          1.3524   54.8447   29.6646 C.ar      1 UNK         0.0000 
      3 C3          1.3443   53.8415   28.7037 C.ar      1 UNK         0.0000 
      4 C4          0.6315   52.7974   29.3137 C.ar      1 UNK         0.0000 
      5 N5          0.2507   53.0544   30.5379 N.2       1 UNK         0.0000 
      6 N6          0.6864   54.3011   30.7365 N.pl3     1 UNK         0.0000 
      7 H7          0.5268   54.7806   31.6121 H         1 UNK         0.0000 
      8 O8          0.2970   51.6091   28.7120 O.3       1 UNK         0.0000 
      9 C9          0.5428   51.5581   27.3723 C.2       1 UNK         0.0000 
     10 C10         1.2638   52.4518   26.6511 C.2       1 UNK         0.0000 
     11 C11         1.9007   53.6916   27.2848 C.3       1 UNK         0.0000 
     12 H12         1.4857   54.4967   26.7044 H         1 UNK         0.0000 
     13 C13         3.4208   53.8630   27.1062 C.ar      1 UNK         0.0000 
     14 C14         4.3378   53.4379   28.0851 C.ar      1 UNK         0.0000 
     15 C15         5.7055   53.6707   27.9211 C.ar      1 UNK         0.0000 
     16 C16         6.1802   54.2936   26.7699 C.ar      1 UNK         0.0000 
     17 C17         5.2914   54.6906   25.7771 C.ar      1 UNK         0.0000 
     18 C18         3.9227   54.4803   25.9423 C.ar      1 UNK         0.0000 
     19 F19         3.0871   54.8948   24.9621 F         1 UNK         0.0000 
     20 F20         5.7560   55.2952   24.6583 F         1 UNK         0.0000 
     21 F21         7.5042   54.5076   26.6154 F         1 UNK         0.0000 
     22 F22         6.5785   53.2967   28.8811 F         1 UNK         0.0000 
     23 F23         3.9161   52.8038   29.2048 F         1 UNK         0.0000 
     24 C24         1.3577   52.3076   25.2323 C.1       1 UNK         0.0000 
     25 N25         1.4121   52.1996   24.0815 N.1       1 UNK         0.0000 
     26 N26        -0.0952   50.4550   26.8816 N.pl3     1 UNK         0.0000 
     27 H27         1.5007   56.8488   28.8669 H         1 UNK         0.0000 
     28 H28         2.9872   56.2474   29.5685 H         1 UNK         0.0000 
     29 H29         1.6810   56.7798   30.6095 H         1 UNK         0.0000 
     30 H30        -0.0260   50.1961   25.9085 H         1 UNK         0.0000 
     31 H31        -0.5835   49.8131   27.5024 H         1 UNK         0.0000 
@<TRIPOS>BOND
     1    1    2 1    
     2    1   27 1    
     3    1   28 1    
     4    1   29 1    
     5    2    6 ar   
     6    2    3 ar   
     7    3   11 1    
     8    3    4 ar   
     9    4    5 ar   
    10    4    8 1    
    11    5    6 ar   
    12    6    7 1    
    13    8    9 1    
    14    9   10 2    
    15    9   26 1    
    16   10   11 1    
    17   10   24 1    
    18   11   12 1    
    19   11   13 1    
    20   13   18 ar   
    21   13   14 ar   
    22   14   15 ar   
    23   14   23 1    
    24   15   16 ar   
    25   15   22 1    
    26   16   17 ar   
    27   16   21 1    
    28   17   18 ar   
    29   17   20 1    
    30   18   19 1    
    31   24   25 3    
    32   26   30 1    
    33   26   31 1    
@<TRIPOS>SUBSTRUCTURE
     1 UNK         1 GROUP             0       ****    0 ROOT    
