@<TRIPOS>MOLECULE
ZINC39595597_622
66   69    1
SMALL
USER_CHARGES


@<TRIPOS>ATOM
      1 C1          4.5039   54.4730   25.5542 C.3       1 UNK         0.0000 
      2 C2          3.1557   54.0280   24.9407 C.3       1 UNK         0.0000 
      3 H3          2.4512   54.8569   24.9116 H         1 UNK         0.0000 
      4 C4          3.3623   53.6244   23.4576 C.3       1 UNK         0.0000 
      5 N5          2.2851   52.7794   22.9318 N.am      1 UNK         0.0000 
      6 C6          2.4670   51.7160   22.1264 C.2       1 UNK         0.0000 
      7 O7          3.5755   51.4195   21.6813 O.2       1 UNK         0.0000 
      8 C8          1.2792   50.7538   21.8606 C.3       1 UNK         0.0000 
      9 H9          1.4157   49.9174   22.5489 H         1 UNK         0.0000 
     10 C10        -0.0606   51.4215   22.2147 C.3       1 UNK         0.0000 
     11 N11        -1.0212   50.5995   21.4793 N.am      1 UNK         0.0000 
     12 C12        -0.3864   49.8481   20.3903 C.3       1 UNK         0.0000 
     13 C13         1.1097   50.2459   20.4010 C.3       1 UNK         0.0000 
     14 C14         1.4148   51.3351   19.3204 C.3       1 UNK         0.0000 
     15 C15         1.1254   50.8355   17.8882 C.3       1 UNK         0.0000 
     16 N16         1.9043   49.5222   17.6398 N.4       1 UNK         0.0000 
     17 C17         1.7470   48.4330   18.7196 C.3       1 UNK         0.0000 
     18 C18         2.0661   49.0704   20.0814 C.3       1 UNK         0.0000 
     19 C19        -2.2527   50.2499   21.9342 C.2       1 UNK         0.0000 
     20 O20        -2.9799   49.4539   21.3356 O.2       1 UNK         0.0000 
     21 C21        -2.7165   50.8220   23.2580 C.ar      1 UNK         0.0000 
     22 C22        -2.8886   52.2110   23.3678 C.ar      1 UNK         0.0000 
     23 C23        -3.3265   52.7859   24.5568 C.ar      1 UNK         0.0000 
     24 C24        -3.5906   51.9810   25.6609 C.ar      1 UNK         0.0000 
     25 C25        -3.4208   50.5997   25.5712 C.ar      1 UNK         0.0000 
     26 C26        -2.9923   49.9968   24.3777 C.ar      1 UNK         0.0000 
     27 C27        -2.7682   48.4696   24.3734 C.3       1 UNK         0.0000 
     28 F28        -1.5915   48.1675   23.8224 F         1 UNK         0.0000 
     29 F29        -2.7306   47.9495   25.6023 F         1 UNK         0.0000 
     30 F30        -3.7254   47.8608   23.6735 F         1 UNK         0.0000 
     31 O31         2.5708   52.9322   25.6693 O.3       1 UNK         0.0000 
     32 C32         1.9152   53.1277   26.8788 C.ar      1 UNK         0.0000 
     33 C33         1.9492   54.3124   27.6319 C.ar      1 UNK         0.0000 
     34 C34         1.2743   54.4018   28.8457 C.ar      1 UNK         0.0000 
     35 C35         0.5537   53.3083   29.3152 C.ar      1 UNK         0.0000 
     36 C36         0.4934   52.1304   28.5777 C.ar      1 UNK         0.0000 
     37 C37         1.1739   52.0446   27.3641 C.ar      1 UNK         0.0000 
     38 F38        -0.0984   53.3995   30.4955 F         1 UNK         0.0000 
     39 H39         4.9387   55.2970   24.9839 H         1 UNK         0.0000 
     40 H40         4.4345   54.8037   26.5870 H         1 UNK         0.0000 
     41 H41         5.2230   53.6527   25.5394 H         1 UNK         0.0000 
     42 H42         3.4467   54.5180   22.8358 H         1 UNK         0.0000 
     43 H43         4.3233   53.1244   23.3534 H         1 UNK         0.0000 
     44 H44         1.3615   52.9635   23.2962 H         1 UNK         0.0000 
     45 H45        -0.1852   51.4287   23.3005 H         1 UNK         0.0000 
     46 H46        -0.0710   52.4169   21.7634 H         1 UNK         0.0000 
     47 H47        -0.8923   49.8640   19.4267 H         1 UNK         0.0000 
     48 H48        -0.4093   48.8051   20.7208 H         1 UNK         0.0000 
     49 H49         0.8026   52.2181   19.5056 H         1 UNK         0.0000 
     50 H50         2.4476   51.6853   19.3715 H         1 UNK         0.0000 
     51 H51         0.0724   50.6123   17.7032 H         1 UNK         0.0000 
     52 H52         1.4701   51.5381   17.1265 H         1 UNK         0.0000 
     53 H53         1.6343   49.1369   16.7463 H         1 UNK         0.0000 
     54 H54         0.7299   48.0441   18.6415 H         1 UNK         0.0000 
     55 H55         2.4588   47.6481   18.4514 H         1 UNK         0.0000 
     56 H56         3.1058   49.3845   20.1360 H         1 UNK         0.0000 
     57 H57         1.9579   48.2904   20.8374 H         1 UNK         0.0000 
     58 H58        -2.6898   52.8523   22.5214 H         1 UNK         0.0000 
     59 H59        -3.4661   53.8545   24.6212 H         1 UNK         0.0000 
     60 H60        -3.9245   52.4215   26.5869 H         1 UNK         0.0000 
     61 H61        -3.6221   50.0009   26.4492 H         1 UNK         0.0000 
     62 H62         2.4785   55.1834   27.2853 H         1 UNK         0.0000 
     63 H63         1.3010   55.3165   29.4174 H         1 UNK         0.0000 
     64 H64        -0.0775   51.2889   28.9426 H         1 UNK         0.0000 
     65 H65         1.1186   51.1294   26.7959 H         1 UNK         0.0000 
     66 H66         2.9069   49.6964   17.5033 H         1 UNK         0.0000 
@<TRIPOS>BOND
     1    1    2 1    
     2    1   39 1    
     3    1   40 1    
     4    1   41 1    
     5    2    3 1    
     6    2    4 1    
     7    2   31 1    
     8    4    5 1    
     9    4   42 1    
    10    4   43 1    
    11    5    6 am   BACKBONE|DICT|INTERRES
    12    5   44 1    
    13    6    7 2    
    14    6    8 1    
    15    8    9 1    
    16    8   13 1    
    17    8   10 1    
    18   10   11 1    
    19   10   45 1    
    20   10   46 1    
    21   11   12 1    
    22   11   19 am   BACKBONE|DICT|INTERRES
    23   12   13 1    
    24   12   47 1    
    25   12   48 1    
    26   13   18 1    
    27   13   14 1    
    28   14   15 1    
    29   14   49 1    
    30   14   50 1    
    31   15   16 1    
    32   15   51 1    
    33   15   52 1    
    34   16   17 1    
    35   16   53 1    
    36   16   66 1    
    37   17   18 1    
    38   17   54 1    
    39   17   55 1    
    40   18   56 1    
    41   18   57 1    
    42   19   20 2    
    43   19   21 1    
    44   21   26 ar   
    45   21   22 ar   
    46   22   23 ar   
    47   22   58 1    
    48   23   24 ar   
    49   23   59 1    
    50   24   25 ar   
    51   24   60 1    
    52   25   26 ar   
    53   25   61 1    
    54   26   27 1    
    55   27   28 1    
    56   27   29 1    
    57   27   30 1    
    58   31   32 1    
    59   32   37 ar   
    60   32   33 ar   
    61   33   34 ar   
    62   33   62 1    
    63   34   35 ar   
    64   34   63 1    
    65   35   36 ar   
    66   35   38 1    
    67   36   37 ar   
    68   36   64 1    
    69   37   65 1    
@<TRIPOS>SUBSTRUCTURE
     1 UNK         1 GROUP             0       ****    0 ROOT    
