@<TRIPOS>MOLECULE
ZINC02506497_662
50   53    1
SMALL
USER_CHARGES


@<TRIPOS>ATOM
      1 C1          0.3057   53.7485   30.8759 C.ar      1 UNK         0.0000 
      2 C2          0.1877   52.5282   30.2150 C.ar      1 UNK         0.0000 
      3 C3          0.6919   52.3876   28.9246 C.ar      1 UNK         0.0000 
      4 C4          1.2980   53.4737   28.2797 C.ar      1 UNK         0.0000 
      5 C5          1.4232   54.6915   28.9629 C.ar      1 UNK         0.0000 
      6 C6          0.9261   54.8295   30.2555 C.ar      1 UNK         0.0000 
      7 C7          1.8093   53.3489   26.8704 C.ar      1 UNK         0.0000 
      8 C8          1.2497   52.6418   25.7740 C.ar      1 UNK         0.0000 
      9 C9          2.1350   52.9231   24.7422 C.ar      1 UNK         0.0000 
     10 N10         3.1503   53.6963   25.2331 N.pl3     1 UNK         0.0000 
     11 N11         2.9357   53.9570   26.5331 N.2       1 UNK         0.0000 
     12 C12         4.3210   54.1164   24.5471 C.ar      1 UNK         0.0000 
     13 C13         4.3556   54.0967   23.1420 C.ar      1 UNK         0.0000 
     14 C14         5.5158   54.4542   22.4621 C.ar      1 UNK         0.0000 
     15 C15         6.6434   54.8432   23.1788 C.ar      1 UNK         0.0000 
     16 C16         6.6207   54.8729   24.5702 C.ar      1 UNK         0.0000 
     17 C17         5.4646   54.5101   25.2583 C.ar      1 UNK         0.0000 
     18 C18         0.0512   51.8107   25.6646 C.2       1 UNK         0.0000 
     19 N19        -0.1263   51.1587   24.5916 N.2       1 UNK         0.0000 
     20 N20        -1.2370   50.3931   24.5460 N.am      1 UNK         0.0000 
     21 C21        -1.5892   49.5797   23.5156 C.2       1 UNK         0.0000 
     22 O22        -2.5404   48.8023   23.6527 O.2       1 UNK         0.0000 
     23 C23        -0.8140   49.6302   22.2211 C.2       1 UNK         0.0000 
     24 O24        -0.1967   50.6249   21.8282 O.2       1 UNK         0.0000 
     25 N25        -0.8925   48.4678   21.5357 N.am      1 UNK         0.0000 
     26 C26        -0.2076   48.0915   20.3651 C.ar      1 UNK         0.0000 
     27 C27        -0.8025   47.0937   19.5900 C.ar      1 UNK         0.0000 
     28 C28        -0.1667   46.6279   18.4446 C.ar      1 UNK         0.0000 
     29 C29         1.0725   47.1476   18.0762 C.ar      1 UNK         0.0000 
     30 C30         1.6828   48.1363   18.8473 C.ar      1 UNK         0.0000 
     31 C31         1.0463   48.6109   19.9933 C.ar      1 UNK         0.0000 
     32 Br32        1.9309   46.4973   16.5038 Br        1 UNK         0.0000 
     33 H33        -0.0868   53.8501   31.8790 H         1 UNK         0.0000 
     34 H34        -0.2942   51.6967   30.7108 H         1 UNK         0.0000 
     35 H35         0.6076   51.4265   28.4356 H         1 UNK         0.0000 
     36 H36         1.8926   55.5387   28.4853 H         1 UNK         0.0000 
     37 H37         1.0183   55.7729   30.7753 H         1 UNK         0.0000 
     38 H38         2.1315   52.5870   23.7169 H         1 UNK         0.0000 
     39 H39         3.4961   53.8101   22.5534 H         1 UNK         0.0000 
     40 H40         5.5407   54.4321   21.3819 H         1 UNK         0.0000 
     41 H41         7.5405   55.1251   22.6487 H         1 UNK         0.0000 
     42 H42         7.5039   55.1726   25.1126 H         1 UNK         0.0000 
     43 H43         5.4734   54.5250   26.3404 H         1 UNK         0.0000 
     44 H44        -0.6071   51.8100   26.5286 H         1 UNK         0.0000 
     45 H45        -1.7695   50.3579   25.4039 H         1 UNK         0.0000 
     46 H46        -1.5264   47.7805   21.9219 H         1 UNK         0.0000 
     47 H47        -1.7632   46.6807   19.8665 H         1 UNK         0.0000 
     48 H48        -0.6329   45.8639   17.8403 H         1 UNK         0.0000 
     49 H49         2.6467   48.5339   18.5515 H         1 UNK         0.0000 
     50 H50         1.5480   49.3587   20.5881 H         1 UNK         0.0000 
@<TRIPOS>BOND
     1    1    6 ar   
     2    1    2 ar   
     3    1   33 1    
     4    2    3 ar   
     5    2   34 1    
     6    3    4 ar   
     7    3   35 1    
     8    4    5 ar   
     9    4    7 1    
    10    5    6 ar   
    11    5   36 1    
    12    6   37 1    
    13    7   11 ar   
    14    7    8 ar   
    15    8    9 ar   
    16    8   18 1    
    17    9   10 ar   
    18    9   38 1    
    19   10   11 ar   
    20   10   12 1    
    21   12   17 ar   
    22   12   13 ar   
    23   13   14 ar   
    24   13   39 1    
    25   14   15 ar   
    26   14   40 1    
    27   15   16 ar   
    28   15   41 1    
    29   16   17 ar   
    30   16   42 1    
    31   17   43 1    
    32   18   19 2    
    33   18   44 1    
    34   19   20 1    
    35   20   21 am   BACKBONE|DICT|INTERRES
    36   20   45 1    
    37   21   22 2    
    38   21   23 1    
    39   23   24 2    
    40   23   25 am   BACKBONE|DICT|INTERRES
    41   25   26 1    
    42   25   46 1    
    43   26   31 ar   
    44   26   27 ar   
    45   27   28 ar   
    46   27   47 1    
    47   28   29 ar   
    48   28   48 1    
    49   29   30 ar   
    50   29   32 1    
    51   30   31 ar   
    52   30   49 1    
    53   31   50 1    
@<TRIPOS>SUBSTRUCTURE
     1 UNK         1 GROUP             0       ****    0 ROOT    
