ZINC08897694_5378
                    3D
 Schrodinger Suite 2024-2.
 67 70  0  0  1  0            999 V2000
   -4.5473   47.0648   28.3536 C   0  0  0  0  0  0
   -4.0965   47.3383   26.9321 C   0  0  0  0  0  0
   -4.1534   48.6342   26.4190 C   0  0  0  0  0  0
   -3.7023   48.8922   25.1278 C   0  0  0  0  0  0
   -3.1793   47.8536   24.3422 C   0  0  0  0  0  0
   -3.1650   46.5484   24.8506 C   0  0  0  0  0  0
   -3.6136   46.2921   26.1433 C   0  0  0  0  0  0
   -2.6705   48.1130   22.9410 C   0  0  0  0  0  0
   -3.0266   47.3451   22.0420 O   0  0  0  0  0  0
   -1.8562   49.1843   22.7117 N   0  0  0  0  0  0
   -1.0560   49.8251   23.7749 C   0  0  0  0  0  0
    0.4339   49.4778   23.5485 C   0  0  0  0  0  0
    0.9259   49.7192   22.1860 N   0  0  0  0  0  0
    0.0527   49.1511   21.1541 C   0  0  0  0  0  0
   -1.4396   49.5071   21.3340 C   0  0  0  0  0  0
    1.8166   50.7364   21.8893 C   0  0  0  0  0  0
    2.8521   50.4998   20.9799 C   0  0  0  0  0  0
    3.8055   51.4804   20.7295 C   0  0  0  0  0  0
    3.7032   52.7231   21.3504 C   0  0  0  0  0  0
    2.6174   53.0015   22.1905 C   0  0  0  0  0  0
    1.6905   52.0026   22.4732 C   0  0  0  0  0  0
    4.7355   53.6521   21.1320 N   0  0  0  0  0  0
    5.4794   54.3231   22.0621 C   0  0  0  0  0  0
    6.7044   55.3001   21.4998 S   0  0  0  0  0  0
    5.1197   54.0964   23.3625 N   0  0  0  0  0  0
    5.5056   54.5888   24.5601 C   0  0  0  0  0  0
    6.4261   55.3774   24.7835 O   0  0  0  0  0  0
    4.6336   54.0628   25.5803 C   0  0  0  0  0  0
    4.6791   54.4159   26.8792 C   0  0  0  0  0  0
    3.7392   53.8760   27.8783 C   0  0  0  0  0  0
    4.1821   53.6760   29.1842 C   0  0  0  0  0  0
    3.3493   53.0709   30.1213 C   0  0  0  0  0  0
    2.0445   52.6922   29.7702 C   0  0  0  0  0  0
    1.5998   52.9087   28.4689 C   0  0  0  0  0  0
    2.4373   53.4965   27.5266 C   0  0  0  0  0  0
    1.1407   52.0978   30.6263 O   0  0  0  0  0  0
    1.4703   51.9323   32.0009 C   0  0  0  0  0  0
   -5.0632   46.1071   28.4155 H   0  0  0  0  0  0
   -3.6882   47.0407   29.0270 H   0  0  0  0  0  0
   -5.2463   47.8255   28.7043 H   0  0  0  0  0  0
   -4.5286   49.4448   27.0269 H   0  0  0  0  0  0
   -3.7518   49.9038   24.7469 H   0  0  0  0  0  0
   -2.7830   45.7403   24.2449 H   0  0  0  0  0  0
   -3.5676   45.2921   26.5477 H   0  0  0  0  0  0
   -1.3212   49.5206   24.7859 H   0  0  0  0  0  0
   -1.1855   50.9059   23.7085 H   0  0  0  0  0  0
    0.5930   48.4162   23.7367 H   0  0  0  0  0  0
    1.0444   50.0177   24.2728 H   0  0  0  0  0  0
    0.3777   49.4739   20.1630 H   0  0  0  0  0  0
    0.1765   48.0709   21.1939 H   0  0  0  0  0  0
   -1.5604   50.5795   21.1781 H   0  0  0  0  0  0
   -2.0487   49.0144   20.5736 H   0  0  0  0  0  0
    2.9466   49.5315   20.5087 H   0  0  0  0  0  0
    4.6404   51.2625   20.0808 H   0  0  0  0  0  0
    2.5031   53.9774   22.6439 H   0  0  0  0  0  0
    0.8731   52.2134   23.1467 H   0  0  0  0  0  0
    5.0265   53.7583   20.1722 H   0  0  0  0  0  0
    4.3888   53.4053   23.4475 H   0  0  0  0  0  0
    3.8967   53.3362   25.2641 H   0  0  0  0  0  0
    5.4094   55.1337   27.2312 H   0  0  0  0  0  0
    5.1832   53.9671   29.4624 H   0  0  0  0  0  0
    3.7368   52.8970   31.1137 H   0  0  0  0  0  0
    0.6000   52.6117   28.1909 H   0  0  0  0  0  0
    2.0614   53.6438   26.5229 H   0  0  0  0  0  0
    0.6959   51.3486   32.4947 H   0  0  0  0  0  0
    1.5046   52.8971   32.4901 H   0  0  0  0  0  0
    2.4158   51.4100   32.1519 H   0  0  0  0  0  0
  1  2  1  0  0  0
  1 38  1  0  0  0
  1 39  1  0  0  0
  1 40  1  0  0  0
  2  7  2  0  0  0
  2  3  1  0  0  0
  3  4  2  0  0  0
  3 41  1  0  0  0
  4  5  1  0  0  0
  4 42  1  0  0  0
  5  6  2  0  0  0
  5  8  1  0  0  0
  6  7  1  0  0  0
  6 43  1  0  0  0
  7 44  1  0  0  0
  8  9  2  0  0  0
  8 10  1  0  0  0
 10 15  1  0  0  0
 10 11  1  0  0  0
 11 12  1  0  0  0
 11 45  1  0  0  0
 11 46  1  0  0  0
 12 13  1  0  0  0
 12 47  1  0  0  0
 12 48  1  0  0  0
 13 14  1  0  0  0
 13 16  1  0  0  0
 14 15  1  0  0  0
 14 49  1  0  0  0
 14 50  1  0  0  0
 15 51  1  0  0  0
 15 52  1  0  0  0
 16 21  2  0  0  0
 16 17  1  0  0  0
 17 18  2  0  0  0
 17 53  1  0  0  0
 18 19  1  0  0  0
 18 54  1  0  0  0
 19 20  2  0  0  0
 19 22  1  0  0  0
 20 21  1  0  0  0
 20 55  1  0  0  0
 21 56  1  0  0  0
 22 23  1  0  0  0
 22 57  1  0  0  0
 23 24  2  0  0  0
 23 25  1  0  0  0
 25 26  1  0  0  0
 25 58  1  0  0  0
 26 27  2  0  0  0
 26 28  1  0  0  0
 28 29  2  0  0  0
 28 59  1  0  0  0
 29 30  1  0  0  0
 29 60  1  0  0  0
 30 35  2  0  0  0
 30 31  1  0  0  0
 31 32  2  0  0  0
 31 61  1  0  0  0
 32 33  1  0  0  0
 32 62  1  0  0  0
 33 34  2  0  0  0
 33 36  1  0  0  0
 34 35  1  0  0  0
 34 63  1  0  0  0
 35 64  1  0  0  0
 36 37  1  0  0  0
 37 65  1  0  0  0
 37 66  1  0  0  0
 37 67  1  0  0  0
M  END
> <i_i_glide_confnum>
306

> <i_i_glide_lignum>
5379

> <i_i_glide_posenum>
127

> <i_i_glide_rotatable_bonds>
10

> <i_m_Source_File_Index>
1963

> <b_m_subgroup_collapsed>
0

> <r_i_docking_score>
-4.15563

> <r_i_glide_ecoul>
-0.455235

> <r_i_glide_eff_state_penalty>
0

> <r_i_glide_einternal>
11.5142

> <r_i_glide_emodel>
-54.4164

> <r_i_glide_energy>
-48.4629

> <r_i_glide_erotb>
0.697084

> <r_i_glide_esite>
0

> <r_i_glide_evdw>
-48.0076

> <r_i_glide_gscore>
-4.15563

> <r_i_glide_hbond>
0

> <r_i_glide_ligand_efficiency>
-0.112314

> <r_i_glide_ligand_efficiency_ln>
-0.901259

> <r_i_glide_ligand_efficiency_sa>
-0.374256

> <r_i_glide_lipo>
-1.94146

> <r_i_glide_metal>
0

> <r_i_glide_rewards>
-0.442586

> <s_i_glide_gridfile>
wee1_glide-grid

> <s_m_Source_File>
wee1_decoys_glide_SP.sdf

> <s_m_Source_Path>
/Users/zhangxujun/Desktop

> <s_m_entry_id>
2238

> <s_m_entry_name>
wee1_decoys_glide_SP.1963

> <s_m_subgroup_title>
wee1_decoys_glide_SP

> <s_m_subgroupid>
wee1_decoys_glide_SP


$$$$
