@<TRIPOS>MOLECULE
ZINC58278104_4601
51   53    1
SMALL
USER_CHARGES


@<TRIPOS>ATOM
      1 C1          4.5110   54.7612   29.0507 C.3       1 UNK         0.0000 
      2 C2          4.4045   53.7117   27.9254 C.3       1 UNK         0.0000 
      3 C3          2.9828   53.1340   27.8427 C.ar      1 UNK         0.0000 
      4 C4          2.1866   53.2645   26.6940 C.ar      1 UNK         0.0000 
      5 C5          0.9304   52.6688   26.6345 C.ar      1 UNK         0.0000 
      6 C6          0.4385   51.9585   27.7355 C.ar      1 UNK         0.0000 
      7 C7          1.2208   51.8375   28.8815 C.ar      1 UNK         0.0000 
      8 C8          2.4857   52.4140   28.9338 C.ar      1 UNK         0.0000 
      9 N9         -0.7997   51.2967   27.7487 N.am      1 UNK         0.0000 
     10 C10        -1.8995   51.5453   27.0151 C.2       1 UNK         0.0000 
     11 O11        -2.0299   52.4971   26.2448 O.2       1 UNK         0.0000 
     12 N12        -2.8362   50.6150   27.2818 N.am      1 UNK         0.0000 
     13 C13        -4.1714   50.5290   26.8499 C.ar      1 UNK         0.0000 
     14 C14        -4.8595   49.3791   27.2456 C.ar      1 UNK         0.0000 
     15 C15        -6.1910   49.1979   26.8800 C.ar      1 UNK         0.0000 
     16 C16        -6.8352   50.1689   26.1165 C.ar      1 UNK         0.0000 
     17 C17        -6.1611   51.3207   25.7174 C.ar      1 UNK         0.0000 
     18 C18        -4.8306   51.5061   26.0848 C.ar      1 UNK         0.0000 
     19 N19         4.9123   54.1912   26.6342 N.am      1 UNK         0.0000 
     20 C20         6.1829   54.4966   26.3173 C.2       1 UNK         0.0000 
     21 O21         7.1042   54.4943   27.1274 O.2       1 UNK         0.0000 
     22 C22         6.3973   54.8462   24.9342 C.2       1 UNK         0.0000 
     23 C23         5.8003   54.2007   23.9054 C.2       1 UNK         0.0000 
     24 C24         5.9678   54.4967   22.4721 C.ar      1 UNK         0.0000 
     25 C25         7.0076   55.2967   21.9752 C.ar      1 UNK         0.0000 
     26 C26         7.0711   55.5502   20.6032 C.ar      1 UNK         0.0000 
     27 C27         6.1006   55.0089   19.7592 C.ar      1 UNK         0.0000 
     28 C28         5.0939   54.2242   20.3222 C.ar      1 UNK         0.0000 
     29 N29         5.0185   53.9688   21.6533 N.ar      1 UNK         0.0000 
     30 H30         4.3054   54.3248   30.0278 H         1 UNK         0.0000 
     31 H31         5.5060   55.2020   29.1093 H         1 UNK         0.0000 
     32 H32         3.7981   55.5713   28.8967 H         1 UNK         0.0000 
     33 H33         5.0440   52.8646   28.1893 H         1 UNK         0.0000 
     34 H34         2.5282   53.8063   25.8259 H         1 UNK         0.0000 
     35 H35         0.3565   52.7579   25.7244 H         1 UNK         0.0000 
     36 H36         0.8496   51.2967   29.7374 H         1 UNK         0.0000 
     37 H37         3.0819   52.2927   29.8259 H         1 UNK         0.0000 
     38 H38        -0.8802   50.5469   28.4197 H         1 UNK         0.0000 
     39 H39        -2.5218   49.8231   27.8349 H         1 UNK         0.0000 
     40 H40        -4.3631   48.6217   27.8386 H         1 UNK         0.0000 
     41 H41        -6.7210   48.3082   27.1882 H         1 UNK         0.0000 
     42 H42        -7.8681   50.0275   25.8328 H         1 UNK         0.0000 
     43 H43        -6.6689   52.0691   25.1261 H         1 UNK         0.0000 
     44 H44        -4.3407   52.4123   25.7664 H         1 UNK         0.0000 
     45 H45         4.2446   54.1906   25.8809 H         1 UNK         0.0000 
     46 H46         7.0889   55.6590   24.7730 H         1 UNK         0.0000 
     47 H47         5.1338   53.3747   24.1189 H         1 UNK         0.0000 
     48 H48         7.7618   55.7132   22.6250 H         1 UNK         0.0000 
     49 H49         7.8722   56.1488   20.1956 H         1 UNK         0.0000 
     50 H50         6.1309   55.1865   18.6939 H         1 UNK         0.0000 
     51 H51         4.3247   53.7845   19.7025 H         1 UNK         0.0000 
@<TRIPOS>BOND
     1    1    2 1    
     2    1   30 1    
     3    1   31 1    
     4    1   32 1    
     5    2    3 1    
     6    2   19 1    
     7    2   33 1    
     8    3    8 ar   
     9    3    4 ar   
    10    4    5 ar   
    11    4   34 1    
    12    5    6 ar   
    13    5   35 1    
    14    6    7 ar   
    15    6    9 1    
    16    7    8 ar   
    17    7   36 1    
    18    8   37 1    
    19    9   10 am   BACKBONE|DICT|INTERRES
    20    9   38 1    
    21   10   11 2    
    22   10   12 am   BACKBONE|DICT|INTERRES
    23   12   13 1    
    24   12   39 1    
    25   13   18 ar   
    26   13   14 ar   
    27   14   15 ar   
    28   14   40 1    
    29   15   16 ar   
    30   15   41 1    
    31   16   17 ar   
    32   16   42 1    
    33   17   18 ar   
    34   17   43 1    
    35   18   44 1    
    36   19   20 am   BACKBONE|DICT|INTERRES
    37   19   45 1    
    38   20   21 2    
    39   20   22 1    
    40   22   23 2    
    41   22   46 1    
    42   23   24 1    
    43   23   47 1    
    44   24   29 ar   
    45   24   25 ar   
    46   25   26 ar   
    47   25   48 1    
    48   26   27 ar   
    49   26   49 1    
    50   27   28 ar   
    51   27   50 1    
    52   28   29 ar   
    53   28   51 1    
@<TRIPOS>SUBSTRUCTURE
     1 UNK         1 GROUP             0       ****    0 ROOT    
