@<TRIPOS>MOLECULE
ZINC36053266_5960
60   63    1
SMALL
USER_CHARGES


@<TRIPOS>ATOM
      1 C1          4.1710   54.1519   25.9091 C.3       1 UNK         0.0000 
      2 C2          2.8125   53.7897   25.3384 C.ar      1 UNK         0.0000 
      3 C3          2.3275   54.4388   24.2121 C.ar      1 UNK         0.0000 
      4 C4          1.0818   54.0966   23.7040 C.ar      1 UNK         0.0000 
      5 C5          0.3016   53.0912   24.2834 C.ar      1 UNK         0.0000 
      6 C6          0.8204   52.3646   25.3785 C.ar      1 UNK         0.0000 
      7 C7          2.0516   52.7753   25.9113 C.ar      1 UNK         0.0000 
      8 C8          0.1566   51.1166   26.0211 C.3       1 UNK         0.0000 
      9 H9          0.9831   50.4489   26.2705 H         1 UNK         0.0000 
     10 C10        -0.6085   51.4039   27.3494 C.2       1 UNK         0.0000 
     11 C11        -1.9424   51.1172   27.4535 C.2       1 UNK         0.0000 
     12 N12        -2.6754   50.5933   26.4302 N.2       1 UNK         0.0000 
     13 C13        -2.0529   50.1311   25.4178 C.2       1 UNK         0.0000 
     14 N14        -0.6935   50.2757   25.1183 N.pl3     1 UNK         0.0000 
     15 C15        -0.3011   49.6993   23.9136 C.2       1 UNK         0.0000 
     16 C16        -1.3350   49.1124   23.2801 C.2       1 UNK         0.0000 
     17 S17        -2.8695   49.2514   24.1177 S.3       1 UNK         0.0000 
     18 C18         1.0210   49.7628   23.2967 C.2       1 UNK         0.0000 
     19 C19         1.2439   50.0801   22.0031 C.2       1 UNK         0.0000 
     20 O20         0.3991   50.4457   21.1027 O.co2     1 UNK         0.0000 
     21 N21         2.5104   50.0040   21.4613 N.pl3     1 UNK         0.0000 
     22 C22         3.1055   50.7209   20.3269 C.3       1 UNK         0.0000 
     23 C23         3.6585   52.0889   20.6616 C.2       1 UNK         0.0000 
     24 C24         3.8226   52.8157   21.8289 C.2       1 UNK         0.0000 
     25 C25         4.4638   54.0090   21.4935 C.2       1 UNK         0.0000 
     26 C26         4.6552   53.9659   20.1247 C.2       1 UNK         0.0000 
     27 O27         4.1686   52.8027   19.6231 O.3       1 UNK         0.0000 
     28 C28        -2.7993   51.1381   28.7167 C.3       1 UNK         0.0000 
     29 C29         0.1913   51.8921   28.4813 C.2       1 UNK         0.0000 
     30 O30         1.3034   51.4318   28.7555 O.2       1 UNK         0.0000 
     31 O31        -0.3731   52.9449   29.1251 O.3       1 UNK         0.0000 
     32 C32         0.2905   53.6242   30.1898 C.3       1 UNK         0.0000 
     33 C33         1.3846   54.5543   29.6807 C.2       1 UNK         0.0000 
     34 C34         1.5032   55.8533   30.0014 C.2       1 UNK         0.0000 
     35 C35        -1.1138   52.8978   23.7505 C.3       1 UNK         0.0000 
     36 H36         4.8597   54.4377   25.1129 H         1 UNK         0.0000 
     37 H37         4.0837   54.9815   26.6110 H         1 UNK         0.0000 
     38 H38         4.6228   53.3012   26.4216 H         1 UNK         0.0000 
     39 H39         2.8984   55.2268   23.7452 H         1 UNK         0.0000 
     40 H40         0.7044   54.6725   22.8817 H         1 UNK         0.0000 
     41 H41         2.4669   52.2551   26.7600 H         1 UNK         0.0000 
     42 H42        -1.2866   48.6270   22.3169 H         1 UNK         0.0000 
     43 H43         1.8674   49.5045   23.9165 H         1 UNK         0.0000 
     44 H44         3.2066   49.5519   22.0312 H         1 UNK         0.0000 
     45 H45         3.9046   50.1001   19.9277 H         1 UNK         0.0000 
     46 H46         2.3731   50.8012   19.5228 H         1 UNK         0.0000 
     47 H47         3.5080   52.4975   22.8104 H         1 UNK         0.0000 
     48 H48         4.7468   54.8072   22.1628 H         1 UNK         0.0000 
     49 H49         5.0939   54.6451   19.4095 H         1 UNK         0.0000 
     50 H50        -2.2217   51.2966   29.6256 H         1 UNK         0.0000 
     51 H51        -3.5708   51.9012   28.6419 H         1 UNK         0.0000 
     52 H52        -3.2984   50.1759   28.8518 H         1 UNK         0.0000 
     53 H53         0.7166   52.9061   30.8931 H         1 UNK         0.0000 
     54 H54        -0.4589   54.1961   30.7403 H         1 UNK         0.0000 
     55 H55         2.1034   54.1142   29.0040 H         1 UNK         0.0000 
     56 H56         0.8053   56.3343   30.6713 H         1 UNK         0.0000 
     57 H57         2.3026   56.4579   29.5971 H         1 UNK         0.0000 
     58 H58        -1.5200   53.7954   23.2945 H         1 UNK         0.0000 
     59 H59        -1.1586   52.0990   23.0123 H         1 UNK         0.0000 
     60 H60        -1.8020   52.6878   24.5661 H         1 UNK         0.0000 
@<TRIPOS>BOND
     1    1    2 1    
     2    1   36 1    
     3    1   37 1    
     4    1   38 1    
     5    2    7 ar   
     6    2    3 ar   
     7    3    4 ar   
     8    3   39 1    
     9    4    5 ar   
    10    4   40 1    
    11    5    6 ar   
    12    5   35 1    
    13    6    7 ar   
    14    6    8 1    
    15    7   41 1    
    16    8    9 1    
    17    8   14 1    
    18    8   10 1    
    19   10   11 2    
    20   10   29 1    
    21   11   12 1    
    22   11   28 1    
    23   12   13 2    
    24   13   17 1    
    25   13   14 1    
    26   14   15 1    
    27   15   16 2    
    28   15   18 1    
    29   16   17 1    
    30   16   42 1    
    31   18   19 2    
    32   18   43 1    
    33   19   20 1    
    34   19   21 1    
    35   21   22 1    
    36   21   44 1    
    37   22   23 1    
    38   22   45 1    
    39   22   46 1    
    40   23   27 1    
    41   23   24 2    
    42   24   25 1    
    43   24   47 1    
    44   25   26 2    
    45   25   48 1    
    46   26   27 1    
    47   26   49 1    
    48   28   50 1    
    49   28   51 1    
    50   28   52 1    
    51   29   30 2    
    52   29   31 1    
    53   31   32 1    
    54   32   33 1    
    55   32   53 1    
    56   32   54 1    
    57   33   34 2    
    58   33   55 1    
    59   34   56 1    
    60   34   57 1    
    61   35   58 1    
    62   35   59 1    
    63   35   60 1    
@<TRIPOS>SUBSTRUCTURE
     1 UNK         1 GROUP             0       ****    0 ROOT    
