@<TRIPOS>MOLECULE
ZINC39602539_2202
73   77    1
SMALL
USER_CHARGES


@<TRIPOS>ATOM
      1 C1          5.0970   54.8486   28.3939 C.3       1 UNK         0.0000 
      2 C2          4.8394   54.5202   26.9103 C.3       1 UNK         0.0000 
      3 C3          6.1082   53.8634   26.3180 C.3       1 UNK         0.0000 
      4 C4          3.5375   53.6876   26.6107 C.3       1 UNK         0.0000 
      5 H5          3.7342   52.6314   26.7811 H         1 UNK         0.0000 
      6 C6          3.0972   53.7446   25.1145 C.2       1 UNK         0.0000 
      7 O7          3.6939   54.4982   24.3394 O.2       1 UNK         0.0000 
      8 N8          2.1136   52.9242   24.6608 N.am      1 UNK         0.0000 
      9 C9          1.7581   52.8716   23.2390 C.3       1 UNK         0.0000 
     10 C10         0.2766   52.4569   23.2638 C.3       1 UNK         0.0000 
     11 H11        -0.3322   53.3529   23.3842 H         1 UNK         0.0000 
     12 C12         0.1440   51.5522   24.5206 C.3       1 UNK         0.0000 
     13 C13         1.1221   52.2454   25.5022 C.3       1 UNK         0.0000 
     14 C14         0.5709   50.0631   24.2798 C.3       1 UNK         0.0000 
     15 C15         0.4624   49.1956   25.5530 C.3       1 UNK         0.0000 
     16 N16        -0.9838   49.2965   26.0815 N.4       1 UNK         0.0000 
     17 C17        -1.4633   50.7387   26.3330 C.3       1 UNK         0.0000 
     18 C18        -1.3267   51.5027   25.0098 C.3       1 UNK         0.0000 
     19 C19        -0.1033   51.7770   21.9233 C.2       1 UNK         0.0000 
     20 O20         0.7372   51.2214   21.2151 O.2       1 UNK         0.0000 
     21 N21        -1.3974   51.8774   21.5773 N.am      1 UNK         0.0000 
     22 C22        -1.9803   51.3500   20.3490 C.3       1 UNK         0.0000 
     23 H23        -1.8616   52.0081   19.4858 H         1 UNK         0.0000 
     24 C24        -1.8301   49.8875   19.9833 C.3       1 UNK         0.0000 
     25 C25        -3.1605   50.4014   20.4808 C.3       1 UNK         0.0000 
     26 H26        -3.3876   50.0460   21.4869 H         1 UNK         0.0000 
     27 C27        -4.3965   50.5078   19.5945 C.ar      1 UNK         0.0000 
     28 C28        -5.6457   50.1715   20.1252 C.ar      1 UNK         0.0000 
     29 C29        -6.7916   50.2853   19.3425 C.ar      1 UNK         0.0000 
     30 C30        -6.6874   50.7320   18.0276 C.ar      1 UNK         0.0000 
     31 C31        -5.4467   51.0602   17.4857 C.ar      1 UNK         0.0000 
     32 C32        -4.3006   50.9464   18.2685 C.ar      1 UNK         0.0000 
     33 O33         2.4118   54.0981   27.4054 O.3       1 UNK         0.0000 
     34 C34         2.1516   53.5102   28.6335 C.ar      1 UNK         0.0000 
     35 C35         0.9468   53.8635   29.2401 C.ar      1 UNK         0.0000 
     36 C36         0.5988   53.3489   30.4877 C.ar      1 UNK         0.0000 
     37 C37         1.4772   52.4968   31.1494 C.ar      1 UNK         0.0000 
     38 C38         2.6963   52.1547   30.5715 C.ar      1 UNK         0.0000 
     39 C39         3.0169   52.6272   29.3028 C.ar      1 UNK         0.0000 
     40 H40         5.4048   53.9733   28.9647 H         1 UNK         0.0000 
     41 H41         5.9041   55.5727   28.4816 H         1 UNK         0.0000 
     42 H42         4.2253   55.2931   28.8754 H         1 UNK         0.0000 
     43 H43         4.7255   55.4914   26.4257 H         1 UNK         0.0000 
     44 H44         6.3045   52.8969   26.7850 H         1 UNK         0.0000 
     45 H45         6.0243   53.6995   25.2431 H         1 UNK         0.0000 
     46 H46         6.9888   54.4879   26.4726 H         1 UNK         0.0000 
     47 H47         1.8742   53.8124   22.6962 H         1 UNK         0.0000 
     48 H48         2.3559   52.0628   22.8138 H         1 UNK         0.0000 
     49 H49         1.4952   51.6309   26.3198 H         1 UNK         0.0000 
     50 H50         0.5627   53.0470   25.9869 H         1 UNK         0.0000 
     51 H51        -0.0190   49.5990   23.4878 H         1 UNK         0.0000 
     52 H52         1.6022   50.0213   23.9221 H         1 UNK         0.0000 
     53 H53         0.6487   48.1377   25.3561 H         1 UNK         0.0000 
     54 H54         1.1037   49.5097   26.3755 H         1 UNK         0.0000 
     55 H55        -1.6174   48.8325   25.4482 H         1 UNK         0.0000 
     56 H56        -2.4964   50.6577   26.6754 H         1 UNK         0.0000 
     57 H57        -0.8529   51.1376   27.1448 H         1 UNK         0.0000 
     58 H58        -1.6864   52.5190   25.1795 H         1 UNK         0.0000 
     59 H59        -1.9867   51.0855   24.2475 H         1 UNK         0.0000 
     60 H60        -2.0026   52.4384   22.1565 H         1 UNK         0.0000 
     61 H61        -1.7182   49.6144   18.9339 H         1 UNK         0.0000 
     62 H62        -1.2371   49.2407   20.6298 H         1 UNK         0.0000 
     63 H63        -5.7360   49.8315   21.1462 H         1 UNK         0.0000 
     64 H64        -7.7579   50.0303   19.7538 H         1 UNK         0.0000 
     65 H65        -7.5773   50.8210   17.4204 H         1 UNK         0.0000 
     66 H66        -5.3749   51.4012   16.4632 H         1 UNK         0.0000 
     67 H67        -3.3441   51.2028   17.8386 H         1 UNK         0.0000 
     68 H68         0.2864   54.5469   28.7304 H         1 UNK         0.0000 
     69 H69        -0.3385   53.6162   30.9527 H         1 UNK         0.0000 
     70 H70         1.2149   52.1176   32.1289 H         1 UNK         0.0000 
     71 H71         3.3983   51.5354   31.1092 H         1 UNK         0.0000 
     72 H72         3.9603   52.3252   28.8788 H         1 UNK         0.0000 
     73 H73        -1.0762   48.8010   26.9857 H         1 UNK         0.0000 
@<TRIPOS>BOND
     1    1    2 1    
     2    1   40 1    
     3    1   41 1    
     4    1   42 1    
     5    2    3 1    
     6    2    4 1    
     7    2   43 1    
     8    3   44 1    
     9    3   45 1    
    10    3   46 1    
    11    4    5 1    
    12    4    6 1    
    13    4   33 1    
    14    6    7 2    
    15    6    8 am   BACKBONE|DICT|INTERRES
    16    8   13 1    
    17    8    9 1    
    18    9   10 1    
    19    9   47 1    
    20    9   48 1    
    21   10   11 1    
    22   10   12 1    
    23   10   19 1    
    24   12   18 1    
    25   12   13 1    
    26   12   14 1    
    27   13   49 1    
    28   13   50 1    
    29   14   15 1    
    30   14   51 1    
    31   14   52 1    
    32   15   16 1    
    33   15   53 1    
    34   15   54 1    
    35   16   17 1    
    36   16   55 1    
    37   16   73 1    
    38   17   18 1    
    39   17   56 1    
    40   17   57 1    
    41   18   58 1    
    42   18   59 1    
    43   19   20 2    
    44   19   21 am   BACKBONE|DICT|INTERRES
    45   21   22 1    
    46   21   60 1    
    47   22   23 1    
    48   22   25 1    
    49   22   24 1    
    50   24   25 1    
    51   24   61 1    
    52   24   62 1    
    53   25   26 1    
    54   25   27 1    
    55   27   32 ar   
    56   27   28 ar   
    57   28   29 ar   
    58   28   63 1    
    59   29   30 ar   
    60   29   64 1    
    61   30   31 ar   
    62   30   65 1    
    63   31   32 ar   
    64   31   66 1    
    65   32   67 1    
    66   33   34 1    
    67   34   39 ar   
    68   34   35 ar   
    69   35   36 ar   
    70   35   68 1    
    71   36   37 ar   
    72   36   69 1    
    73   37   38 ar   
    74   37   70 1    
    75   38   39 ar   
    76   38   71 1    
    77   39   72 1    
@<TRIPOS>SUBSTRUCTURE
     1 UNK         1 GROUP             0       ****    0 ROOT    
