@<TRIPOS>MOLECULE
ZINC30038387_5495
58   61    1
SMALL
USER_CHARGES


@<TRIPOS>ATOM
      1 C1         -2.8619   51.4025   15.2296 C.ar      1 UNK         0.0000 
      2 C2         -4.0967   50.8048   15.4590 C.ar      1 UNK         0.0000 
      3 C3         -4.5098   50.5372   16.7586 C.ar      1 UNK         0.0000 
      4 C4         -3.6949   50.8591   17.8613 C.ar      1 UNK         0.0000 
      5 C5         -2.4314   51.4429   17.6242 C.ar      1 UNK         0.0000 
      6 C6         -2.0402   51.7264   16.3069 C.ar      1 UNK         0.0000 
      7 C7         -1.5193   51.8035   18.7787 C.2       1 UNK         0.0000 
      8 O8         -1.9951   52.4952   19.6823 O.2       1 UNK         0.0000 
      9 N9         -0.2224   51.3746   18.7786 N.am      1 UNK         0.0000 
     10 C10         0.3103   50.3746   17.8324 C.3       1 UNK         0.0000 
     11 C11         1.5063   51.0308   17.1203 C.3       1 UNK         0.0000 
     12 C12         2.6060   51.4398   18.1175 C.3       1 UNK         0.0000 
     13 C13         2.0189   52.3071   19.2577 C.3       1 UNK         0.0000 
     14 H14         1.7865   53.2963   18.8627 H         1 UNK         0.0000 
     15 C15         0.7029   51.7364   19.8786 C.3       1 UNK         0.0000 
     16 C16         3.0985   52.4866   20.3505 C.2       1 UNK         0.0000 
     17 O17         3.1930   51.6494   21.2527 O.2       1 UNK         0.0000 
     18 N18         3.9029   53.5726   20.2427 N.am      1 UNK         0.0000 
     19 C19         4.8273   54.0484   21.1951 C.ar      1 UNK         0.0000 
     20 C20         5.9039   54.8237   20.7544 C.ar      1 UNK         0.0000 
     21 C21         6.8490   55.2993   21.6713 C.ar      1 UNK         0.0000 
     22 C22         6.6996   55.0487   23.0368 C.ar      1 UNK         0.0000 
     23 C23         5.5813   54.3323   23.4933 C.ar      1 UNK         0.0000 
     24 C24         4.6653   53.8307   22.5689 C.ar      1 UNK         0.0000 
     25 N25         5.2440   54.0971   24.8311 N.am      1 UNK         0.0000 
     26 C26         5.7437   54.6161   25.9671 C.2       1 UNK         0.0000 
     27 O27         6.7541   55.3121   26.0512 O.2       1 UNK         0.0000 
     28 C28         4.9521   54.3148   27.1393 C.2       1 UNK         0.0000 
     29 C29         5.3263   54.4850   28.4724 C.2       1 UNK         0.0000 
     30 C30         4.3036   54.1719   29.3771 C.2       1 UNK         0.0000 
     31 C31         3.1317   53.7775   28.7536 C.2       1 UNK         0.0000 
     32 S32         3.2769   53.8060   27.0315 S.3       1 UNK         0.0000 
     33 O33        -4.0729   50.6218   19.1735 O.3       1 UNK         0.0000 
     34 C34        -5.2404   49.8542   19.4699 C.3       1 UNK         0.0000 
     35 F35        -6.3724   50.4559   19.0904 F         1 UNK         0.0000 
     36 F36        -5.1622   48.6079   18.9932 F         1 UNK         0.0000 
     37 H37        -2.5418   51.6174   14.2210 H         1 UNK         0.0000 
     38 H38        -4.7376   50.5534   14.6243 H         1 UNK         0.0000 
     39 H39        -5.4787   50.0844   16.8890 H         1 UNK         0.0000 
     40 H40        -1.0893   52.1954   16.1064 H         1 UNK         0.0000 
     41 H41        -0.4246   49.9600   17.1432 H         1 UNK         0.0000 
     42 H42         0.6609   49.5226   18.4144 H         1 UNK         0.0000 
     43 H43         1.1800   51.8913   16.5323 H         1 UNK         0.0000 
     44 H44         1.9208   50.3217   16.4022 H         1 UNK         0.0000 
     45 H45         3.3805   51.9711   17.5574 H         1 UNK         0.0000 
     46 H46         2.9983   50.4967   18.5095 H         1 UNK         0.0000 
     47 H47         0.9139   50.8143   20.4293 H         1 UNK         0.0000 
     48 H48         0.2699   52.4706   20.5597 H         1 UNK         0.0000 
     49 H49         3.8279   54.1085   19.3910 H         1 UNK         0.0000 
     50 H50         6.0406   55.0286   19.7025 H         1 UNK         0.0000 
     51 H51         7.7046   55.8603   21.3252 H         1 UNK         0.0000 
     52 H52         7.4393   55.4371   23.7184 H         1 UNK         0.0000 
     53 H53         3.7991   53.2948   22.9266 H         1 UNK         0.0000 
     54 H54         4.4390   53.5049   24.9576 H         1 UNK         0.0000 
     55 H55         6.3025   54.8287   28.7845 H         1 UNK         0.0000 
     56 H56         4.4149   54.2392   30.4484 H         1 UNK         0.0000 
     57 H57         2.1966   53.4894   29.2130 H         1 UNK         0.0000 
     58 H58        -5.3144   49.7542   20.5527 H         1 UNK         0.0000 
@<TRIPOS>BOND
     1    1    6 ar   
     2    1    2 ar   
     3    1   37 1    
     4    2    3 ar   
     5    2   38 1    
     6    3    4 ar   
     7    3   39 1    
     8    4    5 ar   
     9    4   33 1    
    10    5    6 ar   
    11    5    7 1    
    12    6   40 1    
    13    7    8 2    
    14    7    9 am   BACKBONE|DICT|INTERRES
    15    9   15 1    
    16    9   10 1    
    17   10   11 1    
    18   10   41 1    
    19   10   42 1    
    20   11   12 1    
    21   11   43 1    
    22   11   44 1    
    23   12   13 1    
    24   12   45 1    
    25   12   46 1    
    26   13   14 1    
    27   13   15 1    
    28   13   16 1    
    29   15   47 1    
    30   15   48 1    
    31   16   17 2    
    32   16   18 am   BACKBONE|DICT|INTERRES
    33   18   19 1    
    34   18   49 1    
    35   19   24 ar   
    36   19   20 ar   
    37   20   21 ar   
    38   20   50 1    
    39   21   22 ar   
    40   21   51 1    
    41   22   23 ar   
    42   22   52 1    
    43   23   24 ar   
    44   23   25 1    
    45   24   53 1    
    46   25   26 am   BACKBONE|DICT|INTERRES
    47   25   54 1    
    48   26   27 2    
    49   26   28 1    
    50   28   32 1    
    51   28   29 2    
    52   29   30 1    
    53   29   55 1    
    54   30   31 2    
    55   30   56 1    
    56   31   32 1    
    57   31   57 1    
    58   33   34 1    
    59   34   35 1    
    60   34   36 1    
    61   34   58 1    
@<TRIPOS>SUBSTRUCTURE
     1 UNK         1 GROUP             0       ****    0 ROOT    
