ZINC59437518_5317
                    3D
 Schrodinger Suite 2024-2.
 45 48  0  0  1  0            999 V2000
   -0.2195   48.6738   25.8549 C   0  0  0  0  0  0
    0.3044   49.9350   25.1892 C   0  0  0  0  0  0
    0.8524   49.8248   23.9039 C   0  0  0  0  0  0
    1.4253   50.9617   23.3204 C   0  0  0  0  0  0
    1.3504   52.2144   23.9653 C   0  0  0  0  0  0
    0.7205   52.3374   25.2047 C   0  0  0  0  0  0
    0.2915   51.1735   25.8572 C   0  0  0  0  0  0
   -0.0928   51.2623   27.2139 N   0  0  0  0  0  0
    0.6028   51.8506   28.2367 C   0  0  0  0  0  0
   -0.1910   52.0968   29.6805 S   0  0  0  0  0  0
    1.9041   52.1804   27.9496 N   0  0  0  0  0  0
    2.9008   52.7530   28.6675 C   0  0  0  0  0  0
    3.0490   52.6684   29.8901 O   0  0  0  0  0  0
    3.9078   53.4833   27.8109 C   0  0  0  0  0  0
    3.4932   54.1641   26.6558 C   0  0  0  0  0  0
    4.4155   54.7869   25.8307 C   0  0  0  0  0  0
    5.7621   54.7544   26.1644 C   0  0  0  0  0  0
    6.1977   54.1147   27.3253 C   0  0  0  0  0  0
    5.2682   53.4807   28.1492 C   0  0  0  0  0  0
    7.1043   55.6965   24.8814 I   0  0  0  0  0  0
    2.0019   53.1507   23.2288 N   0  0  0  0  0  0
    2.4861   52.4009   22.2088 N   0  0  0  0  0  0
    2.1276   51.0938   22.1646 N   0  0  0  0  0  0
    3.4059   52.9382   21.2742 C   0  0  0  0  0  0
    4.2554   53.9925   21.6458 C   0  0  0  0  0  0
    5.1791   54.4990   20.7369 C   0  0  0  0  0  0
    5.2514   53.9631   19.4541 C   0  0  0  0  0  0
    4.4093   52.9222   19.0742 C   0  0  0  0  0  0
    3.4918   52.4042   19.9810 C   0  0  0  0  0  0
   -0.0867   47.7866   25.2360 H   0  0  0  0  0  0
    0.3037   48.5000   26.7962 H   0  0  0  0  0  0
   -1.2807   48.7752   26.0804 H   0  0  0  0  0  0
    0.9082   48.8678   23.4064 H   0  0  0  0  0  0
    0.6578   53.2960   25.6917 H   0  0  0  0  0  0
   -0.9860   50.8503   27.4504 H   0  0  0  0  0  0
    2.0942   52.1882   26.9590 H   0  0  0  0  0  0
    2.4531   54.2273   26.3827 H   0  0  0  0  0  0
    4.0866   55.2956   24.9371 H   0  0  0  0  0  0
    7.2466   54.1044   27.5859 H   0  0  0  0  0  0
    5.6120   52.9696   29.0367 H   0  0  0  0  0  0
    4.2192   54.4146   22.6396 H   0  0  0  0  0  0
    5.8373   55.3049   21.0250 H   0  0  0  0  0  0
    5.9716   54.3510   18.7481 H   0  0  0  0  0  0
    4.4825   52.4967   18.0830 H   0  0  0  0  0  0
    2.8592   51.5862   19.6652 H   0  0  0  0  0  0
  1  2  1  0  0  0
  1 30  1  0  0  0
  1 31  1  0  0  0
  1 32  1  0  0  0
  2  7  1  0  0  0
  2  3  2  0  0  0
  3  4  1  0  0  0
  3 33  1  0  0  0
  4 23  2  0  0  0
  4  5  1  0  0  0
  5  6  1  0  0  0
  5 21  2  0  0  0
  6  7  2  0  0  0
  6 34  1  0  0  0
  7  8  1  0  0  0
  8  9  1  0  0  0
  8 35  1  0  0  0
  9 10  2  0  0  0
  9 11  1  0  0  0
 11 12  1  0  0  0
 11 36  1  0  0  0
 12 13  2  0  0  0
 12 14  1  0  0  0
 14 19  2  0  0  0
 14 15  1  0  0  0
 15 16  2  0  0  0
 15 37  1  0  0  0
 16 17  1  0  0  0
 16 38  1  0  0  0
 17 18  2  0  0  0
 17 20  1  0  0  0
 18 19  1  0  0  0
 18 39  1  0  0  0
 19 40  1  0  0  0
 21 22  1  0  0  0
 22 23  1  0  0  0
 22 24  1  0  0  0
 24 29  2  0  0  0
 24 25  1  0  0  0
 25 26  2  0  0  0
 25 41  1  0  0  0
 26 27  1  0  0  0
 26 42  1  0  0  0
 27 28  2  0  0  0
 27 43  1  0  0  0
 28 29  1  0  0  0
 28 44  1  0  0  0
 29 45  1  0  0  0
M  END
> <i_i_glide_confnum>
4

> <i_i_glide_lignum>
5318

> <i_i_glide_posenum>
101

> <i_i_glide_rotatable_bonds>
6

> <i_m_Source_File_Index>
4615

> <b_m_subgroup_collapsed>
0

> <r_i_docking_score>
-5.11628

> <r_i_glide_ecoul>
-3.87499

> <r_i_glide_eff_state_penalty>
0

> <r_i_glide_einternal>
5.34678

> <r_i_glide_emodel>
-61.9306

> <r_i_glide_energy>
-51.2775

> <r_i_glide_erotb>
0.389051

> <r_i_glide_esite>
-0.0815896

> <r_i_glide_evdw>
-47.4025

> <r_i_glide_gscore>
-5.11628

> <r_i_glide_hbond>
0

> <r_i_glide_ligand_efficiency>
-0.176423

> <r_i_glide_ligand_efficiency_ln>
-1.1715

> <r_i_glide_ligand_efficiency_sa>
-0.542029

> <r_i_glide_lipo>
-2.26678

> <r_i_glide_metal>
0

> <r_i_glide_rewards>
-0.205586

> <s_i_glide_gridfile>
wee1_glide-grid

> <s_m_Source_File>
wee1_decoys_glide_SP.sdf

> <s_m_Source_Path>
/Users/zhangxujun/Desktop

> <s_m_entry_id>
4890

> <s_m_entry_name>
wee1_decoys_glide_SP.4615

> <s_m_subgroup_title>
wee1_decoys_glide_SP

> <s_m_subgroupid>
wee1_decoys_glide_SP


$$$$
