@<TRIPOS>MOLECULE
ZINC30816146_3267
55   58    1
SMALL
USER_CHARGES


@<TRIPOS>ATOM
      1 C1          6.2790   47.7021   11.6872 C.3       1 UNK         0.0000 
      2 C2          6.2417   49.1943   11.8878 C.2       1 UNK         0.0000 
      3 C3          6.7687   50.2113   11.0925 C.2       1 UNK         0.0000 
      4 C4          6.5646   51.4981   11.5976 C.2       1 UNK         0.0000 
      5 C5          5.8695   51.4892   12.7933 C.2       1 UNK         0.0000 
      6 S6          5.4561   49.8825   13.2817 S.3       1 UNK         0.0000 
      7 S7          5.4878   52.9417   13.7917 S.o2      1 UNK         0.0000 
      8 O8          4.5606   52.5133   14.8451 O.2       1 UNK         0.0000 
      9 O9          5.1474   54.0076   12.8419 O.2       1 UNK         0.0000 
     10 N10         7.1051   53.2261   14.4806 N.pl3     1 UNK         0.0000 
     11 C11         7.8733   54.3604   13.9062 C.3       1 UNK         0.0000 
     12 C12         7.3393   55.7167   14.4284 C.3       1 UNK         0.0000 
     13 C13         7.2670   55.7523   15.9787 C.3       1 UNK         0.0000 
     14 C14         6.5612   54.4819   16.5498 C.3       1 UNK         0.0000 
     15 H15         5.4922   54.5111   16.3317 H         1 UNK         0.0000 
     16 C16         7.2095   53.2007   15.9607 C.3       1 UNK         0.0000 
     17 C17         6.7301   54.4566   18.0821 C.2       1 UNK         0.0000 
     18 O18         7.8657   54.4969   18.5609 O.2       1 UNK         0.0000 
     19 N19         5.6007   54.3815   18.8205 N.am      1 UNK         0.0000 
     20 C20         5.5005   54.3722   20.2234 C.ar      1 UNK         0.0000 
     21 C21         4.4147   53.6974   20.7823 C.ar      1 UNK         0.0000 
     22 C22         4.2786   53.6197   22.1667 C.ar      1 UNK         0.0000 
     23 C23         5.2281   54.2099   23.0049 C.ar      1 UNK         0.0000 
     24 C24         6.3115   54.8974   22.4417 C.ar      1 UNK         0.0000 
     25 C25         6.4257   55.0083   21.0614 C.ar      1 UNK         0.0000 
     26 N26         4.9972   54.0973   24.3876 N.am      1 UNK         0.0000 
     27 C27         5.7209   54.5626   25.4298 C.2       1 UNK         0.0000 
     28 O28         6.7823   55.1853   25.3638 O.2       1 UNK         0.0000 
     29 C29         5.1310   54.2792   26.7097 C.2       1 UNK         0.0000 
     30 C30         5.6263   54.4889   27.9889 C.2       1 UNK         0.0000 
     31 C31         4.6395   54.0742   28.8822 C.2       1 UNK         0.0000 
     32 C32         3.5824   53.6191   28.1127 C.2       1 UNK         0.0000 
     33 O33         3.8782   53.7449   26.7934 O.3       1 UNK         0.0000 
     34 H34         5.2799   47.2971   11.5315 H         1 UNK         0.0000 
     35 H35         6.8857   47.4115   10.8325 H         1 UNK         0.0000 
     36 H36         6.6978   47.2028   12.5608 H         1 UNK         0.0000 
     37 H37         7.2998   50.0263   10.1712 H         1 UNK         0.0000 
     38 H38         6.9202   52.3991   11.1184 H         1 UNK         0.0000 
     39 H39         7.9449   54.2535   12.8233 H         1 UNK         0.0000 
     40 H40         8.8980   54.2710   14.2707 H         1 UNK         0.0000 
     41 H41         6.3543   55.9207   14.0081 H         1 UNK         0.0000 
     42 H42         7.9793   56.5243   14.0706 H         1 UNK         0.0000 
     43 H43         6.7375   56.6646   16.2600 H         1 UNK         0.0000 
     44 H44         8.3115   55.7931   16.2968 H         1 UNK         0.0000 
     45 H45         8.2800   53.2396   16.1748 H         1 UNK         0.0000 
     46 H46         6.8388   52.2413   16.3280 H         1 UNK         0.0000 
     47 H47         4.7432   54.1981   18.3221 H         1 UNK         0.0000 
     48 H48         3.6795   53.2190   20.1502 H         1 UNK         0.0000 
     49 H49         3.4292   53.0935   22.5781 H         1 UNK         0.0000 
     50 H50         7.0679   55.3782   23.0410 H         1 UNK         0.0000 
     51 H51         7.2593   55.5634   20.6591 H         1 UNK         0.0000 
     52 H52         4.1588   53.5971   24.6417 H         1 UNK         0.0000 
     53 H53         6.5960   54.8963   28.2334 H         1 UNK         0.0000 
     54 H54         4.6971   54.1015   29.9596 H         1 UNK         0.0000 
     55 H55         2.6131   53.2028   28.3461 H         1 UNK         0.0000 
@<TRIPOS>BOND
     1    1    2 1    
     2    1   34 1    
     3    1   35 1    
     4    1   36 1    
     5    2    6 1    
     6    2    3 2    
     7    3    4 1    
     8    3   37 1    
     9    4    5 2    
    10    4   38 1    
    11    5    6 1    
    12    5    7 1    
    13    7    8 2    
    14    7    9 2    
    15    7   10 1    
    16   10   16 1    
    17   10   11 1    
    18   11   12 1    
    19   11   39 1    
    20   11   40 1    
    21   12   13 1    
    22   12   41 1    
    23   12   42 1    
    24   13   14 1    
    25   13   43 1    
    26   13   44 1    
    27   14   15 1    
    28   14   16 1    
    29   14   17 1    
    30   16   45 1    
    31   16   46 1    
    32   17   18 2    
    33   17   19 am   BACKBONE|DICT|INTERRES
    34   19   20 1    
    35   19   47 1    
    36   20   25 ar   
    37   20   21 ar   
    38   21   22 ar   
    39   21   48 1    
    40   22   23 ar   
    41   22   49 1    
    42   23   24 ar   
    43   23   26 1    
    44   24   25 ar   
    45   24   50 1    
    46   25   51 1    
    47   26   27 am   BACKBONE|DICT|INTERRES
    48   26   52 1    
    49   27   28 2    
    50   27   29 1    
    51   29   33 1    
    52   29   30 2    
    53   30   31 1    
    54   30   53 1    
    55   31   32 2    
    56   31   54 1    
    57   32   33 1    
    58   32   55 1    
@<TRIPOS>SUBSTRUCTURE
     1 UNK         1 GROUP             0       ****    0 ROOT    
