@<TRIPOS>MOLECULE
ZINC39678317_394
80   84    1
SMALL
USER_CHARGES


@<TRIPOS>ATOM
      1 C1         -2.5463   49.4613   25.9675 C.3       1 UNK         0.0000 
      2 C2         -3.5513   50.6204   25.9708 C.ar      1 UNK         0.0000 
      3 C3         -3.7376   51.4526   24.8411 C.ar      1 UNK         0.0000 
      4 C4         -4.6922   52.4764   24.8869 C.ar      1 UNK         0.0000 
      5 C5         -5.4416   52.7005   26.0360 C.ar      1 UNK         0.0000 
      6 C6         -5.2534   51.8966   27.1529 C.ar      1 UNK         0.0000 
      7 C7         -4.3279   50.8493   27.1275 C.ar      1 UNK         0.0000 
      8 O8         -4.1789   50.0966   28.2744 O.3       1 UNK         0.0000 
      9 C9         -4.9086   48.9586   28.4272 C.2       1 UNK         0.0000 
     10 O10        -5.7193   48.4873   27.6262 O.2       1 UNK         0.0000 
     11 C11        -4.6353   48.2664   29.7522 C.3       1 UNK         0.0000 
     12 C12        -2.9759   51.2576   23.5516 C.2       1 UNK         0.0000 
     13 O13        -3.5727   50.8380   22.5593 O.2       1 UNK         0.0000 
     14 N14        -1.6551   51.5554   23.5406 N.am      1 UNK         0.0000 
     15 C15        -0.9290   52.2110   24.6279 C.3       1 UNK         0.0000 
     16 C16         0.3160   52.7700   23.9115 C.3       1 UNK         0.0000 
     17 H17         0.0607   53.7300   23.4659 H         1 UNK         0.0000 
     18 C18         0.6077   51.7368   22.7891 C.3       1 UNK         0.0000 
     19 C19        -0.8339   51.3977   22.3406 C.3       1 UNK         0.0000 
     20 C20         1.4941   52.3233   21.6666 C.3       1 UNK         0.0000 
     21 C21         1.6062   51.3682   20.4636 C.3       1 UNK         0.0000 
     22 N22         2.2453   50.0476   20.9519 N.4       1 UNK         0.0000 
     23 C23         1.5366   49.4013   22.1681 C.3       1 UNK         0.0000 
     24 C24         1.3593   50.4604   23.2826 C.3       1 UNK         0.0000 
     25 C25         1.4362   53.0226   24.9558 C.2       1 UNK         0.0000 
     26 O26         1.4779   52.3983   26.0156 O.2       1 UNK         0.0000 
     27 N27         2.2122   54.0932   24.7219 N.am      1 UNK         0.0000 
     28 C28         3.0781   54.7386   25.7080 C.3       1 UNK         0.0000 
     29 C29         4.3053   54.0783   26.2450 C.ar      1 UNK         0.0000 
     30 C30         4.2507   53.6576   27.5849 C.ar      1 UNK         0.0000 
     31 C31         5.4039   53.2803   28.2544 C.ar      1 UNK         0.0000 
     32 C32         6.6111   53.2978   27.5834 C.ar      1 UNK         0.0000 
     33 C33         6.6336   53.6966   26.2504 C.ar      1 UNK         0.0000 
     34 C34         5.5146   54.0954   25.5314 C.ar      1 UNK         0.0000 
     35 N35         5.6299   54.4194   24.1662 N.pl3     1 UNK         0.0000 
     36 C36         4.9579   53.5599   23.1742 C.3       1 UNK         0.0000 
     37 C37         4.6077   54.3543   21.8978 C.3       1 UNK         0.0000 
     38 C38         5.8580   54.8938   21.2013 C.3       1 UNK         0.0000 
     39 C39         6.8786   55.4551   22.2045 C.3       1 UNK         0.0000 
     40 C40         6.9494   54.7194   23.5611 C.3       1 UNK         0.0000 
     41 H41        -2.2938   49.1044   24.9693 H         1 UNK         0.0000 
     42 H42        -1.6317   49.7474   26.4825 H         1 UNK         0.0000 
     43 H43        -2.9440   48.5874   26.4815 H         1 UNK         0.0000 
     44 H44        -4.8609   53.1111   24.0303 H         1 UNK         0.0000 
     45 H45        -6.1743   53.4956   26.0561 H         1 UNK         0.0000 
     46 H46        -5.8411   52.0736   28.0420 H         1 UNK         0.0000 
     47 H47        -3.6934   47.7254   29.6911 H         1 UNK         0.0000 
     48 H48        -5.4313   47.5547   29.9779 H         1 UNK         0.0000 
     49 H49        -4.5674   48.9922   30.5615 H         1 UNK         0.0000 
     50 H50        -1.4821   53.0077   25.1275 H         1 UNK         0.0000 
     51 H51        -0.6310   51.4259   25.3259 H         1 UNK         0.0000 
     52 H52        -0.9507   50.4519   21.8110 H         1 UNK         0.0000 
     53 H53        -1.1578   52.1678   21.6391 H         1 UNK         0.0000 
     54 H54         1.0709   53.2639   21.3012 H         1 UNK         0.0000 
     55 H55         2.4704   52.5829   22.0617 H         1 UNK         0.0000 
     56 H56         0.6463   51.1117   20.0118 H         1 UNK         0.0000 
     57 H57         2.2691   51.7600   19.6894 H         1 UNK         0.0000 
     58 H58         2.2840   49.3902   20.1839 H         1 UNK         0.0000 
     59 H59         0.5962   48.9868   21.8032 H         1 UNK         0.0000 
     60 H60         2.1826   48.5785   22.4816 H         1 UNK         0.0000 
     61 H61         2.3216   50.7112   23.7197 H         1 UNK         0.0000 
     62 H62         0.8035   49.9929   24.0992 H         1 UNK         0.0000 
     63 H63         2.1807   54.5203   23.8081 H         1 UNK         0.0000 
     64 H64         3.3878   55.6962   25.3137 H         1 UNK         0.0000 
     65 H65         2.4431   54.8966   26.5829 H         1 UNK         0.0000 
     66 H66         3.3187   53.6535   28.1322 H         1 UNK         0.0000 
     67 H67         5.3520   52.9512   29.2810 H         1 UNK         0.0000 
     68 H68         7.5091   52.9571   28.0722 H         1 UNK         0.0000 
     69 H69         7.5044   53.5805   25.6831 H         1 UNK         0.0000 
     70 H70         5.6056   52.7162   22.9237 H         1 UNK         0.0000 
     71 H71         4.0612   53.1075   23.5789 H         1 UNK         0.0000 
     72 H72         4.0880   53.7131   21.1870 H         1 UNK         0.0000 
     73 H73         3.9036   55.1501   22.1346 H         1 UNK         0.0000 
     74 H74         5.5816   55.6643   20.4799 H         1 UNK         0.0000 
     75 H75         6.3058   54.0965   20.6137 H         1 UNK         0.0000 
     76 H76         6.6925   56.4963   22.3951 H         1 UNK         0.0000 
     77 H77         7.8704   55.4436   21.7486 H         1 UNK         0.0000 
     78 H78         7.4924   55.3748   24.2452 H         1 UNK         0.0000 
     79 H79         7.5442   53.8087   23.4674 H         1 UNK         0.0000 
     80 H80         3.2060   50.2345   21.2011 H         1 UNK         0.0000 
@<TRIPOS>BOND
     1    1    2 1    
     2    1   41 1    
     3    1   42 1    
     4    1   43 1    
     5    2    7 ar   
     6    2    3 ar   
     7    3    4 ar   
     8    3   12 1    
     9    4    5 ar   
    10    4   44 1    
    11    5    6 ar   
    12    5   45 1    
    13    6    7 ar   
    14    6   46 1    
    15    7    8 1    
    16    8    9 1    
    17    9   10 2    
    18    9   11 1    
    19   11   47 1    
    20   11   48 1    
    21   11   49 1    
    22   12   13 2    
    23   12   14 am   BACKBONE|DICT|INTERRES
    24   14   19 1    
    25   14   15 1    
    26   15   16 1    
    27   15   50 1    
    28   15   51 1    
    29   16   17 1    
    30   16   18 1    
    31   16   25 1    
    32   18   24 1    
    33   18   19 1    
    34   18   20 1    
    35   19   52 1    
    36   19   53 1    
    37   20   21 1    
    38   20   54 1    
    39   20   55 1    
    40   21   22 1    
    41   21   56 1    
    42   21   57 1    
    43   22   23 1    
    44   22   58 1    
    45   22   80 1    
    46   23   24 1    
    47   23   59 1    
    48   23   60 1    
    49   24   61 1    
    50   24   62 1    
    51   25   26 2    
    52   25   27 am   BACKBONE|DICT|INTERRES
    53   27   28 1    
    54   27   63 1    
    55   28   29 1    
    56   28   64 1    
    57   28   65 1    
    58   29   34 ar   
    59   29   30 ar   
    60   30   31 ar   
    61   30   66 1    
    62   31   32 ar   
    63   31   67 1    
    64   32   33 ar   
    65   32   68 1    
    66   33   34 ar   
    67   33   69 1    
    68   34   35 1    
    69   35   40 1    
    70   35   36 1    
    71   36   37 1    
    72   36   70 1    
    73   36   71 1    
    74   37   38 1    
    75   37   72 1    
    76   37   73 1    
    77   38   39 1    
    78   38   74 1    
    79   38   75 1    
    80   39   40 1    
    81   39   76 1    
    82   39   77 1    
    83   40   78 1    
    84   40   79 1    
@<TRIPOS>SUBSTRUCTURE
     1 UNK         1 GROUP             0       ****    0 ROOT    
