@<TRIPOS>MOLECULE
ZINC17089212_2605
52   54    1
SMALL
USER_CHARGES


@<TRIPOS>ATOM
      1 C1          4.8642   52.1290   20.5963 C.3       1 UNK         0.0000 
      2 C2          4.9365   53.2954   21.6017 C.3       1 UNK         0.0000 
      3 C3          5.0897   54.6431   20.8796 C.3       1 UNK         0.0000 
      4 C4          3.7585   53.3033   22.5679 C.2       1 UNK         0.0000 
      5 C5          2.4821   52.7560   22.4297 C.2       1 UNK         0.0000 
      6 C6          1.6396   52.8343   23.5640 C.2       1 UNK         0.0000 
      7 C7          2.3343   53.4516   24.6233 C.2       1 UNK         0.0000 
      8 S8          3.8633   54.0963   24.1146 S.3       1 UNK         0.0000 
      9 N9          2.0133   53.6986   25.9489 N.am      1 UNK         0.0000 
     10 C10         1.4145   52.8566   26.8164 C.2       1 UNK         0.0000 
     11 O11         1.1046   51.6977   26.5360 O.2       1 UNK         0.0000 
     12 C12         0.9986   53.4651   28.1860 C.3       1 UNK         0.0000 
     13 H13         0.1167   54.0367   27.9016 H         1 UNK         0.0000 
     14 C14         0.5397   52.3925   29.2168 C.3       1 UNK         0.0000 
     15 C15         0.2052   53.0519   30.5511 C.2       1 UNK         0.0000 
     16 C16         0.5316   54.3183   30.8818 C.2       1 UNK         0.0000 
     17 C17         1.3542   55.2609   30.0026 C.3       1 UNK         0.0000 
     18 C18         2.0016   54.5037   28.8028 C.3       1 UNK         0.0000 
     19 H19         2.2900   55.2779   28.0905 H         1 UNK         0.0000 
     20 C20         3.3636   53.8766   29.2042 C.2       1 UNK         0.0000 
     21 O21         3.5184   53.4735   30.3807 O.co2     1 UNK         0.0000 
     22 C22         0.2375   52.4356   23.5654 C.2       1 UNK         0.0000 
     23 O23        -0.5550   52.9017   24.3824 O.2       1 UNK         0.0000 
     24 N24        -0.0988   51.5703   22.5813 N.am      1 UNK         0.0000 
     25 C25        -1.3464   50.9936   22.2745 C.ar      1 UNK         0.0000 
     26 C26        -2.5045   51.1214   23.0608 C.ar      1 UNK         0.0000 
     27 C27        -3.6853   50.4944   22.6711 C.ar      1 UNK         0.0000 
     28 C28        -3.7165   49.7379   21.5014 C.ar      1 UNK         0.0000 
     29 C29        -2.5746   49.6033   20.7157 C.ar      1 UNK         0.0000 
     30 C30        -1.3917   50.2286   21.1031 C.ar      1 UNK         0.0000 
     31 H31         4.8045   51.1675   21.1077 H         1 UNK         0.0000 
     32 H32         3.9968   52.2118   19.9405 H         1 UNK         0.0000 
     33 H33         5.7432   52.1019   19.9517 H         1 UNK         0.0000 
     34 H34         5.8435   53.1394   22.1864 H         1 UNK         0.0000 
     35 H35         5.2864   55.4495   21.5862 H         1 UNK         0.0000 
     36 H36         5.9176   54.6210   20.1685 H         1 UNK         0.0000 
     37 H37         4.1866   54.8927   20.3201 H         1 UNK         0.0000 
     38 H38         2.1809   52.3031   21.4981 H         1 UNK         0.0000 
     39 H39         2.5070   54.4669   26.3761 H         1 UNK         0.0000 
     40 H40         1.3313   51.6613   29.3934 H         1 UNK         0.0000 
     41 H41        -0.3103   51.8238   28.8385 H         1 UNK         0.0000 
     42 H42        -0.3464   52.4736   31.2813 H         1 UNK         0.0000 
     43 H43         0.2203   54.6714   31.8541 H         1 UNK         0.0000 
     44 H44         0.7044   56.0497   29.6315 H         1 UNK         0.0000 
     45 H45         2.1060   55.7779   30.6001 H         1 UNK         0.0000 
     46 H46         0.6575   51.2779   21.9812 H         1 UNK         0.0000 
     47 H47        -2.5156   51.6834   23.9830 H         1 UNK         0.0000 
     48 H48        -4.5726   50.5872   23.2800 H         1 UNK         0.0000 
     49 H49        -4.6331   49.2488   21.2056 H         1 UNK         0.0000 
     50 H50        -2.6056   49.0112   19.8117 H         1 UNK         0.0000 
     51 H51        -0.5117   50.1116   20.4867 H         1 UNK         0.0000 
     52 O52         4.2038   53.7462   28.2864 O.co2     1 UNK         0.0000 
@<TRIPOS>BOND
     1    1    2 1    
     2    1   31 1    
     3    1   32 1    
     4    1   33 1    
     5    2    3 1    
     6    2    4 1    
     7    2   34 1    
     8    3   35 1    
     9    3   36 1    
    10    3   37 1    
    11    4    8 1    
    12    4    5 2    
    13    5    6 1    
    14    5   38 1    
    15    6    7 2    
    16    6   22 1    
    17    7    8 1    
    18    7    9 am   BACKBONE|DICT|INTERRES
    19    9   10 am   BACKBONE|DICT|INTERRES
    20    9   39 1    
    21   10   11 2    
    22   10   12 1    
    23   12   13 1    
    24   12   18 1    
    25   12   14 1    
    26   14   15 1    
    27   14   40 1    
    28   14   41 1    
    29   15   16 2    
    30   15   42 1    
    31   16   17 1    
    32   16   43 1    
    33   17   18 1    
    34   17   44 1    
    35   17   45 1    
    36   18   19 1    
    37   18   20 1    
    38   20   21 2    
    39   20   52 1    
    40   22   23 2    
    41   22   24 am   BACKBONE|DICT|INTERRES
    42   24   25 1    
    43   24   46 1    
    44   25   30 ar   
    45   25   26 ar   
    46   26   27 ar   
    47   26   47 1    
    48   27   28 ar   
    49   27   48 1    
    50   28   29 ar   
    51   28   49 1    
    52   29   30 ar   
    53   29   50 1    
    54   30   51 1    
@<TRIPOS>SUBSTRUCTURE
     1 UNK         1 GROUP             0       ****    0 ROOT    
