@<TRIPOS>MOLECULE
ZINC20680228_2549
54   57    1
SMALL
USER_CHARGES


@<TRIPOS>ATOM
      1 C1          5.5354   54.0074   23.0562 C.3       1 UNK         0.0000 
      2 C2          4.0997   53.9019   22.5157 C.3       1 UNK         0.0000 
      3 C3          3.9386   52.9441   21.3172 C.3       1 UNK         0.0000 
      4 H4          4.2398   51.9392   21.6189 H         1 UNK         0.0000 
      5 C5          4.7727   53.3503   20.0889 C.3       1 UNK         0.0000 
      6 N6          2.5242   52.8957   20.9151 N.pl3     1 UNK         0.0000 
      7 S7          1.6719   51.3709   20.7124 S.o2      1 UNK         0.0000 
      8 O8          0.5141   51.6413   19.8536 O.2       1 UNK         0.0000 
      9 O9          2.6478   50.3300   20.3742 O.2       1 UNK         0.0000 
     10 C10         0.9992   50.9781   22.3194 C.ar      1 UNK         0.0000 
     11 C11         1.2842   49.7671   22.9513 C.ar      1 UNK         0.0000 
     12 C12         0.7045   49.4799   24.1860 C.ar      1 UNK         0.0000 
     13 C13        -0.1660   50.3881   24.7876 C.ar      1 UNK         0.0000 
     14 C14        -0.4607   51.6157   24.1613 C.ar      1 UNK         0.0000 
     15 C15         0.1384   51.8895   22.9273 C.ar      1 UNK         0.0000 
     16 C16        -1.3969   52.6355   24.8036 C.3       1 UNK         0.0000 
     17 H17        -0.8168   53.5509   24.8815 H         1 UNK         0.0000 
     18 C18        -2.6659   52.8695   24.0052 C.2       1 UNK         0.0000 
     19 C19        -3.7450   52.3627   24.6232 C.2       1 UNK         0.0000 
     20 C20        -3.3772   51.7217   25.9420 C.3       1 UNK         0.0000 
     21 C21        -1.9396   52.2011   26.1793 C.3       1 UNK         0.0000 
     22 H22        -2.0288   53.1009   26.7918 H         1 UNK         0.0000 
     23 C23        -1.0527   51.1941   26.9630 C.3       1 UNK         0.0000 
     24 H24        -1.6853   50.7173   27.7138 H         1 UNK         0.0000 
     25 N25        -0.6316   50.1008   26.0816 N.pl3     1 UNK         0.0000 
     26 C26         0.0612   51.8843   27.7677 C.ar      1 UNK         0.0000 
     27 C27         1.2306   52.3522   27.1552 C.ar      1 UNK         0.0000 
     28 C28         2.2284   52.9602   27.9149 C.ar      1 UNK         0.0000 
     29 C29         2.0586   53.1099   29.2900 C.ar      1 UNK         0.0000 
     30 C30         0.8944   52.6606   29.9092 C.ar      1 UNK         0.0000 
     31 C31        -0.1022   52.0509   29.1493 C.ar      1 UNK         0.0000 
     32 O32         3.0461   53.6968   30.0378 O.3       1 UNK         0.0000 
     33 H33         5.5638   54.5978   23.9729 H         1 UNK         0.0000 
     34 H34         6.2018   54.4900   22.3406 H         1 UNK         0.0000 
     35 H35         5.9429   53.0208   23.2827 H         1 UNK         0.0000 
     36 H36         3.4517   53.5615   23.3259 H         1 UNK         0.0000 
     37 H37         3.7364   54.8959   22.2498 H         1 UNK         0.0000 
     38 H38         5.8384   53.3656   20.3048 H         1 UNK         0.0000 
     39 H39         4.6290   52.6391   19.2728 H         1 UNK         0.0000 
     40 H40         4.4931   54.3385   19.7211 H         1 UNK         0.0000 
     41 H41         2.0864   53.7588   20.5605 H         1 UNK         0.0000 
     42 H42         1.9561   49.0508   22.4993 H         1 UNK         0.0000 
     43 H43         0.9493   48.5517   24.6838 H         1 UNK         0.0000 
     44 H44        -0.0748   52.8237   22.4289 H         1 UNK         0.0000 
     45 H45        -2.6560   53.3636   23.0458 H         1 UNK         0.0000 
     46 H46        -4.7601   52.3765   24.2536 H         1 UNK         0.0000 
     47 H47        -3.4475   50.6344   25.8803 H         1 UNK         0.0000 
     48 H48        -4.0361   52.0484   26.7474 H         1 UNK         0.0000 
     49 H49        -0.4463   49.2244   26.5554 H         1 UNK         0.0000 
     50 H50         1.3795   52.2388   26.0925 H         1 UNK         0.0000 
     51 H51         3.1295   53.3064   27.4300 H         1 UNK         0.0000 
     52 H52         0.7621   52.7722   30.9766 H         1 UNK         0.0000 
     53 H53        -0.9943   51.6904   29.6438 H         1 UNK         0.0000 
     54 H54         3.8068   53.9319   29.5013 H         1 UNK         0.0000 
@<TRIPOS>BOND
     1    1    2 1    
     2    1   33 1    
     3    1   34 1    
     4    1   35 1    
     5    2    3 1    
     6    2   36 1    
     7    2   37 1    
     8    3    4 1    
     9    3    5 1    
    10    3    6 1    
    11    5   38 1    
    12    5   39 1    
    13    5   40 1    
    14    6    7 1    
    15    6   41 1    
    16    7    8 2    
    17    7    9 2    
    18    7   10 1    
    19   10   15 ar   
    20   10   11 ar   
    21   11   12 ar   
    22   11   42 1    
    23   12   13 ar   
    24   12   43 1    
    25   13   25 1    
    26   13   14 ar   
    27   14   15 ar   
    28   14   16 1    
    29   15   44 1    
    30   16   17 1    
    31   16   21 1    
    32   16   18 1    
    33   18   19 2    
    34   18   45 1    
    35   19   20 1    
    36   19   46 1    
    37   20   21 1    
    38   20   47 1    
    39   20   48 1    
    40   21   22 1    
    41   21   23 1    
    42   23   24 1    
    43   23   25 1    
    44   23   26 1    
    45   25   49 1    
    46   26   31 ar   
    47   26   27 ar   
    48   27   28 ar   
    49   27   50 1    
    50   28   29 ar   
    51   28   51 1    
    52   29   30 ar   
    53   29   32 1    
    54   30   31 ar   
    55   30   52 1    
    56   31   53 1    
    57   32   54 1    
@<TRIPOS>SUBSTRUCTURE
     1 UNK         1 GROUP             0       ****    0 ROOT    
