@<TRIPOS>MOLECULE
ZINC34791046_3981
69   72    1
SMALL
USER_CHARGES


@<TRIPOS>ATOM
      1 C1         -1.9298   48.6328   20.3021 C.3       1 UNK         0.0000 
      2 C2         -0.7573   48.1960   21.1978 C.3       1 UNK         0.0000 
      3 N3          0.4221   49.0732   21.0642 N.am      1 UNK         0.0000 
      4 C4          0.5802   50.1062   21.9495 C.2       1 UNK         0.0000 
      5 C5          1.6219   50.9456   21.9366 C.2       1 UNK         0.0000 
      6 C6          2.7490   50.7328   20.9108 C.3       1 UNK         0.0000 
      7 H7          3.5416   50.2147   21.4493 H         1 UNK         0.0000 
      8 N8          2.3058   49.7266   19.9031 N.am      1 UNK         0.0000 
      9 C9          1.3322   48.7921   20.0746 C.2       1 UNK         0.0000 
     10 O10         1.3745   47.7463   19.4249 O.2       1 UNK         0.0000 
     11 C11         3.4065   52.0074   20.3696 C.ar      1 UNK         0.0000 
     12 C12         4.4130   52.6376   21.1082 C.ar      1 UNK         0.0000 
     13 C13         5.0494   53.7709   20.6112 C.ar      1 UNK         0.0000 
     14 C14         4.7098   54.2704   19.3497 C.ar      1 UNK         0.0000 
     15 C15         3.7239   53.6248   18.5968 C.ar      1 UNK         0.0000 
     16 C16         3.0769   52.5000   19.1025 C.ar      1 UNK         0.0000 
     17 C17         5.4062   55.5111   18.7908 C.3       1 UNK         0.0000 
     18 F18         6.3969   55.1268   17.9866 F         1 UNK         0.0000 
     19 F19         4.5562   56.2634   18.0889 F         1 UNK         0.0000 
     20 F20         5.9252   56.2701   19.7596 F         1 UNK         0.0000 
     21 C21         1.4734   51.9404   22.9865 C.2       1 UNK         0.0000 
     22 O22         2.2544   52.8483   23.2723 O.2       1 UNK         0.0000 
     23 N23         0.2958   51.6748   23.6071 N.am      1 UNK         0.0000 
     24 C24        -0.3137   50.4722   23.0879 C.3       1 UNK         0.0000 
     25 C25        -0.1412   52.4438   24.7963 C.3       1 UNK         0.0000 
     26 H26         0.2618   53.4544   24.6948 H         1 UNK         0.0000 
     27 C27        -1.6927   52.5837   24.9760 C.3       1 UNK         0.0000 
     28 C28        -2.3403   53.2944   23.7766 C.3       1 UNK         0.0000 
     29 C29        -2.5060   51.3395   25.4046 C.3       1 UNK         0.0000 
     30 C30         0.4676   51.8616   26.0972 C.2       1 UNK         0.0000 
     31 O31         0.3345   50.6675   26.3706 O.2       1 UNK         0.0000 
     32 N32         1.1447   52.7354   26.8587 N.am      1 UNK         0.0000 
     33 C33         1.8263   52.4275   28.1196 C.3       1 UNK         0.0000 
     34 C34         3.2688   52.9943   28.1130 C.3       1 UNK         0.0000 
     35 C35         3.3079   54.5369   28.0120 C.3       1 UNK         0.0000 
     36 C36         2.4858   55.1966   29.1389 C.3       1 UNK         0.0000 
     37 C37         1.0648   54.6056   29.2608 C.3       1 UNK         0.0000 
     38 C38         1.0910   53.0605   29.3269 C.3       1 UNK         0.0000 
     39 H39        -2.7859   47.9711   20.4366 H         1 UNK         0.0000 
     40 H40        -2.2589   49.6461   20.5411 H         1 UNK         0.0000 
     41 H41        -1.6559   48.5984   19.2456 H         1 UNK         0.0000 
     42 H42        -0.4963   47.1672   20.9385 H         1 UNK         0.0000 
     43 H43        -1.0848   48.1489   22.2378 H         1 UNK         0.0000 
     44 H44         2.9215   49.5662   19.1161 H         1 UNK         0.0000 
     45 H45         4.6924   52.2589   22.0802 H         1 UNK         0.0000 
     46 H46         5.8113   54.2516   21.2076 H         1 UNK         0.0000 
     47 H47         3.4536   53.9917   17.6166 H         1 UNK         0.0000 
     48 H48         2.3243   52.0117   18.5010 H         1 UNK         0.0000 
     49 H49        -0.3483   49.6887   23.8460 H         1 UNK         0.0000 
     50 H50        -1.3323   50.6492   22.7481 H         1 UNK         0.0000 
     51 H51        -1.8246   53.2806   25.8058 H         1 UNK         0.0000 
     52 H52        -2.2187   52.7360   22.8489 H         1 UNK         0.0000 
     53 H53        -3.4090   53.4466   23.9322 H         1 UNK         0.0000 
     54 H54        -1.8904   54.2754   23.6397 H         1 UNK         0.0000 
     55 H55        -2.4197   50.5123   24.7034 H         1 UNK         0.0000 
     56 H56        -2.2095   50.9695   26.3861 H         1 UNK         0.0000 
     57 H57        -3.5663   51.5817   25.4789 H         1 UNK         0.0000 
     58 H58         1.1853   53.6983   26.5615 H         1 UNK         0.0000 
     59 H59         1.8813   51.3443   28.2625 H         1 UNK         0.0000 
     60 H60         3.8282   52.5629   27.2824 H         1 UNK         0.0000 
     61 H61         3.7952   52.6750   29.0145 H         1 UNK         0.0000 
     62 H62         2.9241   54.8569   27.0419 H         1 UNK         0.0000 
     63 H63         4.3407   54.8859   28.0537 H         1 UNK         0.0000 
     64 H64         2.4291   56.2749   28.9808 H         1 UNK         0.0000 
     65 H65         3.0146   55.0594   30.0816 H         1 UNK         0.0000 
     66 H66         0.4672   54.9184   28.4050 H         1 UNK         0.0000 
     67 H67         0.5677   55.0099   30.1436 H         1 UNK         0.0000 
     68 H68         1.5653   52.7414   30.2561 H         1 UNK         0.0000 
     69 H69         0.0713   52.6749   29.3793 H         1 UNK         0.0000 
@<TRIPOS>BOND
     1    1    2 1    
     2    1   39 1    
     3    1   40 1    
     4    1   41 1    
     5    2    3 1    
     6    2   42 1    
     7    2   43 1    
     8    3    9 am   BACKBONE|DICT|INTERRES
     9    3    4 1    
    10    4   24 1    
    11    4    5 2    
    12    5    6 1    
    13    5   21 1    
    14    6    7 1    
    15    6    8 1    
    16    6   11 1    
    17    8    9 am   BACKBONE|DICT|INTERRES
    18    8   44 1    
    19    9   10 2    
    20   11   16 ar   
    21   11   12 ar   
    22   12   13 ar   
    23   12   45 1    
    24   13   14 ar   
    25   13   46 1    
    26   14   15 ar   
    27   14   17 1    
    28   15   16 ar   
    29   15   47 1    
    30   16   48 1    
    31   17   18 1    
    32   17   19 1    
    33   17   20 1    
    34   21   22 2    
    35   21   23 am   BACKBONE|DICT|INTERRES
    36   23   24 1    
    37   23   25 1    
    38   24   49 1    
    39   24   50 1    
    40   25   26 1    
    41   25   27 1    
    42   25   30 1    
    43   27   28 1    
    44   27   29 1    
    45   27   51 1    
    46   28   52 1    
    47   28   53 1    
    48   28   54 1    
    49   29   55 1    
    50   29   56 1    
    51   29   57 1    
    52   30   31 2    
    53   30   32 am   BACKBONE|DICT|INTERRES
    54   32   33 1    
    55   32   58 1    
    56   33   38 1    
    57   33   34 1    
    58   33   59 1    
    59   34   35 1    
    60   34   60 1    
    61   34   61 1    
    62   35   36 1    
    63   35   62 1    
    64   35   63 1    
    65   36   37 1    
    66   36   64 1    
    67   36   65 1    
    68   37   38 1    
    69   37   66 1    
    70   37   67 1    
    71   38   68 1    
    72   38   69 1    
@<TRIPOS>SUBSTRUCTURE
     1 UNK         1 GROUP             0       ****    0 ROOT    
