@<TRIPOS>MOLECULE
ZINC38688459_3993
58   62    1
SMALL
USER_CHARGES


@<TRIPOS>ATOM
      1 C1          6.6933   54.6470   27.0364 C.3       1 UNK         0.0000 
      2 C2          5.3051   54.3032   26.5429 C.2       1 UNK         0.0000 
      3 C3          4.1801   53.9475   27.3571 C.ar      1 UNK         0.0000 
      4 C4          3.9399   53.8073   28.7346 C.ar      1 UNK         0.0000 
      5 C5          2.6710   53.4086   29.1603 C.ar      1 UNK         0.0000 
      6 C6          1.6447   53.1578   28.2476 C.ar      1 UNK         0.0000 
      7 C7          1.8450   53.2971   26.8725 C.ar      1 UNK         0.0000 
      8 C8          3.1206   53.6954   26.4574 C.ar      1 UNK         0.0000 
      9 O9          3.5225   53.8676   25.1684 O.3       1 UNK         0.0000 
     10 C10         4.8447   54.2145   25.2234 C.2       1 UNK         0.0000 
     11 C11         5.5565   54.4282   23.9621 C.2       1 UNK         0.0000 
     12 O12         6.7044   54.8708   23.9216 O.2       1 UNK         0.0000 
     13 O13         4.8037   54.0530   22.8782 O.3       1 UNK         0.0000 
     14 C14         5.2400   54.2289   21.5751 C.ar      1 UNK         0.0000 
     15 C15         4.9511   53.2300   20.6421 C.ar      1 UNK         0.0000 
     16 C16         5.3405   53.3631   19.3066 C.ar      1 UNK         0.0000 
     17 C17         6.0042   54.5154   18.8565 C.ar      1 UNK         0.0000 
     18 C18         6.2482   55.5333   19.7953 C.ar      1 UNK         0.0000 
     19 C19         5.9045   55.3814   21.1318 C.ar      1 UNK         0.0000 
     20 O20         6.7760   56.7574   19.4249 O.3       1 UNK         0.0000 
     21 C21         6.6266   57.1299   18.1273 C.2       1 UNK         0.0000 
     22 C22         6.4168   56.2591   17.1183 C.2       1 UNK         0.0000 
     23 C23         6.4690   54.7520   17.4055 C.3       1 UNK         0.0000 
     24 H24         7.5321   54.5109   17.4255 H         1 UNK         0.0000 
     25 C25         5.7927   53.8510   16.3614 C.ar      1 UNK         0.0000 
     26 C26         4.4130   53.9671   16.1599 C.ar      1 UNK         0.0000 
     27 C27         3.7591   53.1417   15.2511 C.ar      1 UNK         0.0000 
     28 C28         4.4629   52.1833   14.5276 C.ar      1 UNK         0.0000 
     29 C29         5.8516   52.0876   14.7049 C.ar      1 UNK         0.0000 
     30 C30         6.5295   52.9120   15.6185 C.ar      1 UNK         0.0000 
     31 O31         7.8955   52.8463   15.8321 O.3       1 UNK         0.0000 
     32 C32         8.6846   51.9134   15.1042 C.3       1 UNK         0.0000 
     33 O33         3.7248   51.3847   13.6769 O.3       1 UNK         0.0000 
     34 C34         4.3502   50.2568   13.0760 C.3       1 UNK         0.0000 
     35 C35         6.2251   56.7279   15.7826 C.1       1 UNK         0.0000 
     36 N36         6.0820   57.1247   14.7055 N.1       1 UNK         0.0000 
     37 N37         6.6589   58.4967   18.0592 N.pl3     1 UNK         0.0000 
     38 F38         2.4365   53.2582   30.4816 F         1 UNK         0.0000 
     39 H39         6.7013   54.8970   28.0946 H         1 UNK         0.0000 
     40 H40         7.3819   53.8130   26.9019 H         1 UNK         0.0000 
     41 H41         7.1043   55.5057   26.5084 H         1 UNK         0.0000 
     42 H42         4.7232   53.9924   29.4536 H         1 UNK         0.0000 
     43 H43         0.6791   52.8435   28.6185 H         1 UNK         0.0000 
     44 H44         1.0583   53.0975   26.1599 H         1 UNK         0.0000 
     45 H45         4.4291   52.3368   20.9534 H         1 UNK         0.0000 
     46 H46         5.1229   52.5535   18.6218 H         1 UNK         0.0000 
     47 H47         6.1367   56.1842   21.8091 H         1 UNK         0.0000 
     48 H48         3.8418   54.6906   16.7240 H         1 UNK         0.0000 
     49 H49         2.6912   53.2303   15.1192 H         1 UNK         0.0000 
     50 H50         6.4029   51.3559   14.1396 H         1 UNK         0.0000 
     51 H51         9.7279   52.0146   15.4022 H         1 UNK         0.0000 
     52 H52         8.3805   50.8898   15.3181 H         1 UNK         0.0000 
     53 H53         8.6297   52.0904   14.0290 H         1 UNK         0.0000 
     54 H54         3.6079   49.6927   12.5117 H         1 UNK         0.0000 
     55 H55         4.7715   49.5859   13.8275 H         1 UNK         0.0000 
     56 H56         5.1353   50.5566   12.3806 H         1 UNK         0.0000 
     57 H57         6.5959   58.9723   17.1690 H         1 UNK         0.0000 
     58 H58         6.4241   59.0567   18.8648 H         1 UNK         0.0000 
@<TRIPOS>BOND
     1    1    2 1    
     2    1   39 1    
     3    1   40 1    
     4    1   41 1    
     5    2   10 2    
     6    2    3 1    
     7    3    8 ar   
     8    3    4 ar   
     9    4    5 ar   
    10    4   42 1    
    11    5    6 ar   
    12    5   38 1    
    13    6    7 ar   
    14    6   43 1    
    15    7    8 ar   
    16    7   44 1    
    17    8    9 1    
    18    9   10 1    
    19   10   11 1    
    20   11   12 2    
    21   11   13 1    
    22   13   14 1    
    23   14   19 ar   
    24   14   15 ar   
    25   15   16 ar   
    26   15   45 1    
    27   16   17 ar   
    28   16   46 1    
    29   17   23 1    
    30   17   18 ar   
    31   18   19 ar   
    32   18   20 1    
    33   19   47 1    
    34   20   21 1    
    35   21   22 2    
    36   21   37 1    
    37   22   23 1    
    38   22   35 1    
    39   23   24 1    
    40   23   25 1    
    41   25   30 ar   
    42   25   26 ar   
    43   26   27 ar   
    44   26   48 1    
    45   27   28 ar   
    46   27   49 1    
    47   28   29 ar   
    48   28   33 1    
    49   29   30 ar   
    50   29   50 1    
    51   30   31 1    
    52   31   32 1    
    53   32   51 1    
    54   32   52 1    
    55   32   53 1    
    56   33   34 1    
    57   34   54 1    
    58   34   55 1    
    59   34   56 1    
    60   35   36 3    
    61   37   57 1    
    62   37   58 1    
@<TRIPOS>SUBSTRUCTURE
     1 UNK         1 GROUP             0       ****    0 ROOT    
