@<TRIPOS>MOLECULE
ZINC20600501_5742
72   75    1
SMALL
USER_CHARGES


@<TRIPOS>ATOM
      1 C1          7.9649   49.7234   13.0091 C.3       1 UNK         0.0000 
      2 C2          9.0515   50.6311   13.5927 C.3       1 UNK         0.0000 
      3 O3          8.5465   51.2819   14.7527 O.3       1 UNK         0.0000 
      4 C4          9.2664   52.2480   15.3789 C.2       1 UNK         0.0000 
      5 O5         10.3875   52.5962   14.9999 O.2       1 UNK         0.0000 
      6 N6          8.5655   52.8217   16.4561 N.am      1 UNK         0.0000 
      7 C7          7.2832   52.2591   16.9285 C.3       1 UNK         0.0000 
      8 C8          6.3998   53.3764   17.5345 C.3       1 UNK         0.0000 
      9 N9          7.1258   54.2705   18.4417 N.3       1 UNK         0.0000 
     10 C10         8.3189   54.8543   17.8265 C.3       1 UNK         0.0000 
     11 C11         9.2940   53.7743   17.3119 C.3       1 UNK         0.0000 
     12 C12         6.2459   55.2958   19.0179 C.3       1 UNK         0.0000 
     13 C13         5.9666   54.9923   20.4810 C.ar      1 UNK         0.0000 
     14 C14         6.9315   55.2969   21.4442 C.ar      1 UNK         0.0000 
     15 C15         6.7045   54.9673   22.7768 C.ar      1 UNK         0.0000 
     16 C16         5.5009   54.3807   23.1636 C.ar      1 UNK         0.0000 
     17 C17         4.5267   54.0918   22.1997 C.ar      1 UNK         0.0000 
     18 C18         4.7649   54.3897   20.8590 C.ar      1 UNK         0.0000 
     19 O19         5.3510   54.0962   24.5010 O.3       1 UNK         0.0000 
     20 C20         4.0688   54.2816   25.0972 C.3       1 UNK         0.0000 
     21 C21         4.1587   53.9785   26.6059 C.3       1 UNK         0.0000 
     22 H22         4.2133   52.8943   26.6875 H         1 UNK         0.0000 
     23 C23         5.4255   54.5441   27.2956 C.3       1 UNK         0.0000 
     24 C24         5.4601   54.0739   28.7603 C.3       1 UNK         0.0000 
     25 C25         4.1766   54.4669   29.5148 C.3       1 UNK         0.0000 
     26 N26         3.0352   53.9072   28.7667 N.am      1 UNK         0.0000 
     27 C27         2.9043   54.4507   27.3965 C.3       1 UNK         0.0000 
     28 C28         2.3323   52.8559   29.2867 C.2       1 UNK         0.0000 
     29 O29         2.6196   52.3551   30.3788 O.2       1 UNK         0.0000 
     30 C30         1.1014   52.3343   28.5750 C.ar      1 UNK         0.0000 
     31 C31         1.1049   52.0067   27.2129 C.ar      1 UNK         0.0000 
     32 C32        -0.0579   51.5730   26.5848 C.ar      1 UNK         0.0000 
     33 C33        -1.2413   51.4388   27.3138 C.ar      1 UNK         0.0000 
     34 C34        -1.2327   51.6959   28.6880 C.ar      1 UNK         0.0000 
     35 C35        -0.0707   52.1358   29.3142 C.ar      1 UNK         0.0000 
     36 C36        -2.5204   50.9926   26.6061 C.3       1 UNK         0.0000 
     37 F37        -3.4628   50.5839   27.4584 F         1 UNK         0.0000 
     38 F38        -3.0048   52.0282   25.9188 F         1 UNK         0.0000 
     39 F39        -2.2698   50.0006   25.7484 F         1 UNK         0.0000 
     40 H40         8.2890   49.2976   12.0619 H         1 UNK         0.0000 
     41 H41         7.7315   48.8974   13.6813 H         1 UNK         0.0000 
     42 H42         7.0445   50.2773   12.8249 H         1 UNK         0.0000 
     43 H43         9.3467   51.3722   12.8478 H         1 UNK         0.0000 
     44 H44         9.9396   50.0491   13.8403 H         1 UNK         0.0000 
     45 H45         7.5042   51.5044   17.6838 H         1 UNK         0.0000 
     46 H46         6.7107   51.7634   16.1433 H         1 UNK         0.0000 
     47 H47         5.5521   52.9197   18.0473 H         1 UNK         0.0000 
     48 H48         6.0445   53.9904   16.7048 H         1 UNK         0.0000 
     49 H49         7.9934   55.4589   16.9780 H         1 UNK         0.0000 
     50 H50         8.8397   55.4899   18.5438 H         1 UNK         0.0000 
     51 H51        10.1081   54.2691   16.7792 H         1 UNK         0.0000 
     52 H52         9.7340   53.2361   18.1494 H         1 UNK         0.0000 
     53 H53         5.3030   55.3759   18.4723 H         1 UNK         0.0000 
     54 H54         6.6940   56.2901   18.9661 H         1 UNK         0.0000 
     55 H55         7.8716   55.7449   21.1553 H         1 UNK         0.0000 
     56 H56         7.4636   55.1765   23.5171 H         1 UNK         0.0000 
     57 H57         3.5952   53.6186   22.4694 H         1 UNK         0.0000 
     58 H58         4.0169   54.1467   20.1174 H         1 UNK         0.0000 
     59 H59         3.3311   53.6145   24.6494 H         1 UNK         0.0000 
     60 H60         3.7238   55.2992   24.9332 H         1 UNK         0.0000 
     61 H61         5.4597   55.6379   27.2180 H         1 UNK         0.0000 
     62 H62         6.3267   54.2001   26.7862 H         1 UNK         0.0000 
     63 H63         6.3069   54.5049   29.2808 H         1 UNK         0.0000 
     64 H64         5.6034   52.9919   28.8085 H         1 UNK         0.0000 
     65 H65         4.0585   55.5510   29.5050 H         1 UNK         0.0000 
     66 H66         4.1914   54.1933   30.5691 H         1 UNK         0.0000 
     67 H67         1.9411   54.2623   26.9282 H         1 UNK         0.0000 
     68 H68         2.8975   55.5386   27.4649 H         1 UNK         0.0000 
     69 H69         2.0034   52.0965   26.6222 H         1 UNK         0.0000 
     70 H70        -0.0394   51.3457   25.5280 H         1 UNK         0.0000 
     71 H71        -2.1222   51.5438   29.2812 H         1 UNK         0.0000 
     72 H72        -0.0944   52.3312   30.3786 H         1 UNK         0.0000 
@<TRIPOS>BOND
     1    1    2 1    
     2    1   40 1    
     3    1   41 1    
     4    1   42 1    
     5    2    3 1    
     6    2   43 1    
     7    2   44 1    
     8    3    4 1    
     9    4    5 2    
    10    4    6 am   BACKBONE|DICT|INTERRES
    11    6   11 1    
    12    6    7 1    
    13    7    8 1    
    14    7   45 1    
    15    7   46 1    
    16    8    9 1    
    17    8   47 1    
    18    8   48 1    
    19    9   10 1    
    20    9   12 1    
    21   10   11 1    
    22   10   49 1    
    23   10   50 1    
    24   11   51 1    
    25   11   52 1    
    26   12   13 1    
    27   12   53 1    
    28   12   54 1    
    29   13   18 ar   
    30   13   14 ar   
    31   14   15 ar   
    32   14   55 1    
    33   15   16 ar   
    34   15   56 1    
    35   16   17 ar   
    36   16   19 1    
    37   17   18 ar   
    38   17   57 1    
    39   18   58 1    
    40   19   20 1    
    41   20   21 1    
    42   20   59 1    
    43   20   60 1    
    44   21   22 1    
    45   21   27 1    
    46   21   23 1    
    47   23   24 1    
    48   23   61 1    
    49   23   62 1    
    50   24   25 1    
    51   24   63 1    
    52   24   64 1    
    53   25   26 1    
    54   25   65 1    
    55   25   66 1    
    56   26   27 1    
    57   26   28 am   BACKBONE|DICT|INTERRES
    58   27   67 1    
    59   27   68 1    
    60   28   29 2    
    61   28   30 1    
    62   30   35 ar   
    63   30   31 ar   
    64   31   32 ar   
    65   31   69 1    
    66   32   33 ar   
    67   32   70 1    
    68   33   34 ar   
    69   33   36 1    
    70   34   35 ar   
    71   34   71 1    
    72   35   72 1    
    73   36   37 1    
    74   36   38 1    
    75   36   39 1    
@<TRIPOS>SUBSTRUCTURE
     1 UNK         1 GROUP             0       ****    0 ROOT    
