@<TRIPOS>MOLECULE
ZINC12955759_2853
45   47    1
SMALL
USER_CHARGES


@<TRIPOS>ATOM
      1 C1          6.1140   53.3466   22.8824 C.3       1 UNK         0.0000 
      2 N2          4.7215   53.6968   23.1135 N.pl3     1 UNK         0.0000 
      3 C3          3.6440   53.4077   22.3017 C.ar      1 UNK         0.0000 
      4 C4          2.5522   53.9371   22.9755 C.ar      1 UNK         0.0000 
      5 N5          2.8981   54.4965   24.1167 N.2       1 UNK         0.0000 
      6 C6          4.1983   54.3261   24.2248 C.ar      1 UNK         0.0000 
      7 S7          5.1746   54.8968   25.5944 S.3       1 UNK         0.0000 
      8 C8          4.3013   54.2522   27.0012 C.ar      1 UNK         0.0000 
      9 C9          4.9714   53.5291   27.9995 C.ar      1 UNK         0.0000 
     10 C10         4.2167   52.9909   29.0479 C.ar      1 UNK         0.0000 
     11 C11         2.8332   53.2094   29.1034 C.ar      1 UNK         0.0000 
     12 C12         2.2576   53.9835   28.0948 C.ar      1 UNK         0.0000 
     13 N13         2.9688   54.4966   27.0657 N.ar      1 UNK         0.0000 
     14 C14         1.9570   52.6359   30.2094 C.3       1 UNK         0.0000 
     15 F15         2.6800   52.0967   31.1930 F         1 UNK         0.0000 
     16 F16         1.1829   53.5913   30.7260 F         1 UNK         0.0000 
     17 F17         1.1762   51.6967   29.6815 F         1 UNK         0.0000 
     18 Cl18        6.6874   53.2966   27.9741 Cl        1 UNK         0.0000 
     19 N19         3.7465   52.7249   21.0958 N.am      1 UNK         0.0000 
     20 C20         2.7728   51.9441   20.5780 C.2       1 UNK         0.0000 
     21 O21         1.7001   51.6971   21.1400 O.2       1 UNK         0.0000 
     22 N22         3.1044   51.5009   19.3473 N.am      1 UNK         0.0000 
     23 N23         2.1646   50.8995   18.4758 N.pl3     1 UNK         0.0000 
     24 C24         1.3638   51.6818   17.6247 C.ar      1 UNK         0.0000 
     25 C25         0.9964   51.2149   16.3529 C.ar      1 UNK         0.0000 
     26 C26         0.1954   52.0249   15.5443 C.ar      1 UNK         0.0000 
     27 C27        -0.2243   53.2790   16.0030 C.ar      1 UNK         0.0000 
     28 C28         0.1816   53.6720   17.2814 C.ar      1 UNK         0.0000 
     29 N29         0.9505   52.8961   18.0819 N.ar      1 UNK         0.0000 
     30 C30        -1.1166   54.1694   15.1445 C.3       1 UNK         0.0000 
     31 F31        -0.3682   54.7959   14.2372 F         1 UNK         0.0000 
     32 F32        -1.7521   55.0857   15.8794 F         1 UNK         0.0000 
     33 F33        -2.0347   53.4377   14.5108 F         1 UNK         0.0000 
     34 Cl34        1.4964   49.6671   15.7600 Cl        1 UNK         0.0000 
     35 H35         6.6686   53.3326   23.8199 H         1 UNK         0.0000 
     36 H36         6.1679   52.3533   22.4417 H         1 UNK         0.0000 
     37 H37         6.5563   54.0965   22.2250 H         1 UNK         0.0000 
     38 H38         1.5260   53.9128   22.6381 H         1 UNK         0.0000 
     39 H39         4.7044   52.3983   29.8062 H         1 UNK         0.0000 
     40 H40         1.1967   54.1907   28.0860 H         1 UNK         0.0000 
     41 H41         4.5956   52.8481   20.5653 H         1 UNK         0.0000 
     42 H42         3.9672   51.7517   18.8820 H         1 UNK         0.0000 
     43 H43         2.6198   50.1186   18.0087 H         1 UNK         0.0000 
     44 H44        -0.0975   51.6759   14.5640 H         1 UNK         0.0000 
     45 H45        -0.0993   54.6314   17.6899 H         1 UNK         0.0000 
@<TRIPOS>BOND
     1    1    2 1    
     2    1   35 1    
     3    1   36 1    
     4    1   37 1    
     5    2    6 ar   
     6    2    3 ar   
     7    3    4 ar   
     8    3   19 1    
     9    4    5 ar   
    10    4   38 1    
    11    5    6 ar   
    12    6    7 1    
    13    7    8 1    
    14    8   13 ar   
    15    8    9 ar   
    16    9   10 ar   
    17    9   18 1    
    18   10   11 ar   
    19   10   39 1    
    20   11   12 ar   
    21   11   14 1    
    22   12   13 ar   
    23   12   40 1    
    24   14   15 1    
    25   14   16 1    
    26   14   17 1    
    27   19   20 am   BACKBONE|DICT|INTERRES
    28   19   41 1    
    29   20   21 2    
    30   20   22 am   BACKBONE|DICT|INTERRES
    31   22   23 1    
    32   22   42 1    
    33   23   24 1    
    34   23   43 1    
    35   24   29 ar   
    36   24   25 ar   
    37   25   26 ar   
    38   25   34 1    
    39   26   27 ar   
    40   26   44 1    
    41   27   28 ar   
    42   27   30 1    
    43   28   29 ar   
    44   28   45 1    
    45   30   31 1    
    46   30   32 1    
    47   30   33 1    
@<TRIPOS>SUBSTRUCTURE
     1 UNK         1 GROUP             0       ****    0 ROOT    
