@<TRIPOS>MOLECULE
ZINC49741019_3785
44   47    1
SMALL
USER_CHARGES


@<TRIPOS>ATOM
      1 C1          3.2483   53.7837   24.2752 C.ar      1 UNK         0.0000 
      2 C2          4.0877   54.2450   25.2914 C.ar      1 UNK         0.0000 
      3 C3          3.6740   54.1261   26.6144 C.ar      1 UNK         0.0000 
      4 C4          2.4473   53.5784   26.9385 C.ar      1 UNK         0.0000 
      5 C5          1.6064   53.1080   25.9284 C.ar      1 UNK         0.0000 
      6 C6          2.0077   53.2106   24.5832 C.ar      1 UNK         0.0000 
      7 N7          1.2640   52.6947   23.5102 N.am      1 UNK         0.0000 
      8 C8         -0.0673   52.4958   23.4373 C.2       1 UNK         0.0000 
      9 O9         -0.8777   52.8852   24.2817 O.2       1 UNK         0.0000 
     10 C10        -0.5429   51.7785   22.1606 C.3       1 UNK         0.0000 
     11 C11        -0.3225   50.2549   22.2062 C.3       1 UNK         0.0000 
     12 C12        -1.6658   50.1268   21.4677 C.3       1 UNK         0.0000 
     13 C13        -2.0562   51.4805   22.0858 C.3       1 UNK         0.0000 
     14 C14         2.2859   53.6477   28.4325 C.3       1 UNK         0.0000 
     15 C15         2.0468   52.2540   29.0921 C.3       1 UNK         0.0000 
     16 C16         1.8482   52.3381   30.6269 C.3       1 UNK         0.0000 
     17 C17         0.7009   53.3004   31.0005 C.3       1 UNK         0.0000 
     18 C18         0.8237   54.6858   30.3260 C.3       1 UNK         0.0000 
     19 C19         1.0906   54.5681   28.8078 C.3       1 UNK         0.0000 
     20 C20         3.6337   54.2602   28.8899 C.2       1 UNK         0.0000 
     21 O21         3.9963   54.4958   30.0409 O.2       1 UNK         0.0000 
     22 N22         4.3381   54.4968   27.7713 N.am      1 UNK         0.0000 
     23 H23         3.5773   53.8600   23.2472 H         1 UNK         0.0000 
     24 H24         5.0462   54.6755   25.0393 H         1 UNK         0.0000 
     25 H25         0.6611   52.6544   26.1923 H         1 UNK         0.0000 
     26 H26         1.7972   52.4778   22.6799 H         1 UNK         0.0000 
     27 H27        -0.1510   52.2555   21.2575 H         1 UNK         0.0000 
     28 H28        -0.3602   49.8091   23.2047 H         1 UNK         0.0000 
     29 H29         0.5571   49.8805   21.6778 H         1 UNK         0.0000 
     30 H30        -2.2878   49.2786   21.7579 H         1 UNK         0.0000 
     31 H31        -1.5744   50.1470   20.3793 H         1 UNK         0.0000 
     32 H32        -2.6408   52.1409   21.4478 H         1 UNK         0.0000 
     33 H33        -2.5631   51.3566   23.0460 H         1 UNK         0.0000 
     34 H34         1.1420   51.8117   28.6691 H         1 UNK         0.0000 
     35 H35         2.8377   51.5521   28.8260 H         1 UNK         0.0000 
     36 H36         1.6352   51.3559   31.0364 H         1 UNK         0.0000 
     37 H37         2.7696   52.6400   31.1230 H         1 UNK         0.0000 
     38 H38        -0.2485   52.8466   30.7094 H         1 UNK         0.0000 
     39 H39         0.6500   53.4154   32.0861 H         1 UNK         0.0000 
     40 H40        -0.0927   55.2558   30.4885 H         1 UNK         0.0000 
     41 H41         1.6119   55.2715   30.8042 H         1 UNK         0.0000 
     42 H42         1.1827   55.5544   28.3424 H         1 UNK         0.0000 
     43 H43         0.1827   54.1499   28.3658 H         1 UNK         0.0000 
     44 H44         5.2655   54.8945   27.7967 H         1 UNK         0.0000 
@<TRIPOS>BOND
     1    1    6 ar   
     2    1    2 ar   
     3    1   23 1    
     4    2    3 ar   
     5    2   24 1    
     6    3   22 1    
     7    3    4 ar   
     8    4    5 ar   
     9    4   14 1    
    10    5    6 ar   
    11    5   25 1    
    12    6    7 1    
    13    7    8 am   BACKBONE|DICT|INTERRES
    14    7   26 1    
    15    8    9 2    
    16    8   10 1    
    17   10   13 1    
    18   10   11 1    
    19   10   27 1    
    20   11   12 1    
    21   11   28 1    
    22   11   29 1    
    23   12   13 1    
    24   12   30 1    
    25   12   31 1    
    26   13   32 1    
    27   13   33 1    
    28   14   19 1    
    29   14   15 1    
    30   14   20 1    
    31   15   16 1    
    32   15   34 1    
    33   15   35 1    
    34   16   17 1    
    35   16   36 1    
    36   16   37 1    
    37   17   18 1    
    38   17   38 1    
    39   17   39 1    
    40   18   19 1    
    41   18   40 1    
    42   18   41 1    
    43   19   42 1    
    44   19   43 1    
    45   20   21 2    
    46   20   22 am   BACKBONE|DICT|INTERRES
    47   22   44 1    
@<TRIPOS>SUBSTRUCTURE
     1 UNK         1 GROUP             0       ****    0 ROOT    
