ZINC15023235_5300
                    3D
 Schrodinger Suite 2024-2.
 61 65  0  0  1  0            999 V2000
   -5.2957   43.8190   26.5332 C   0  0  0  0  0  0
   -4.8956   44.4739   25.3314 O   0  0  0  0  0  0
   -4.4943   45.7969   25.3749 C   0  0  0  0  0  0
   -4.5007   46.5668   26.5469 C   0  0  0  0  0  0
   -4.0560   47.8834   26.5339 C   0  0  0  0  0  0
   -3.5830   48.4726   25.3566 C   0  0  0  0  0  0
   -3.6113   47.7129   24.1814 C   0  0  0  0  0  0
   -4.0459   46.3759   24.1784 C   0  0  0  0  0  0
   -4.0328   45.5703   23.0513 O   0  0  0  0  0  0
   -3.5650   46.1006   21.8149 C   0  0  0  0  0  0
   -3.0333   49.9177   25.3339 C   0  0  1  0  0  0
   -3.8585   50.4595   24.8618 H   0  0  0  0  0  0
   -2.7081   50.5875   26.7095 C   0  0  1  0  0  0
   -2.5089   49.8247   27.4487 H   0  0  0  0  0  0
   -1.4585   51.3548   26.5670 N   0  0  0  0  0  0
   -0.5320   51.8691   27.5102 C   0  0  0  0  0  0
   -0.7768   51.8038   28.8844 C   0  0  0  0  0  0
    0.1651   52.2631   29.8056 C   0  0  0  0  0  0
    1.3805   52.7797   29.3603 C   0  0  0  0  0  0
    1.6518   52.8390   27.9949 C   0  0  0  0  0  0
    0.7081   52.3827   27.0659 C   0  0  0  0  0  0
    1.0175   52.4433   25.6319 C   0  0  0  0  0  0
    0.1274   52.0543   24.7082 C   0  0  0  0  0  0
   -1.2507   51.5361   25.1187 C   0  0  1  0  0  0
   -1.9443   52.3277   24.8281 H   0  0  0  0  0  0
   -1.7657   50.2259   24.4710 C   0  0  2  0  0  0
   -2.1342   50.4907   23.0642 C   0  0  0  0  0  0
   -2.4298   50.7039   21.9647 N   0  0  0  0  0  0
   -0.6834   49.0934   24.5198 C   0  0  0  0  0  0
   -0.0934   48.7431   23.5013 O   0  0  0  0  0  0
   -0.4120   48.4973   25.6819 N   0  0  0  0  0  0
    2.2995   53.2136   30.2524 F   0  0  0  0  0  0
   -3.8572   51.5234   27.1795 C   0  0  0  0  0  0
   -4.1441   52.5020   26.4820 O   0  0  0  0  0  0
   -4.6592   51.1478   28.3950 C   0  0  0  0  0  0
   -4.1508   50.3156   29.4051 C   0  0  0  0  0  0
   -4.8977   50.0477   30.5462 C   0  0  0  0  0  0
   -6.1653   50.6026   30.6918 C   0  0  0  0  0  0
   -6.6918   51.4256   29.7004 C   0  0  0  0  0  0
   -5.9418   51.6968   28.5602 C   0  0  0  0  0  0
   -5.5452   42.7791   26.3187 H   0  0  0  0  0  0
   -6.1827   44.2860   26.9661 H   0  0  0  0  0  0
   -4.4957   43.8160   27.2777 H   0  0  0  0  0  0
   -4.8326   46.1572   27.4872 H   0  0  0  0  0  0
   -4.0645   48.4215   27.4655 H   0  0  0  0  0  0
   -3.2625   48.1659   23.2682 H   0  0  0  0  0  0
   -3.6290   45.3294   21.0459 H   0  0  0  0  0  0
   -4.1705   46.9455   21.4840 H   0  0  0  0  0  0
   -2.5215   46.4124   21.8799 H   0  0  0  0  0  0
   -1.6985   51.3949   29.2608 H   0  0  0  0  0  0
   -0.0462   52.2086   30.8649 H   0  0  0  0  0  0
    2.6020   53.2328   27.6628 H   0  0  0  0  0  0
    1.9817   52.8056   25.3035 H   0  0  0  0  0  0
    0.3860   52.1180   23.6597 H   0  0  0  0  0  0
   -0.8961   48.7339   26.5466 H   0  0  0  0  0  0
    0.2854   47.7659   25.7312 H   0  0  0  0  0  0
   -3.1778   49.8595   29.3473 H   0  0  0  0  0  0
   -4.4833   49.4117   31.3151 H   0  0  0  0  0  0
   -6.7442   50.3932   31.5797 H   0  0  0  0  0  0
   -7.6774   51.8523   29.8183 H   0  0  0  0  0  0
   -6.3660   52.3464   27.8063 H   0  0  0  0  0  0
  1  2  1  0  0  0
  1 41  1  0  0  0
  1 42  1  0  0  0
  1 43  1  0  0  0
  2  3  1  0  0  0
  3  8  2  0  0  0
  3  4  1  0  0  0
  4  5  2  0  0  0
  4 44  1  0  0  0
  5  6  1  0  0  0
  5 45  1  0  0  0
  6  7  2  0  0  0
  6 11  1  0  0  0
  7  8  1  0  0  0
  7 46  1  0  0  0
  8  9  1  0  0  0
  9 10  1  0  0  0
 10 47  1  0  0  0
 10 48  1  0  0  0
 10 49  1  0  0  0
 11 12  1  0  0  0
 11 26  1  0  0  0
 11 13  1  0  0  0
 13 14  1  0  0  0
 13 15  1  0  0  0
 13 33  1  0  0  0
 15 24  1  0  0  0
 15 16  1  0  0  0
 16 21  2  0  0  0
 16 17  1  0  0  0
 17 18  2  0  0  0
 17 50  1  0  0  0
 18 19  1  0  0  0
 18 51  1  0  0  0
 19 20  2  0  0  0
 19 32  1  0  0  0
 20 21  1  0  0  0
 20 52  1  0  0  0
 21 22  1  0  0  0
 22 23  2  0  0  0
 22 53  1  0  0  0
 23 24  1  0  0  0
 23 54  1  0  0  0
 24 25  1  0  0  0
 24 26  1  0  0  0
 26 27  1  0  0  0
 26 29  1  0  0  0
 27 28  3  0  0  0
 29 30  2  0  0  0
 29 31  1  0  0  0
 31 55  1  0  0  0
 31 56  1  0  0  0
 33 34  2  0  0  0
 33 35  1  0  0  0
 35 40  2  0  0  0
 35 36  1  0  0  0
 36 37  2  0  0  0
 36 57  1  0  0  0
 37 38  1  0  0  0
 37 58  1  0  0  0
 38 39  2  0  0  0
 38 59  1  0  0  0
 39 40  1  0  0  0
 39 60  1  0  0  0
 40 61  1  0  0  0
M  END
> <i_i_glide_confnum>
2

> <i_i_glide_lignum>
5301

> <i_i_glide_posenum>
358

> <i_i_glide_rotatable_bonds>
7

> <i_m_Source_File_Index>
994

> <b_m_subgroup_collapsed>
0

> <r_i_docking_score>
-4.59147

> <r_i_glide_ecoul>
-12.5171

> <r_i_glide_eff_state_penalty>
0

> <r_i_glide_einternal>
5.91212

> <r_i_glide_emodel>
-56.108

> <r_i_glide_energy>
-44.9581

> <r_i_glide_erotb>
0.247246

> <r_i_glide_esite>
-0.214918

> <r_i_glide_evdw>
-32.441

> <r_i_glide_gscore>
-4.59147

> <r_i_glide_hbond>
-0.533557

> <r_i_glide_ligand_efficiency>
-0.124094

> <r_i_glide_ligand_efficiency_ln>
-0.995783

> <r_i_glide_ligand_efficiency_sa>
-0.413508

> <r_i_glide_lipo>
-0.542322

> <r_i_glide_metal>
0

> <r_i_glide_rewards>
-0.0483062

> <s_i_glide_gridfile>
wee1_glide-grid

> <s_m_Source_File>
wee1_decoys_glide_SP.sdf

> <s_m_Source_Path>
/Users/zhangxujun/Desktop

> <s_m_entry_id>
1269

> <s_m_entry_name>
wee1_decoys_glide_SP.994

> <s_m_subgroup_title>
wee1_decoys_glide_SP

> <s_m_subgroupid>
wee1_decoys_glide_SP


$$$$
