@<TRIPOS>MOLECULE
ZINC35867013_5599
71   75    1
SMALL
USER_CHARGES


@<TRIPOS>ATOM
      1 C1         -3.6931   52.5077   25.1435 C.3       1 UNK         0.0000 
      2 C2         -3.8002   51.7552   26.4834 C.3       1 UNK         0.0000 
      3 C3         -2.6948   50.7043   26.7657 C.3       1 UNK         0.0000 
      4 H4         -2.9143   50.2753   27.7463 H         1 UNK         0.0000 
      5 C5         -2.7540   49.5070   25.7912 C.3       1 UNK         0.0000 
      6 C6         -1.3026   51.3372   26.8706 C.ar      1 UNK         0.0000 
      7 N7         -0.6061   51.4948   25.7212 N.ar      1 UNK         0.0000 
      8 C8          0.6207   52.0788   25.7853 C.ar      1 UNK         0.0000 
      9 C9          1.1629   52.4969   27.0390 C.ar      1 UNK         0.0000 
     10 C10         2.4129   53.0816   27.4589 C.2       1 UNK         0.0000 
     11 C11         2.4828   53.1995   28.8528 C.2       1 UNK         0.0000 
     12 S12         1.0326   52.7091   29.6862 S.3       1 UNK         0.0000 
     13 C13         0.3124   52.2511   28.1642 C.ar      1 UNK         0.0000 
     14 N14        -0.9012   51.7009   28.1111 N.ar      1 UNK         0.0000 
     15 C15         3.7185   53.6238   29.6356 C.3       1 UNK         0.0000 
     16 C16         4.7391   54.2854   28.6931 C.3       1 UNK         0.0000 
     17 C17         4.8906   53.5217   27.3721 C.3       1 UNK         0.0000 
     18 C18         3.5742   53.5256   26.5669 C.3       1 UNK         0.0000 
     19 N19         1.2742   52.2440   24.5626 N.pl3     1 UNK         0.0000 
     20 C20         1.2972   53.6103   24.0041 C.3       1 UNK         0.0000 
     21 C21         1.6914   53.7769   22.5102 C.3       1 UNK         0.0000 
     22 N22         2.5857   52.6774   22.0956 N.am      1 UNK         0.0000 
     23 C23         2.1081   51.3043   22.3512 C.3       1 UNK         0.0000 
     24 C24         1.0473   51.2682   23.4810 C.3       1 UNK         0.0000 
     25 C25         3.8483   52.8815   21.6310 C.2       1 UNK         0.0000 
     26 O26         4.7353   52.0250   21.6812 O.2       1 UNK         0.0000 
     27 N27         4.0573   54.1047   21.1006 N.am      1 UNK         0.0000 
     28 C28         5.2998   54.6431   20.7484 C.ar      1 UNK         0.0000 
     29 C29         5.5119   54.9575   19.4062 C.ar      1 UNK         0.0000 
     30 C30         6.7280   55.5003   19.0020 C.ar      1 UNK         0.0000 
     31 C31         7.7372   55.7613   19.9387 C.ar      1 UNK         0.0000 
     32 C32         7.5021   55.4757   21.2830 C.ar      1 UNK         0.0000 
     33 C33         6.2950   54.8963   21.7075 C.ar      1 UNK         0.0000 
     34 O34         6.0256   54.5583   23.0203 O.3       1 UNK         0.0000 
     35 C35         7.1006   54.4446   23.9368 C.3       1 UNK         0.0000 
     36 O36         8.9724   56.2933   19.6305 O.3       1 UNK         0.0000 
     37 C37         9.3160   56.5160   18.2675 C.3       1 UNK         0.0000 
     38 H38        -4.5291   53.1989   25.0211 H         1 UNK         0.0000 
     39 H39        -2.7785   53.0967   25.0852 H         1 UNK         0.0000 
     40 H40        -3.7082   51.8275   24.2926 H         1 UNK         0.0000 
     41 H41        -4.7741   51.2657   26.5350 H         1 UNK         0.0000 
     42 H42        -3.8043   52.4905   27.2876 H         1 UNK         0.0000 
     43 H43        -2.0189   48.7484   26.0643 H         1 UNK         0.0000 
     44 H44        -3.7317   49.0278   25.8132 H         1 UNK         0.0000 
     45 H45        -2.5536   49.8039   24.7633 H         1 UNK         0.0000 
     46 H46         4.1755   52.7463   30.0961 H         1 UNK         0.0000 
     47 H47         3.4622   54.3141   30.4389 H         1 UNK         0.0000 
     48 H48         5.7044   54.3858   29.1931 H         1 UNK         0.0000 
     49 H49         4.4096   55.2968   28.4728 H         1 UNK         0.0000 
     50 H50         5.2092   52.4990   27.5691 H         1 UNK         0.0000 
     51 H51         5.6833   53.9770   26.7841 H         1 UNK         0.0000 
     52 H52         3.3910   54.5362   26.2038 H         1 UNK         0.0000 
     53 H53         3.6861   52.8965   25.6867 H         1 UNK         0.0000 
     54 H54         0.3335   54.0950   24.1665 H         1 UNK         0.0000 
     55 H55         2.0611   54.1410   24.5672 H         1 UNK         0.0000 
     56 H56         0.8002   53.6584   21.8988 H         1 UNK         0.0000 
     57 H57         2.0618   54.7843   22.3279 H         1 UNK         0.0000 
     58 H58         2.9453   50.7118   22.7216 H         1 UNK         0.0000 
     59 H59         1.7283   50.8279   21.4465 H         1 UNK         0.0000 
     60 H60         0.9730   50.2585   23.8850 H         1 UNK         0.0000 
     61 H61         0.0800   51.5273   23.0437 H         1 UNK         0.0000 
     62 H62         3.2504   54.6880   20.9406 H         1 UNK         0.0000 
     63 H63         4.7423   54.7635   18.6709 H         1 UNK         0.0000 
     64 H64         6.8700   55.7101   17.9522 H         1 UNK         0.0000 
     65 H65         8.2893   55.6960   21.9906 H         1 UNK         0.0000 
     66 H66         6.7452   53.9724   24.8482 H         1 UNK         0.0000 
     67 H67         7.9031   53.8098   23.5469 H         1 UNK         0.0000 
     68 H68         7.4923   55.4263   24.2011 H         1 UNK         0.0000 
     69 H69        10.3318   56.9046   18.2125 H         1 UNK         0.0000 
     70 H70         9.2866   55.5883   17.6931 H         1 UNK         0.0000 
     71 H71         8.6550   57.2470   17.8015 H         1 UNK         0.0000 
@<TRIPOS>BOND
     1    1    2 1    
     2    1   38 1    
     3    1   39 1    
     4    1   40 1    
     5    2    3 1    
     6    2   41 1    
     7    2   42 1    
     8    3    4 1    
     9    3    5 1    
    10    3    6 1    
    11    5   43 1    
    12    5   44 1    
    13    5   45 1    
    14    6   14 ar   
    15    6    7 ar   
    16    7    8 ar   
    17    8    9 ar   
    18    8   19 1    
    19    9   13 ar   
    20    9   10 1    
    21   10   18 1    
    22   10   11 2    
    23   11   12 1    
    24   11   15 1    
    25   12   13 1    
    26   13   14 ar   
    27   15   16 1    
    28   15   46 1    
    29   15   47 1    
    30   16   17 1    
    31   16   48 1    
    32   16   49 1    
    33   17   18 1    
    34   17   50 1    
    35   17   51 1    
    36   18   52 1    
    37   18   53 1    
    38   19   24 1    
    39   19   20 1    
    40   20   21 1    
    41   20   54 1    
    42   20   55 1    
    43   21   22 1    
    44   21   56 1    
    45   21   57 1    
    46   22   23 1    
    47   22   25 am   BACKBONE|DICT|INTERRES
    48   23   24 1    
    49   23   58 1    
    50   23   59 1    
    51   24   60 1    
    52   24   61 1    
    53   25   26 2    
    54   25   27 am   BACKBONE|DICT|INTERRES
    55   27   28 1    
    56   27   62 1    
    57   28   33 ar   
    58   28   29 ar   
    59   29   30 ar   
    60   29   63 1    
    61   30   31 ar   
    62   30   64 1    
    63   31   32 ar   
    64   31   36 1    
    65   32   33 ar   
    66   32   65 1    
    67   33   34 1    
    68   34   35 1    
    69   35   66 1    
    70   35   67 1    
    71   35   68 1    
    72   36   37 1    
    73   37   69 1    
    74   37   70 1    
    75   37   71 1    
@<TRIPOS>SUBSTRUCTURE
     1 UNK         1 GROUP             0       ****    0 ROOT    
