@<TRIPOS>MOLECULE
ZINC34699372_4844
70   73    1
SMALL
USER_CHARGES


@<TRIPOS>ATOM
      1 C1          1.8607   52.9907   27.5898 C.3       1 UNK         0.0000 
      2 C2          0.5949   52.3005   27.0743 C.2       1 UNK         0.0000 
      3 O3         -0.3023   52.1350   27.8998 O.2       1 UNK         0.0000 
      4 N4          0.4864   51.8957   25.7737 N.am      1 UNK         0.0000 
      5 C5         -0.6753   51.0824   25.3488 C.3       1 UNK         0.0000 
      6 C6         -2.0445   51.7585   25.4203 C.ar      1 UNK         0.0000 
      7 C7         -2.9522   51.3600   26.4074 C.ar      1 UNK         0.0000 
      8 C8         -4.2130   51.9482   26.4737 C.ar      1 UNK         0.0000 
      9 C9         -4.5722   52.9189   25.5419 C.ar      1 UNK         0.0000 
     10 C10        -3.6855   53.2972   24.5370 C.ar      1 UNK         0.0000 
     11 C11        -2.4195   52.7192   24.4765 C.ar      1 UNK         0.0000 
     12 F12        -5.7896   53.5025   25.6135 F         1 UNK         0.0000 
     13 C13         1.5769   51.9955   24.7747 C.3       1 UNK         0.0000 
     14 C14         1.2702   52.8612   23.5142 C.3       1 UNK         0.0000 
     15 H15         0.5195   53.6045   23.7889 H         1 UNK         0.0000 
     16 C16         0.6920   51.9732   22.3835 C.3       1 UNK         0.0000 
     17 N17         1.2928   52.4967   21.0704 N.4       1 UNK         0.0000 
     18 C18         2.6867   52.9825   21.4891 C.3       1 UNK         0.0000 
     19 C19         2.4706   53.6283   22.8592 C.3       1 UNK         0.0000 
     20 H20         2.0940   54.6263   22.6221 H         1 UNK         0.0000 
     21 C21         3.7287   53.9780   23.6752 C.ar      1 UNK         0.0000 
     22 C22         5.0271   53.8218   23.1663 C.ar      1 UNK         0.0000 
     23 C23         6.1366   54.0966   23.9692 C.ar      1 UNK         0.0000 
     24 C24         5.9684   54.4980   25.2948 C.ar      1 UNK         0.0000 
     25 C25         4.6724   54.7333   25.7721 C.ar      1 UNK         0.0000 
     26 C26         3.5731   54.4965   24.9575 C.ar      1 UNK         0.0000 
     27 O27         7.1017   54.6290   26.0761 O.3       1 UNK         0.0000 
     28 C28         6.9364   54.4989   27.4882 C.3       1 UNK         0.0000 
     29 C29         1.2657   51.4857   19.9041 C.3       1 UNK         0.0000 
     30 C30         1.5232   52.1192   18.5417 C.ar      1 UNK         0.0000 
     31 C31         0.4452   52.4025   17.6976 C.ar      1 UNK         0.0000 
     32 C32         0.6630   52.9425   16.4304 C.ar      1 UNK         0.0000 
     33 C33         1.9675   53.1947   15.9769 C.ar      1 UNK         0.0000 
     34 C34         3.0385   52.8968   16.8182 C.ar      1 UNK         0.0000 
     35 C35         2.8246   52.3687   18.0887 C.ar      1 UNK         0.0000 
     36 O36         3.9044   52.0967   18.8821 O.3       1 UNK         0.0000 
     37 O37         2.2791   53.7232   14.7402 O.3       1 UNK         0.0000 
     38 C38         1.2277   54.0511   13.8386 C.3       1 UNK         0.0000 
     39 H39         1.8704   54.0361   27.2909 H         1 UNK         0.0000 
     40 H40         1.8649   52.9728   28.6799 H         1 UNK         0.0000 
     41 H41         2.7774   52.4977   27.2704 H         1 UNK         0.0000 
     42 H42        -0.7043   50.1925   25.9823 H         1 UNK         0.0000 
     43 H43        -0.5383   50.6977   24.3396 H         1 UNK         0.0000 
     44 H44        -2.6738   50.6071   27.1341 H         1 UNK         0.0000 
     45 H45        -4.9085   51.6531   27.2455 H         1 UNK         0.0000 
     46 H46        -3.9761   54.0502   23.8198 H         1 UNK         0.0000 
     47 H47        -1.7361   53.0325   23.7050 H         1 UNK         0.0000 
     48 H48         2.4839   52.3534   25.2427 H         1 UNK         0.0000 
     49 H49         1.8164   50.9737   24.4776 H         1 UNK         0.0000 
     50 H50         1.0109   50.9301   22.4494 H         1 UNK         0.0000 
     51 H51        -0.3909   51.9975   22.2648 H         1 UNK         0.0000 
     52 H52         3.0929   53.6602   20.7354 H         1 UNK         0.0000 
     53 H53         3.3550   52.1195   21.5242 H         1 UNK         0.0000 
     54 H54         5.1955   53.4698   22.1597 H         1 UNK         0.0000 
     55 H55         7.1339   53.9439   23.5820 H         1 UNK         0.0000 
     56 H56         4.4971   55.0855   26.7759 H         1 UNK         0.0000 
     57 H57         2.5813   54.6631   25.3353 H         1 UNK         0.0000 
     58 H58         7.9043   54.4958   27.9805 H         1 UNK         0.0000 
     59 H59         6.3656   55.3280   27.9083 H         1 UNK         0.0000 
     60 H60         6.4399   53.5620   27.7472 H         1 UNK         0.0000 
     61 H61         1.9882   50.7015   20.1415 H         1 UNK         0.0000 
     62 H62         0.2654   51.0505   19.9455 H         1 UNK         0.0000 
     63 H63        -0.5682   52.2045   18.0149 H         1 UNK         0.0000 
     64 H64        -0.1930   53.1515   15.8085 H         1 UNK         0.0000 
     65 H65         4.0469   53.0801   16.4781 H         1 UNK         0.0000 
     66 H66         4.5286   51.4386   18.4816 H         1 UNK         0.0000 
     67 H67         1.6549   54.4537   12.9202 H         1 UNK         0.0000 
     68 H68         0.6405   53.1715   13.5699 H         1 UNK         0.0000 
     69 H69         0.5659   54.8124   14.2547 H         1 UNK         0.0000 
     70 H70         0.7914   53.3204   20.7557 H         1 UNK         0.0000 
@<TRIPOS>BOND
     1    1    2 1    
     2    1   39 1    
     3    1   40 1    
     4    1   41 1    
     5    2    3 2    
     6    2    4 am   BACKBONE|DICT|INTERRES
     7    4    5 1    
     8    4   13 1    
     9    5    6 1    
    10    5   42 1    
    11    5   43 1    
    12    6   11 ar   
    13    6    7 ar   
    14    7    8 ar   
    15    7   44 1    
    16    8    9 ar   
    17    8   45 1    
    18    9   10 ar   
    19    9   12 1    
    20   10   11 ar   
    21   10   46 1    
    22   11   47 1    
    23   13   14 1    
    24   13   48 1    
    25   13   49 1    
    26   14   15 1    
    27   14   19 1    
    28   14   16 1    
    29   16   17 1    
    30   16   50 1    
    31   16   51 1    
    32   17   18 1    
    33   17   29 1    
    34   17   70 1    
    35   18   19 1    
    36   18   52 1    
    37   18   53 1    
    38   19   20 1    
    39   19   21 1    
    40   21   26 ar   
    41   21   22 ar   
    42   22   23 ar   
    43   22   54 1    
    44   23   24 ar   
    45   23   55 1    
    46   24   25 ar   
    47   24   27 1    
    48   25   26 ar   
    49   25   56 1    
    50   26   57 1    
    51   27   28 1    
    52   28   58 1    
    53   28   59 1    
    54   28   60 1    
    55   29   30 1    
    56   29   61 1    
    57   29   62 1    
    58   30   35 ar   
    59   30   31 ar   
    60   31   32 ar   
    61   31   63 1    
    62   32   33 ar   
    63   32   64 1    
    64   33   34 ar   
    65   33   37 1    
    66   34   35 ar   
    67   34   65 1    
    68   35   36 1    
    69   36   66 1    
    70   37   38 1    
    71   38   67 1    
    72   38   68 1    
    73   38   69 1    
@<TRIPOS>SUBSTRUCTURE
     1 UNK         1 GROUP             0       ****    0 ROOT    
