@<TRIPOS>MOLECULE
ZINC02636033_913
63   66    1
SMALL
USER_CHARGES


@<TRIPOS>ATOM
      1 C1         -2.4913   50.7273   26.6132 C.3       1 UNK         0.0000 
      2 C2         -1.2573   51.2980   27.2878 C.ar      1 UNK         0.0000 
      3 C3         -0.0809   51.4737   26.5597 C.ar      1 UNK         0.0000 
      4 C4          1.0568   51.9626   27.1938 C.ar      1 UNK         0.0000 
      5 C5          1.0147   52.2708   28.5523 C.ar      1 UNK         0.0000 
      6 C6         -0.1594   52.0970   29.2852 C.ar      1 UNK         0.0000 
      7 C7         -1.2956   51.6144   28.6459 C.ar      1 UNK         0.0000 
      8 S8          2.4822   52.8633   29.3708 S.o2      1 UNK         0.0000 
      9 O9          3.3388   51.6976   29.6168 O.2       1 UNK         0.0000 
     10 O10         2.0193   53.6947   30.4817 O.2       1 UNK         0.0000 
     11 N11         3.2650   53.9440   28.2161 N.pl3     1 UNK         0.0000 
     12 C12         2.6991   55.2961   28.0819 C.3       1 UNK         0.0000 
     13 C13         4.6945   53.7493   27.8746 C.3       1 UNK         0.0000 
     14 C14         5.0455   54.0913   26.4260 C.ar      1 UNK         0.0000 
     15 C15         4.1292   53.9191   25.3823 C.ar      1 UNK         0.0000 
     16 C16         4.5192   54.1158   24.0598 C.ar      1 UNK         0.0000 
     17 C17         5.8319   54.5154   23.7603 C.ar      1 UNK         0.0000 
     18 C18         6.7199   54.7315   24.8197 C.ar      1 UNK         0.0000 
     19 C19         6.3402   54.5107   26.1389 C.ar      1 UNK         0.0000 
     20 C20         6.3039   54.7264   22.3317 C.2       1 UNK         0.0000 
     21 O21         7.5024   54.8969   22.0838 O.2       1 UNK         0.0000 
     22 N22         5.3484   54.7171   21.3712 N.am      1 UNK         0.0000 
     23 N23         5.6752   54.9041   20.0151 N.am      1 UNK         0.0000 
     24 C24         6.1163   56.0975   19.5503 C.2       1 UNK         0.0000 
     25 O25         6.3108   57.0901   20.2557 O.2       1 UNK         0.0000 
     26 C26         6.3384   56.2001   18.0378 C.3       1 UNK         0.0000 
     27 C27         5.1691   56.8919   17.3596 C.2       1 UNK         0.0000 
     28 C28         5.0942   58.1984   16.8812 C.2       1 UNK         0.0000 
     29 O29         3.8772   58.4981   16.3494 O.3       1 UNK         0.0000 
     30 C30         3.1273   57.3743   16.4785 C.ar      1 UNK         0.0000 
     31 C31         3.8716   56.3368   17.0837 C.ar      1 UNK         0.0000 
     32 C32         3.2428   55.0955   17.2800 C.ar      1 UNK         0.0000 
     33 C33         1.9108   54.9437   16.8805 C.ar      1 UNK         0.0000 
     34 C34         1.1919   55.9935   16.3014 C.ar      1 UNK         0.0000 
     35 C35         1.7935   57.2345   16.0805 C.ar      1 UNK         0.0000 
     36 C36        -0.2534   55.7802   15.8920 C.3       1 UNK         0.0000 
     37 H37        -2.2203   50.1024   25.7615 H         1 UNK         0.0000 
     38 H38        -3.0353   50.0844   27.3060 H         1 UNK         0.0000 
     39 H39        -3.1548   51.5257   26.2806 H         1 UNK         0.0000 
     40 H40        -0.0454   51.2191   25.5103 H         1 UNK         0.0000 
     41 H41         1.9669   52.0958   26.6325 H         1 UNK         0.0000 
     42 H42        -0.1971   52.3176   30.3440 H         1 UNK         0.0000 
     43 H43        -2.1969   51.4447   29.2167 H         1 UNK         0.0000 
     44 H44         2.9719   55.6965   27.1123 H         1 UNK         0.0000 
     45 H45         1.6136   55.2589   28.1694 H         1 UNK         0.0000 
     46 H46         3.0825   55.9331   28.8813 H         1 UNK         0.0000 
     47 H47         4.9794   52.7158   28.0743 H         1 UNK         0.0000 
     48 H48         5.2872   54.3638   28.5541 H         1 UNK         0.0000 
     49 H49         3.1201   53.5949   25.5767 H         1 UNK         0.0000 
     50 H50         3.7876   53.9432   23.2823 H         1 UNK         0.0000 
     51 H51         7.7305   55.0560   24.6268 H         1 UNK         0.0000 
     52 H52         7.0586   54.6458   26.9356 H         1 UNK         0.0000 
     53 H53         4.3852   54.9547   21.5613 H         1 UNK         0.0000 
     54 H54         5.6270   54.0584   19.4670 H         1 UNK         0.0000 
     55 H55         6.5234   55.2145   17.6081 H         1 UNK         0.0000 
     56 H56         7.2647   56.7564   17.8872 H         1 UNK         0.0000 
     57 H57         5.8004   59.0194   16.8765 H         1 UNK         0.0000 
     58 H58         3.7725   54.2704   17.7340 H         1 UNK         0.0000 
     59 H59         1.4268   53.9889   17.0371 H         1 UNK         0.0000 
     60 H60         1.2583   58.0590   15.6322 H         1 UNK         0.0000 
     61 H61        -0.5020   56.3784   15.0146 H         1 UNK         0.0000 
     62 H62        -0.4350   54.7390   15.6224 H         1 UNK         0.0000 
     63 H63        -0.9230   56.0562   16.7070 H         1 UNK         0.0000 
@<TRIPOS>BOND
     1    1    2 1    
     2    1   37 1    
     3    1   38 1    
     4    1   39 1    
     5    2    7 ar   
     6    2    3 ar   
     7    3    4 ar   
     8    3   40 1    
     9    4    5 ar   
    10    4   41 1    
    11    5    6 ar   
    12    5    8 1    
    13    6    7 ar   
    14    6   42 1    
    15    7   43 1    
    16    8    9 2    
    17    8   10 2    
    18    8   11 1    
    19   11   12 1    
    20   11   13 1    
    21   12   44 1    
    22   12   45 1    
    23   12   46 1    
    24   13   14 1    
    25   13   47 1    
    26   13   48 1    
    27   14   19 ar   
    28   14   15 ar   
    29   15   16 ar   
    30   15   49 1    
    31   16   17 ar   
    32   16   50 1    
    33   17   18 ar   
    34   17   20 1    
    35   18   19 ar   
    36   18   51 1    
    37   19   52 1    
    38   20   21 2    
    39   20   22 am   BACKBONE|DICT|INTERRES
    40   22   23 1    
    41   22   53 1    
    42   23   24 am   BACKBONE|DICT|INTERRES
    43   23   54 1    
    44   24   25 2    
    45   24   26 1    
    46   26   27 1    
    47   26   55 1    
    48   26   56 1    
    49   27   31 1    
    50   27   28 2    
    51   28   29 1    
    52   28   57 1    
    53   29   30 1    
    54   30   35 ar   
    55   30   31 ar   
    56   31   32 ar   
    57   32   33 ar   
    58   32   58 1    
    59   33   34 ar   
    60   33   59 1    
    61   34   35 ar   
    62   34   36 1    
    63   35   60 1    
    64   36   61 1    
    65   36   62 1    
    66   36   63 1    
@<TRIPOS>SUBSTRUCTURE
     1 UNK         1 GROUP             0       ****    0 ROOT    
