@<TRIPOS>MOLECULE
ZINC08659243_2536
42   44    1
SMALL
USER_CHARGES


@<TRIPOS>ATOM
      1 C1         -6.8036   46.4972   29.6007 C.ar      1 UNK         0.0000 
      2 C2         -7.0223   45.6992   28.4815 C.ar      1 UNK         0.0000 
      3 C3         -6.0374   45.5972   27.5021 C.ar      1 UNK         0.0000 
      4 C4         -4.8282   46.2969   27.6279 C.ar      1 UNK         0.0000 
      5 C5         -4.6158   47.0801   28.7768 C.ar      1 UNK         0.0000 
      6 C6         -5.6012   47.1819   29.7555 C.ar      1 UNK         0.0000 
      7 C7         -3.7968   46.2118   26.5203 C.2       1 UNK         0.0000 
      8 O8         -3.8413   45.2968   25.6883 O.2       1 UNK         0.0000 
      9 N9         -2.8958   47.2166   26.4817 N.am      1 UNK         0.0000 
     10 N10        -1.9046   47.2002   25.5063 N.am      1 UNK         0.0000 
     11 C11        -1.8968   48.2064   24.6060 C.2       1 UNK         0.0000 
     12 O12        -2.7944   49.0491   24.5011 O.2       1 UNK         0.0000 
     13 C13        -0.6828   48.2478   23.6682 C.3       1 UNK         0.0000 
     14 S14        -0.9383   49.2698   22.1763 S.3       1 UNK         0.0000 
     15 C15        -0.1158   50.7286   22.7229 C.ar      1 UNK         0.0000 
     16 N16        -0.7310   51.8573   22.9792 N.2       1 UNK         0.0000 
     17 N17         0.2408   52.8055   23.2813 N.2       1 UNK         0.0000 
     18 C18         1.4055   52.2445   23.0706 C.ar      1 UNK         0.0000 
     19 N19         1.2502   50.9115   22.7492 N.pl3     1 UNK         0.0000 
     20 N20         2.2406   49.9753   22.4807 N.3       1 UNK         0.0000 
     21 C21         2.7029   52.9683   23.1535 C.ar      1 UNK         0.0000 
     22 C22         3.5990   52.9083   22.0816 C.ar      1 UNK         0.0000 
     23 C23         4.8311   53.5476   22.1705 C.ar      1 UNK         0.0000 
     24 C24         5.1690   54.2373   23.3332 C.ar      1 UNK         0.0000 
     25 C25         4.2693   54.3212   24.3954 C.ar      1 UNK         0.0000 
     26 C26         3.0283   53.6973   24.3003 C.ar      1 UNK         0.0000 
     27 Cl27        6.7040   55.0168   23.4516 Cl        1 UNK         0.0000 
     28 H28        -7.5696   46.5820   30.3582 H         1 UNK         0.0000 
     29 H29        -7.9562   45.1678   28.3678 H         1 UNK         0.0000 
     30 H30        -6.2320   44.9829   26.6337 H         1 UNK         0.0000 
     31 H31        -3.6960   47.6310   28.9268 H         1 UNK         0.0000 
     32 H32        -5.4317   47.7946   30.6289 H         1 UNK         0.0000 
     33 H33        -2.5633   47.6818   27.3281 H         1 UNK         0.0000 
     34 H34        -1.0698   46.7116   25.8017 H         1 UNK         0.0000 
     35 H35         0.1975   48.5701   24.2252 H         1 UNK         0.0000 
     36 H36        -0.4962   47.2338   23.3230 H         1 UNK         0.0000 
     37 H37         2.3038   49.2428   23.1763 H         1 UNK         0.0000 
     38 H38         2.2101   49.6395   21.5284 H         1 UNK         0.0000 
     39 H39         3.3431   52.3664   21.1825 H         1 UNK         0.0000 
     40 H40         5.5163   53.5031   21.3379 H         1 UNK         0.0000 
     41 H41         4.5317   54.8674   25.2894 H         1 UNK         0.0000 
     42 H42         2.3337   53.7531   25.1261 H         1 UNK         0.0000 
@<TRIPOS>BOND
     1    1    6 ar   
     2    1    2 ar   
     3    1   28 1    
     4    2    3 ar   
     5    2   29 1    
     6    3    4 ar   
     7    3   30 1    
     8    4    5 ar   
     9    4    7 1    
    10    5    6 ar   
    11    5   31 1    
    12    6   32 1    
    13    7    8 2    
    14    7    9 am   BACKBONE|DICT|INTERRES
    15    9   10 1    
    16    9   33 1    
    17   10   11 am   BACKBONE|DICT|INTERRES
    18   10   34 1    
    19   11   12 2    
    20   11   13 1    
    21   13   14 1    
    22   13   35 1    
    23   13   36 1    
    24   14   15 1    
    25   15   19 ar   
    26   15   16 ar   
    27   16   17 ar   
    28   17   18 ar   
    29   18   19 ar   
    30   18   21 1    
    31   19   20 1    
    32   20   37 1    
    33   20   38 1    
    34   21   26 ar   
    35   21   22 ar   
    36   22   23 ar   
    37   22   39 1    
    38   23   24 ar   
    39   23   40 1    
    40   24   25 ar   
    41   24   27 1    
    42   25   26 ar   
    43   25   41 1    
    44   26   42 1    
@<TRIPOS>SUBSTRUCTURE
     1 UNK         1 GROUP             0       ****    0 ROOT    
