ZINC39934001_902
                    3D
 Schrodinger Suite 2024-2.
 69 73  0  0  1  0            999 V2000
    6.1307   54.2926   27.3903 C   0  0  0  0  0  0
    4.9950   54.2377   26.3533 C   0  0  0  0  0  0
    3.5767   54.4333   26.9337 C   0  0  0  0  0  0
    2.9903   53.2459   27.6762 C   0  0  0  0  0  0
    1.9043   52.4973   27.4386 C   0  0  0  0  0  0
    0.7462   52.5402   26.4498 C   0  0  2  0  0  0
    0.7044   53.5696   26.1123 H   0  0  0  0  0  0
   -0.5313   52.2064   27.2299 C   0  0  0  0  0  0
   -0.5111   51.7300   28.4989 C   0  0  0  0  0  0
    0.5963   51.5459   29.2722 O   0  0  0  0  0  0
    1.8465   51.5176   28.5645 C   0  0  2  0  0  0
    1.9994   50.4957   28.2236 H   0  0  0  0  0  0
    2.9445   51.9088   29.3901 N   0  0  0  0  0  0
    3.5682   52.8720   28.8439 N   0  0  0  0  0  0
   -1.5930   51.2967   29.2207 N   0  0  0  0  0  0
   -1.7734   52.3425   26.5402 C   0  0  0  0  0  0
   -2.7768   52.4955   25.9827 N   0  0  0  0  0  0
    0.9049   51.7072   25.1708 C   0  0  0  0  0  0
    0.6249   50.3348   25.1682 C   0  0  0  0  0  0
    0.7055   49.6007   23.9876 C   0  0  0  0  0  0
    1.0749   50.2196   22.7924 C   0  0  0  0  0  0
    1.3527   51.5974   22.7757 C   0  0  0  0  0  0
    1.2595   52.3289   23.9657 C   0  0  0  0  0  0
    1.6471   52.3152   21.4634 C   0  0  0  0  0  0
    3.1518   52.5525   21.1699 N   0  3  0  0  0  0
    3.3738   52.7483   19.6534 C   0  0  0  0  0  0
    4.8529   53.0635   19.3670 C   0  0  0  0  0  0
    5.3733   54.2160   20.1238 N   0  0  0  0  0  0
    5.1498   54.0765   21.5723 C   0  0  0  0  0  0
    3.6860   53.7734   21.9541 C   0  0  0  0  0  0
    6.3600   55.0285   19.5795 C   0  0  0  0  0  0
    6.1744   55.5820   18.3058 C   0  0  0  0  0  0
    7.1519   56.3871   17.7292 C   0  0  0  0  0  0
    8.3331   56.6389   18.4195 C   0  0  0  0  0  0
    8.5387   56.0962   19.6832 C   0  0  0  0  0  0
    7.5512   55.3049   20.2671 C   0  0  0  0  0  0
    9.2834   57.4227   17.8627 F   0  0  0  0  0  0
    1.0846   49.4758   21.6399 O   0  0  0  0  0  0
    2.3463   48.9172   21.3055 C   0  0  0  0  0  0
    7.1048   54.2541   26.8994 H   0  0  0  0  0  0
    6.0859   53.4537   28.0847 H   0  0  0  0  0  0
    6.0924   55.2164   27.9722 H   0  0  0  0  0  0
    5.1748   55.0225   25.6178 H   0  0  0  0  0  0
    5.0431   53.2981   25.8001 H   0  0  0  0  0  0
    3.5516   55.2963   27.5982 H   0  0  0  0  0  0
    2.9027   54.6611   26.1091 H   0  0  0  0  0  0
   -2.4757   51.1810   28.7452 H   0  0  0  0  0  0
   -1.4453   50.6405   29.9785 H   0  0  0  0  0  0
    0.3288   49.8309   26.0803 H   0  0  0  0  0  0
    0.4797   48.5433   23.9984 H   0  0  0  0  0  0
    1.4382   53.3943   23.9497 H   0  0  0  0  0  0
    1.2563   51.7418   20.6211 H   0  0  0  0  0  0
    1.1696   53.2960   21.4241 H   0  0  0  0  0  0
    3.1116   51.7980   19.1832 H   0  0  0  0  0  0
    2.7058   53.5375   19.3035 H   0  0  0  0  0  0
    5.4575   52.2116   19.6815 H   0  0  0  0  0  0
    5.0226   53.1613   18.2944 H   0  0  0  0  0  0
    5.5094   54.9514   22.1141 H   0  0  0  0  0  0
    5.7663   53.2322   21.8823 H   0  0  0  0  0  0
    3.0344   54.6231   21.7466 H   0  0  0  0  0  0
    3.6286   53.4982   23.0071 H   0  0  0  0  0  0
    5.2616   55.3950   17.7608 H   0  0  0  0  0  0
    6.9955   56.8185   16.7507 H   0  0  0  0  0  0
    9.4620   56.2957   20.2064 H   0  0  0  0  0  0
    7.7299   54.8970   21.2501 H   0  0  0  0  0  0
    2.2581   48.3423   20.3834 H   0  0  0  0  0  0
    3.1028   49.6870   21.1420 H   0  0  0  0  0  0
    2.7065   48.2412   22.0813 H   0  0  0  0  0  0
    3.6878   51.7441   21.4479 H   0  0  0  0  0  0
  1  2  1  0  0  0
  1 40  1  0  0  0
  1 41  1  0  0  0
  1 42  1  0  0  0
  2  3  1  0  0  0
  2 43  1  0  0  0
  2 44  1  0  0  0
  3  4  1  0  0  0
  3 45  1  0  0  0
  3 46  1  0  0  0
  4 14  1  0  0  0
  4  5  2  0  0  0
  5 11  1  0  0  0
  5  6  1  0  0  0
  6  7  1  0  0  0
  6  8  1  0  0  0
  6 18  1  0  0  0
  8  9  2  0  0  0
  8 16  1  0  0  0
  9 10  1  0  0  0
  9 15  1  0  0  0
 10 11  1  0  0  0
 11 12  1  0  0  0
 11 13  1  0  0  0
 13 14  2  0  0  0
 15 47  1  0  0  0
 15 48  1  0  0  0
 16 17  3  0  0  0
 18 23  2  0  0  0
 18 19  1  0  0  0
 19 20  2  0  0  0
 19 49  1  0  0  0
 20 21  1  0  0  0
 20 50  1  0  0  0
 21 22  2  0  0  0
 21 38  1  0  0  0
 22 23  1  0  0  0
 22 24  1  0  0  0
 23 51  1  0  0  0
 24 25  1  0  0  0
 24 52  1  0  0  0
 24 53  1  0  0  0
 25 30  1  0  0  0
 25 26  1  0  0  0
 25 69  1  0  0  0
 26 27  1  0  0  0
 26 54  1  0  0  0
 26 55  1  0  0  0
 27 28  1  0  0  0
 27 56  1  0  0  0
 27 57  1  0  0  0
 28 29  1  0  0  0
 28 31  1  0  0  0
 29 30  1  0  0  0
 29 58  1  0  0  0
 29 59  1  0  0  0
 30 60  1  0  0  0
 30 61  1  0  0  0
 31 36  2  0  0  0
 31 32  1  0  0  0
 32 33  2  0  0  0
 32 62  1  0  0  0
 33 34  1  0  0  0
 33 63  1  0  0  0
 34 35  2  0  0  0
 34 37  1  0  0  0
 35 36  1  0  0  0
 35 64  1  0  0  0
 36 65  1  0  0  0
 38 39  1  0  0  0
 39 66  1  0  0  0
 39 67  1  0  0  0
 39 68  1  0  0  0
M  CHG  1  25   1
M  END
> <i_i_glide_confnum>
37

> <i_i_glide_lignum>
903

> <i_i_glide_posenum>
329

> <i_i_glide_rotatable_bonds>
8

> <i_m_Source_File_Index>
5037

> <b_m_subgroup_collapsed>
0

> <r_i_docking_score>
-5.09703

> <r_i_glide_ecoul>
-5.47587

> <r_i_glide_eff_state_penalty>
0

> <r_i_glide_einternal>
9.40193

> <r_i_glide_emodel>
-56.6848

> <r_i_glide_energy>
-46.6581

> <r_i_glide_erotb>
0.403009

> <r_i_glide_esite>
-0.114577

> <r_i_glide_evdw>
-41.1822

> <r_i_glide_gscore>
-5.09703

> <r_i_glide_hbond>
-0.0728296

> <r_i_glide_ligand_efficiency>
-0.137757

> <r_i_glide_ligand_efficiency_ln>
-1.10543

> <r_i_glide_ligand_efficiency_sa>
-0.459038

> <r_i_glide_lipo>
-2.23435

> <r_i_glide_metal>
0

> <r_i_glide_rewards>
-0.197788

> <s_i_glide_gridfile>
wee1_glide-grid

> <s_m_Source_File>
wee1_decoys_glide_SP.sdf

> <s_m_Source_Path>
/Users/zhangxujun/Desktop

> <s_m_entry_id>
5312

> <s_m_entry_name>
wee1_decoys_glide_SP.5037

> <s_m_subgroup_title>
wee1_decoys_glide_SP

> <s_m_subgroupid>
wee1_decoys_glide_SP


$$$$
