ZINC31749178_2528
                    3D
 Schrodinger Suite 2024-2.
 61 64  0  0  1  0            999 V2000
    3.5077   53.2820   29.5528 C   0  0  0  0  0  0
    1.9696   53.3972   29.5013 C   0  0  0  0  0  0
    1.5015   54.8604   29.6157 C   0  0  0  0  0  0
    1.3838   52.7220   28.2595 C   0  0  0  0  0  0
    0.4394   51.7013   28.3854 C   0  0  0  0  0  0
   -0.0857   51.0862   27.2502 C   0  0  0  0  0  0
    0.3037   51.4863   25.9648 C   0  0  0  0  0  0
    1.2621   52.5073   25.8576 C   0  0  0  0  0  0
    1.7923   53.1202   26.9862 C   0  0  0  0  0  0
   -0.2567   50.7663   24.7049 C   0  0  1  0  0  0
   -0.2945   51.6399   23.4498 C   0  0  0  0  0  0
   -1.0060   52.6325   23.2819 O   0  0  0  0  0  0
    0.5807   51.0851   22.5829 N   0  0  0  0  0  0
    1.1671   49.9516   23.0387 C   0  0  0  0  0  0
    2.0446   49.2967   22.4817 O   0  0  0  0  0  0
    0.6743   49.7580   24.2675 N   0  0  0  0  0  0
    1.0339   51.7451   21.3355 C   0  0  0  0  0  0
    2.3329   52.5529   21.5648 C   0  0  0  0  0  0
    2.6934   52.8450   22.7060 O   0  0  0  0  0  0
    2.9956   52.8953   20.4406 N   0  0  0  0  0  0
    4.1948   53.5975   20.3112 C   0  0  0  0  0  0
    4.7847   54.0069   19.0967 C   0  0  0  0  0  0
    5.9485   54.7950   19.3128 C   0  0  0  0  0  0
    6.2773   54.8966   20.6719 C   0  0  0  0  0  0
    5.1303   54.1120   21.6897 S   0  0  0  0  0  0
    7.4820   55.6249   21.2423 C   0  0  0  0  0  0
    8.5138   55.8402   20.1193 C   0  0  0  0  0  0
    7.8520   56.4225   18.8588 C   0  0  0  0  0  0
    6.8173   55.4568   18.2324 C   0  0  0  0  0  0
    4.2270   53.7449   17.7815 C   0  0  0  0  0  0
    4.1251   54.6175   16.9246 O   0  0  0  0  0  0
    3.7987   52.4974   17.5691 N   0  0  0  0  0  0
   -1.6634   50.1321   24.8985 C   0  0  0  0  0  0
    3.8313   52.2439   29.4626 H   0  0  0  0  0  0
    3.9850   53.8449   28.7506 H   0  0  0  0  0  0
    3.9050   53.6659   30.4915 H   0  0  0  0  0  0
    1.5898   52.8685   30.3784 H   0  0  0  0  0  0
    0.4146   54.9140   29.6803 H   0  0  0  0  0  0
    1.9029   55.3442   30.5047 H   0  0  0  0  0  0
    1.8146   55.4541   28.7561 H   0  0  0  0  0  0
    0.1096   51.3706   29.3601 H   0  0  0  0  0  0
   -0.7992   50.2895   27.3907 H   0  0  0  0  0  0
    1.6140   52.8421   24.8965 H   0  0  0  0  0  0
    2.5255   53.9043   26.8652 H   0  0  0  0  0  0
    0.6654   48.8465   24.7019 H   0  0  0  0  0  0
    0.2695   52.4318   20.9704 H   0  0  0  0  0  0
    1.1975   50.9986   20.5565 H   0  0  0  0  0  0
    2.5653   52.6455   19.5623 H   0  0  0  0  0  0
    7.9232   55.0667   22.0670 H   0  0  0  0  0  0
    7.1661   56.5799   21.6524 H   0  0  0  0  0  0
    9.0014   54.8967   19.8702 H   0  0  0  0  0  0
    9.3114   56.4956   20.4694 H   0  0  0  0  0  0
    8.6133   56.6723   18.1190 H   0  0  0  0  0  0
    7.3639   57.3659   19.1072 H   0  0  0  0  0  0
    6.2106   56.0097   17.5152 H   0  0  0  0  0  0
    7.3381   54.6860   17.6634 H   0  0  0  0  0  0
    4.2272   51.7273   18.0813 H   0  0  0  0  0  0
    3.3552   52.2824   16.6899 H   0  0  0  0  0  0
   -2.3846   50.8683   25.2564 H   0  0  0  0  0  0
   -2.0647   49.7099   23.9749 H   0  0  0  0  0  0
   -1.6456   49.3143   25.6210 H   0  0  0  0  0  0
  1  2  1  0  0  0
  1 34  1  0  0  0
  1 35  1  0  0  0
  1 36  1  0  0  0
  2  3  1  0  0  0
  2  4  1  0  0  0
  2 37  1  0  0  0
  3 38  1  0  0  0
  3 39  1  0  0  0
  3 40  1  0  0  0
  4  9  2  0  0  0
  4  5  1  0  0  0
  5  6  2  0  0  0
  5 41  1  0  0  0
  6  7  1  0  0  0
  6 42  1  0  0  0
  7  8  2  0  0  0
  7 10  1  0  0  0
  8  9  1  0  0  0
  8 43  1  0  0  0
  9 44  1  0  0  0
 10 16  1  0  0  0
 10 11  1  0  0  0
 10 33  1  0  0  0
 11 12  2  0  0  0
 11 13  1  0  0  0
 13 14  1  0  0  0
 13 17  1  0  0  0
 14 15  2  0  0  0
 14 16  1  0  0  0
 16 45  1  0  0  0
 17 18  1  0  0  0
 17 46  1  0  0  0
 17 47  1  0  0  0
 18 19  2  0  0  0
 18 20  1  0  0  0
 20 21  1  0  0  0
 20 48  1  0  0  0
 21 25  1  0  0  0
 21 22  2  0  0  0
 22 23  1  0  0  0
 22 30  1  0  0  0
 23 29  1  0  0  0
 23 24  2  0  0  0
 24 25  1  0  0  0
 24 26  1  0  0  0
 26 27  1  0  0  0
 26 49  1  0  0  0
 26 50  1  0  0  0
 27 28  1  0  0  0
 27 51  1  0  0  0
 27 52  1  0  0  0
 28 29  1  0  0  0
 28 53  1  0  0  0
 28 54  1  0  0  0
 29 55  1  0  0  0
 29 56  1  0  0  0
 30 31  2  0  0  0
 30 32  1  0  0  0
 32 57  1  0  0  0
 32 58  1  0  0  0
 33 59  1  0  0  0
 33 60  1  0  0  0
 33 61  1  0  0  0
M  END
> <i_i_glide_confnum>
80

> <i_i_glide_lignum>
2529

> <i_i_glide_posenum>
101

> <i_i_glide_rotatable_bonds>
7

> <i_m_Source_File_Index>
5414

> <b_m_subgroup_collapsed>
0

> <r_i_docking_score>
-5.01022

> <r_i_glide_ecoul>
-5.98031

> <r_i_glide_eff_state_penalty>
0

> <r_i_glide_einternal>
4.00336

> <r_i_glide_emodel>
-59.8826

> <r_i_glide_energy>
-46.0936

> <r_i_glide_erotb>
0.45981

> <r_i_glide_esite>
-0.11815

> <r_i_glide_evdw>
-40.1133

> <r_i_glide_gscore>
-5.01022

> <r_i_glide_hbond>
-0.157566

> <r_i_glide_ligand_efficiency>
-0.151825

> <r_i_glide_ligand_efficiency_ln>
-1.11425

> <r_i_glide_ligand_efficiency_sa>
-0.486984

> <r_i_glide_lipo>
-1.84613

> <r_i_glide_metal>
0

> <r_i_glide_rewards>
-0.445471

> <s_i_glide_gridfile>
wee1_glide-grid

> <s_m_Source_File>
wee1_decoys_glide_SP.sdf

> <s_m_Source_Path>
/Users/zhangxujun/Desktop

> <s_m_entry_id>
5689

> <s_m_entry_name>
wee1_decoys_glide_SP.5414

> <s_m_subgroup_title>
wee1_decoys_glide_SP

> <s_m_subgroupid>
wee1_decoys_glide_SP


$$$$
