@<TRIPOS>MOLECULE
ZINC46570297_2070
59   62    1
SMALL
USER_CHARGES


@<TRIPOS>ATOM
      1 C1          5.3658   54.4316   20.1652 C.3       1 UNK         0.0000 
      2 C2          4.7042   53.2945   20.9607 C.3       1 UNK         0.0000 
      3 H3          5.4118   52.4619   20.9705 H         1 UNK         0.0000 
      4 C4          4.4767   53.6988   22.4258 C.ar      1 UNK         0.0000 
      5 C5          3.1942   53.9402   22.9363 C.ar      1 UNK         0.0000 
      6 C6          3.0182   54.2428   24.2831 C.ar      1 UNK         0.0000 
      7 C7          4.1266   54.3294   25.1222 C.ar      1 UNK         0.0000 
      8 C8          5.4090   54.1116   24.6236 C.ar      1 UNK         0.0000 
      9 C9          5.5831   53.7928   23.2792 C.ar      1 UNK         0.0000 
     10 N10         3.5268   52.8127   20.2292 N.am      1 UNK         0.0000 
     11 C11         2.8915   51.6420   20.4263 C.2       1 UNK         0.0000 
     12 O12         3.1719   50.8694   21.3427 O.2       1 UNK         0.0000 
     13 C13         1.8201   51.3049   19.4093 C.ar      1 UNK         0.0000 
     14 C14         2.1086   51.5155   18.0494 C.ar      1 UNK         0.0000 
     15 C15         1.2256   51.1138   17.0498 C.ar      1 UNK         0.0000 
     16 C16         0.0345   50.4816   17.3884 C.ar      1 UNK         0.0000 
     17 C17        -0.2789   50.2646   18.7275 C.ar      1 UNK         0.0000 
     18 C18         0.5824   50.6923   19.7453 C.ar      1 UNK         0.0000 
     19 N19         0.1266   50.4212   21.0475 N.am      1 UNK         0.0000 
     20 C20         0.0367   51.2946   22.0707 C.2       1 UNK         0.0000 
     21 O21         0.2854   52.4965   21.9694 O.2       1 UNK         0.0000 
     22 C22        -0.4488   50.7082   23.4108 C.3       1 UNK         0.0000 
     23 C23         0.7814   50.2270   24.2086 C.3       1 UNK         0.0000 
     24 C24         0.3045   49.6666   25.5610 C.3       1 UNK         0.0000 
     25 N25        -0.4268   50.6861   26.3331 N.pl3     1 UNK         0.0000 
     26 C26        -1.6454   51.0952   25.6176 C.3       1 UNK         0.0000 
     27 C27        -1.2873   51.7154   24.2428 C.3       1 UNK         0.0000 
     28 C28         0.0502   51.2872   27.4915 C.ar      1 UNK         0.0000 
     29 C29        -0.8148   51.6970   28.5124 C.ar      1 UNK         0.0000 
     30 C30        -0.2664   52.1067   29.7271 C.ar      1 UNK         0.0000 
     31 C31         1.1205   52.0970   29.8577 C.ar      1 UNK         0.0000 
     32 N32         1.9325   51.7142   28.8422 N.ar      1 UNK         0.0000 
     33 N33         1.4001   51.2972   27.6834 N.ar      1 UNK         0.0000 
     34 Cl34        1.8346   52.4967   31.3730 Cl        1 UNK         0.0000 
     35 H35         6.2970   54.7603   20.6256 H         1 UNK         0.0000 
     36 H36         5.6024   54.1155   19.1491 H         1 UNK         0.0000 
     37 H37         4.7076   55.2965   20.0893 H         1 UNK         0.0000 
     38 H38         2.3276   53.8902   22.2943 H         1 UNK         0.0000 
     39 H39         2.0249   54.4120   24.6728 H         1 UNK         0.0000 
     40 H40         3.9910   54.5618   26.1686 H         1 UNK         0.0000 
     41 H41         6.2631   54.1706   25.2802 H         1 UNK         0.0000 
     42 H42         6.5797   53.6054   22.9058 H         1 UNK         0.0000 
     43 H43         3.1129   53.4560   19.5736 H         1 UNK         0.0000 
     44 H44         3.0562   51.9428   17.7458 H         1 UNK         0.0000 
     45 H45         1.4846   51.2661   16.0122 H         1 UNK         0.0000 
     46 H46        -0.6414   50.1521   16.6125 H         1 UNK         0.0000 
     47 H47        -1.2115   49.7753   18.9673 H         1 UNK         0.0000 
     48 H48        -0.3841   49.5607   21.1567 H         1 UNK         0.0000 
     49 H49        -1.0608   49.8375   23.1640 H         1 UNK         0.0000 
     50 H50         1.3039   49.4122   23.7029 H         1 UNK         0.0000 
     51 H51         1.4710   51.0445   24.4368 H         1 UNK         0.0000 
     52 H52        -0.3797   48.8318   25.3951 H         1 UNK         0.0000 
     53 H53         1.1272   49.2395   26.1360 H         1 UNK         0.0000 
     54 H54        -2.2749   50.2135   25.4844 H         1 UNK         0.0000 
     55 H55        -2.2321   51.8024   26.2042 H         1 UNK         0.0000 
     56 H56        -0.7373   52.6340   24.4564 H         1 UNK         0.0000 
     57 H57        -2.2326   51.9415   23.7477 H         1 UNK         0.0000 
     58 H58        -1.8854   51.6159   28.4026 H         1 UNK         0.0000 
     59 H59        -0.8959   52.3646   30.5673 H         1 UNK         0.0000 
@<TRIPOS>BOND
     1    1    2 1    
     2    1   35 1    
     3    1   36 1    
     4    1   37 1    
     5    2    3 1    
     6    2    4 1    
     7    2   10 1    
     8    4    9 ar   
     9    4    5 ar   
    10    5    6 ar   
    11    5   38 1    
    12    6    7 ar   
    13    6   39 1    
    14    7    8 ar   
    15    7   40 1    
    16    8    9 ar   
    17    8   41 1    
    18    9   42 1    
    19   10   11 am   BACKBONE|DICT|INTERRES
    20   10   43 1    
    21   11   12 2    
    22   11   13 1    
    23   13   18 ar   
    24   13   14 ar   
    25   14   15 ar   
    26   14   44 1    
    27   15   16 ar   
    28   15   45 1    
    29   16   17 ar   
    30   16   46 1    
    31   17   18 ar   
    32   17   47 1    
    33   18   19 1    
    34   19   20 am   BACKBONE|DICT|INTERRES
    35   19   48 1    
    36   20   21 2    
    37   20   22 1    
    38   22   27 1    
    39   22   23 1    
    40   22   49 1    
    41   23   24 1    
    42   23   50 1    
    43   23   51 1    
    44   24   25 1    
    45   24   52 1    
    46   24   53 1    
    47   25   26 1    
    48   25   28 1    
    49   26   27 1    
    50   26   54 1    
    51   26   55 1    
    52   27   56 1    
    53   27   57 1    
    54   28   33 ar   
    55   28   29 ar   
    56   29   30 ar   
    57   29   58 1    
    58   30   31 ar   
    59   30   59 1    
    60   31   32 ar   
    61   31   34 1    
    62   32   33 ar   
@<TRIPOS>SUBSTRUCTURE
     1 UNK         1 GROUP             0       ****    0 ROOT    
