@<TRIPOS>MOLECULE
ZINC35703566_4632
58   61    1
SMALL
USER_CHARGES


@<TRIPOS>ATOM
      1 C1          0.4938   51.2679   19.2206 C.3       1 UNK         0.0000 
      2 C2          1.9962   51.5743   19.1103 C.3       1 UNK         0.0000 
      3 O3          2.4682   52.2645   20.2631 O.3       1 UNK         0.0000 
      4 C4          2.7858   51.6104   21.4025 C.2       1 UNK         0.0000 
      5 O5          2.6557   50.3964   21.5728 O.2       1 UNK         0.0000 
      6 C6          3.2352   52.4990   22.4812 C.2       1 UNK         0.0000 
      7 C7          4.2287   53.4361   22.3242 C.2       1 UNK         0.0000 
      8 N8          4.6834   54.1910   23.3754 N.2       1 UNK         0.0000 
      9 C9          4.1460   54.0854   24.5277 C.2       1 UNK         0.0000 
     10 N10         3.0770   53.2657   24.8890 N.pl3     1 UNK         0.0000 
     11 C11         2.5289   52.3007   23.8663 C.3       1 UNK         0.0000 
     12 H12         2.7044   51.2968   24.2239 H         1 UNK         0.0000 
     13 C13         1.0091   52.2778   23.7960 C.ar      1 UNK         0.0000 
     14 C14         0.3310   51.0495   23.8530 C.ar      1 UNK         0.0000 
     15 C15        -1.0582   51.0060   23.8034 C.ar      1 UNK         0.0000 
     16 C16        -1.7773   52.1924   23.7244 C.ar      1 UNK         0.0000 
     17 C17        -1.0992   53.4062   23.6832 C.ar      1 UNK         0.0000 
     18 C18         0.3036   53.4724   23.6816 C.ar      1 UNK         0.0000 
     19 C19         1.1042   54.7740   23.4338 C.3       1 UNK         0.0000 
     20 C20         2.7284   53.3010   26.2407 C.2       1 UNK         0.0000 
     21 C21         3.5116   54.1444   26.9352 C.2       1 UNK         0.0000 
     22 S22         4.7721   54.8969   25.9674 S.3       1 UNK         0.0000 
     23 C23         1.6957   52.4844   26.8716 C.2       1 UNK         0.0000 
     24 C24         0.9940   52.7044   27.9987 C.2       1 UNK         0.0000 
     25 O25         0.9635   53.7222   28.7849 O.co2     1 UNK         0.0000 
     26 N26         0.1831   51.6904   28.4676 N.pl3     1 UNK         0.0000 
     27 C27        -1.0338   51.7010   29.2765 C.3       1 UNK         0.0000 
     28 C28        -2.2977   51.2967   28.5114 C.ar      1 UNK         0.0000 
     29 C29        -2.3998   51.3367   27.1140 C.ar      1 UNK         0.0000 
     30 C30        -3.6022   50.9806   26.4980 C.ar      1 UNK         0.0000 
     31 C31        -4.6787   50.6015   27.2996 C.ar      1 UNK         0.0000 
     32 N32        -4.6075   50.5545   28.6526 N.ar      1 UNK         0.0000 
     33 C33        -3.4272   50.8902   29.2316 C.ar      1 UNK         0.0000 
     34 C34         4.9744   53.7763   21.0078 C.3       1 UNK         0.0000 
     35 F35         5.3267   52.6630   20.3634 F         1 UNK         0.0000 
     36 F36         4.1880   54.4965   20.2121 F         1 UNK         0.0000 
     37 F37         6.0824   54.4971   21.2147 F         1 UNK         0.0000 
     38 H38         0.1274   50.7969   18.3084 H         1 UNK         0.0000 
     39 H39        -0.0802   52.1812   19.3804 H         1 UNK         0.0000 
     40 H40         0.2868   50.5921   20.0508 H         1 UNK         0.0000 
     41 H41         2.5730   50.6630   18.9364 H         1 UNK         0.0000 
     42 H42         2.1689   52.2161   18.2458 H         1 UNK         0.0000 
     43 H43         0.8800   50.1214   23.9297 H         1 UNK         0.0000 
     44 H44        -1.5737   50.0579   23.8463 H         1 UNK         0.0000 
     45 H45        -2.8565   52.1772   23.6986 H         1 UNK         0.0000 
     46 H46        -1.6795   54.3154   23.6507 H         1 UNK         0.0000 
     47 H47         0.7044   55.6023   22.8814 H         1 UNK         0.0000 
     48 H48         1.5052   55.1617   24.3606 H         1 UNK         0.0000 
     49 H49         1.9324   54.5864   22.7678 H         1 UNK         0.0000 
     50 H50         3.4519   54.3354   27.9965 H         1 UNK         0.0000 
     51 H51         1.5037   51.5399   26.3901 H         1 UNK         0.0000 
     52 H52         0.3170   50.7847   28.0447 H         1 UNK         0.0000 
     53 H53        -0.8942   51.0024   30.1028 H         1 UNK         0.0000 
     54 H54        -1.1807   52.6793   29.7317 H         1 UNK         0.0000 
     55 H55        -1.5583   51.6436   26.5112 H         1 UNK         0.0000 
     56 H56        -3.7013   50.9918   25.4248 H         1 UNK         0.0000 
     57 H57        -5.6229   50.3188   26.8581 H         1 UNK         0.0000 
     58 H58        -3.3889   50.8031   30.3083 H         1 UNK         0.0000 
@<TRIPOS>BOND
     1    1    2 1    
     2    1   38 1    
     3    1   39 1    
     4    1   40 1    
     5    2    3 1    
     6    2   41 1    
     7    2   42 1    
     8    3    4 1    
     9    4    5 2    
    10    4    6 1    
    11    6   11 1    
    12    6    7 2    
    13    7    8 1    
    14    7   34 1    
    15    8    9 2    
    16    9   22 1    
    17    9   10 1    
    18   10   11 1    
    19   10   20 1    
    20   11   12 1    
    21   11   13 1    
    22   13   18 ar   
    23   13   14 ar   
    24   14   15 ar   
    25   14   43 1    
    26   15   16 ar   
    27   15   44 1    
    28   16   17 ar   
    29   16   45 1    
    30   17   18 ar   
    31   17   46 1    
    32   18   19 1    
    33   19   47 1    
    34   19   48 1    
    35   19   49 1    
    36   20   21 2    
    37   20   23 1    
    38   21   22 1    
    39   21   50 1    
    40   23   24 2    
    41   23   51 1    
    42   24   25 1    
    43   24   26 1    
    44   26   27 1    
    45   26   52 1    
    46   27   28 1    
    47   27   53 1    
    48   27   54 1    
    49   28   33 ar   
    50   28   29 ar   
    51   29   30 ar   
    52   29   55 1    
    53   30   31 ar   
    54   30   56 1    
    55   31   32 ar   
    56   31   57 1    
    57   32   33 ar   
    58   33   58 1    
    59   34   35 1    
    60   34   36 1    
    61   34   37 1    
@<TRIPOS>SUBSTRUCTURE
     1 UNK         1 GROUP             0       ****    0 ROOT    
