@<TRIPOS>MOLECULE
ZINC39665456_1284
69   72    1
SMALL
USER_CHARGES


@<TRIPOS>ATOM
      1 C1          1.8280   50.2174   14.8871 C.3       1 UNK         0.0000 
      2 C2          0.8100   50.1797   16.0110 C.ar      1 UNK         0.0000 
      3 C3         -0.4064   50.8535   15.8823 C.ar      1 UNK         0.0000 
      4 C4         -1.3292   50.8193   16.9237 C.ar      1 UNK         0.0000 
      5 C5         -1.0382   50.1108   18.0932 C.ar      1 UNK         0.0000 
      6 C6          0.1840   49.4466   18.2225 C.ar      1 UNK         0.0000 
      7 C7          1.1041   49.4782   17.1798 C.ar      1 UNK         0.0000 
      8 C8         -2.0357   50.1020   19.2438 C.3       1 UNK         0.0000 
      9 C9         -1.7704   51.2632   20.2208 C.2       1 UNK         0.0000 
     10 O10        -2.0957   52.3944   19.8566 O.2       1 UNK         0.0000 
     11 N11        -1.2081   51.0291   21.4330 N.am      1 UNK         0.0000 
     12 C12        -0.9437   52.1052   22.3919 C.3       1 UNK         0.0000 
     13 C13        -0.1516   51.4168   23.5295 C.3       1 UNK         0.0000 
     14 H14         0.9190   51.5400   23.3433 H         1 UNK         0.0000 
     15 C15        -0.5405   49.9089   23.4334 C.3       1 UNK         0.0000 
     16 C16        -0.7337   49.7326   21.9122 C.3       1 UNK         0.0000 
     17 C17        -1.8955   49.4777   24.0950 C.3       1 UNK         0.0000 
     18 C18        -1.8684   49.3192   25.6365 C.3       1 UNK         0.0000 
     19 N19        -0.6445   48.4968   26.0817 N.4       1 UNK         0.0000 
     20 C20         0.7046   48.8786   25.4460 C.3       1 UNK         0.0000 
     21 C21         0.5253   48.9028   23.9242 C.3       1 UNK         0.0000 
     22 C22        -0.4962   52.0948   24.8745 C.2       1 UNK         0.0000 
     23 O23        -1.6281   52.5216   25.1010 O.2       1 UNK         0.0000 
     24 N24         0.5031   52.1889   25.7679 N.am      1 UNK         0.0000 
     25 C25         0.3252   52.5395   27.1801 C.3       1 UNK         0.0000 
     26 C26         1.6301   52.9771   27.8824 C.3       1 UNK         0.0000 
     27 H27         2.2523   52.0850   27.9807 H         1 UNK         0.0000 
     28 C28         1.3385   53.5739   29.2734 C.3       1 UNK         0.0000 
     29 O29         2.2893   53.9507   27.0666 O.3       1 UNK         0.0000 
     30 C30         3.6679   54.0549   27.0788 C.ar      1 UNK         0.0000 
     31 C31         4.2461   54.7425   26.0118 C.ar      1 UNK         0.0000 
     32 C32         5.6283   54.8972   25.9302 C.ar      1 UNK         0.0000 
     33 C33         6.4352   54.3765   26.9367 C.ar      1 UNK         0.0000 
     34 C34         5.8767   53.6958   28.0137 C.ar      1 UNK         0.0000 
     35 C35         4.4977   53.5240   28.0815 C.ar      1 UNK         0.0000 
     36 H36         1.5494   50.9141   14.0940 H         1 UNK         0.0000 
     37 H37         2.7947   50.5345   15.2805 H         1 UNK         0.0000 
     38 H38         1.9643   49.2215   14.4621 H         1 UNK         0.0000 
     39 H39        -0.6338   51.4070   14.9833 H         1 UNK         0.0000 
     40 H40        -2.2639   51.3491   16.8229 H         1 UNK         0.0000 
     41 H41         0.4249   48.9085   19.1273 H         1 UNK         0.0000 
     42 H42         2.0494   48.9637   17.2845 H         1 UNK         0.0000 
     43 H43        -3.0480   50.2193   18.8545 H         1 UNK         0.0000 
     44 H44        -2.0260   49.1279   19.7269 H         1 UNK         0.0000 
     45 H45        -0.3434   52.8966   21.9395 H         1 UNK         0.0000 
     46 H46        -1.9260   52.4499   22.7190 H         1 UNK         0.0000 
     47 H47        -1.3348   48.8571   21.6706 H         1 UNK         0.0000 
     48 H48         0.2418   49.5704   21.4502 H         1 UNK         0.0000 
     49 H49        -2.6983   50.1550   23.7984 H         1 UNK         0.0000 
     50 H50        -2.2008   48.5082   23.6982 H         1 UNK         0.0000 
     51 H51        -1.8135   50.2468   26.2023 H         1 UNK         0.0000 
     52 H52        -2.7381   48.7780   26.0129 H         1 UNK         0.0000 
     53 H53        -0.6568   48.4966   27.1107 H         1 UNK         0.0000 
     54 H54         1.0381   49.8018   25.9006 H         1 UNK         0.0000 
     55 H55         1.4071   48.0969   25.7170 H         1 UNK         0.0000 
     56 H56         0.2568   47.8949   23.6155 H         1 UNK         0.0000 
     57 H57         1.4865   49.1019   23.4466 H         1 UNK         0.0000 
     58 H58         1.4439   51.9767   25.4736 H         1 UNK         0.0000 
     59 H59        -0.4459   53.2972   27.2831 H         1 UNK         0.0000 
     60 H60        -0.0763   51.6680   27.7021 H         1 UNK         0.0000 
     61 H61         0.8392   52.8489   29.9169 H         1 UNK         0.0000 
     62 H62         2.2451   53.8919   29.7826 H         1 UNK         0.0000 
     63 H63         0.6940   54.4507   29.1982 H         1 UNK         0.0000 
     64 H64         3.6149   55.1519   25.2370 H         1 UNK         0.0000 
     65 H65         6.0671   55.4219   25.0943 H         1 UNK         0.0000 
     66 H66         7.5053   54.4955   26.8873 H         1 UNK         0.0000 
     67 H67         6.5147   53.2982   28.7890 H         1 UNK         0.0000 
     68 H68         4.0949   52.9821   28.9213 H         1 UNK         0.0000 
     69 H69        -0.8104   47.5259   25.8648 H         1 UNK         0.0000 
@<TRIPOS>BOND
     1    1    2 1    
     2    1   36 1    
     3    1   37 1    
     4    1   38 1    
     5    2    7 ar   
     6    2    3 ar   
     7    3    4 ar   
     8    3   39 1    
     9    4    5 ar   
    10    4   40 1    
    11    5    6 ar   
    12    5    8 1    
    13    6    7 ar   
    14    6   41 1    
    15    7   42 1    
    16    8    9 1    
    17    8   43 1    
    18    8   44 1    
    19    9   10 2    
    20    9   11 am   BACKBONE|DICT|INTERRES
    21   11   16 1    
    22   11   12 1    
    23   12   13 1    
    24   12   45 1    
    25   12   46 1    
    26   13   14 1    
    27   13   15 1    
    28   13   22 1    
    29   15   21 1    
    30   15   16 1    
    31   15   17 1    
    32   16   47 1    
    33   16   48 1    
    34   17   18 1    
    35   17   49 1    
    36   17   50 1    
    37   18   19 1    
    38   18   51 1    
    39   18   52 1    
    40   19   20 1    
    41   19   53 1    
    42   19   69 1    
    43   20   21 1    
    44   20   54 1    
    45   20   55 1    
    46   21   56 1    
    47   21   57 1    
    48   22   23 2    
    49   22   24 am   BACKBONE|DICT|INTERRES
    50   24   25 1    
    51   24   58 1    
    52   25   26 1    
    53   25   59 1    
    54   25   60 1    
    55   26   27 1    
    56   26   28 1    
    57   26   29 1    
    58   28   61 1    
    59   28   62 1    
    60   28   63 1    
    61   29   30 1    
    62   30   35 ar   
    63   30   31 ar   
    64   31   32 ar   
    65   31   64 1    
    66   32   33 ar   
    67   32   65 1    
    68   33   34 ar   
    69   33   66 1    
    70   34   35 ar   
    71   34   67 1    
    72   35   68 1    
@<TRIPOS>SUBSTRUCTURE
     1 UNK         1 GROUP             0       ****    0 ROOT    
