@<TRIPOS>MOLECULE
ZINC31889963_6142
32   34    1
SMALL
USER_CHARGES


@<TRIPOS>ATOM
      1 C1         -4.2058   52.0933   26.0510 C.ar      1 UNK         0.0000 
      2 C2         -2.8349   52.3312   26.0807 C.ar      1 UNK         0.0000 
      3 C3         -2.1591   51.1334   25.8573 C.ar      1 UNK         0.0000 
      4 N4         -3.1275   50.1516   25.6879 N.pl3     1 UNK         0.0000 
      5 C5         -4.3631   50.7411   25.8214 C.ar      1 UNK         0.0000 
      6 C6         -2.8706   48.7161   25.5347 C.3       1 UNK         0.0000 
      7 C7         -1.3887   48.4551   25.1733 C.3       1 UNK         0.0000 
      8 N8         -0.4950   49.3139   26.0817 N.4       1 UNK         0.0000 
      9 C9         -0.6672   50.8152   25.7672 C.3       1 UNK         0.0000 
     10 H10        -0.3082   50.9184   24.7409 H         1 UNK         0.0000 
     11 C11         0.2265   51.6338   26.6967 C.ar      1 UNK         0.0000 
     12 C12         1.1811   52.4967   26.1541 C.ar      1 UNK         0.0000 
     13 C13         2.0036   53.2473   26.9897 C.ar      1 UNK         0.0000 
     14 C14         1.8919   53.1420   28.3832 C.ar      1 UNK         0.0000 
     15 C15         0.9186   52.2865   28.9210 C.ar      1 UNK         0.0000 
     16 C16         0.0858   51.5468   28.0844 C.ar      1 UNK         0.0000 
     17 C17         2.7999   53.9294   29.2803 C.2       1 UNK         0.0000 
     18 O18         3.4269   54.8927   28.7846 O.co2     1 UNK         0.0000 
     19 O19         2.8830   53.5815   30.4814 O.co2     1 UNK         0.0000 
     20 H20        -4.9912   52.8212   26.1945 H         1 UNK         0.0000 
     21 H21        -2.3648   53.2897   26.2496 H         1 UNK         0.0000 
     22 H22        -5.2571   50.1384   25.7525 H         1 UNK         0.0000 
     23 H23        -3.1139   48.2306   26.4816 H         1 UNK         0.0000 
     24 H24        -3.5484   48.2999   24.7896 H         1 UNK         0.0000 
     25 H25        -1.0964   47.4229   25.3746 H         1 UNK         0.0000 
     26 H26        -1.1390   48.7052   24.1402 H         1 UNK         0.0000 
     27 H27        -0.7752   49.1162   27.0472 H         1 UNK         0.0000 
     28 H28         1.2958   52.5891   25.0838 H         1 UNK         0.0000 
     29 H29         2.7418   53.9020   26.5470 H         1 UNK         0.0000 
     30 H30         0.8001   52.1912   29.9920 H         1 UNK         0.0000 
     31 H31        -0.6608   50.8955   28.5179 H         1 UNK         0.0000 
     32 H32         0.4740   49.0436   25.9916 H         1 UNK         0.0000 
@<TRIPOS>BOND
     1    1    5 ar   
     2    1    2 ar   
     3    1   20 1    
     4    2    3 ar   
     5    2   21 1    
     6    3    9 1    
     7    3    4 ar   
     8    4    5 ar   
     9    4    6 1    
    10    5   22 1    
    11    6    7 1    
    12    6   23 1    
    13    6   24 1    
    14    7    8 1    
    15    7   25 1    
    16    7   26 1    
    17    8    9 1    
    18    8   27 1    
    19    8   32 1    
    20    9   10 1    
    21    9   11 1    
    22   11   16 ar   
    23   11   12 ar   
    24   12   13 ar   
    25   12   28 1    
    26   13   14 ar   
    27   13   29 1    
    28   14   15 ar   
    29   14   17 1    
    30   15   16 ar   
    31   15   30 1    
    32   16   31 1    
    33   17   18 2    
    34   17   19 1    
@<TRIPOS>SUBSTRUCTURE
     1 UNK         1 GROUP             0       ****    0 ROOT    
