@<TRIPOS>MOLECULE
ZINC15003056_569
77   81    1
SMALL
USER_CHARGES


@<TRIPOS>ATOM
      1 C1          3.2074   52.8324   29.6525 C.3       1 UNK         0.0000 
      2 C2          3.8662   53.3662   28.3944 C.ar      1 UNK         0.0000 
      3 C3          5.2173   53.6992   28.3894 C.ar      1 UNK         0.0000 
      4 C4          5.8205   54.1641   27.2259 C.ar      1 UNK         0.0000 
      5 C5          5.0940   54.3021   26.0336 C.ar      1 UNK         0.0000 
      6 C6          3.7127   53.9720   26.0412 C.ar      1 UNK         0.0000 
      7 C7          3.1215   53.5116   27.2247 C.ar      1 UNK         0.0000 
      8 C8          2.8002   54.1130   24.8249 C.3       1 UNK         0.0000 
      9 C9          5.8368   54.8202   24.8196 C.2       1 UNK         0.0000 
     10 O10         6.6965   55.6932   24.9667 O.2       1 UNK         0.0000 
     11 N11         5.5025   54.2600   23.6341 N.am      1 UNK         0.0000 
     12 C12         5.9037   54.6507   22.3423 C.ar      1 UNK         0.0000 
     13 C13         7.1107   55.3004   22.0780 C.ar      1 UNK         0.0000 
     14 C14         7.4095   55.7289   20.7885 C.ar      1 UNK         0.0000 
     15 C15         6.5045   55.5404   19.7371 C.ar      1 UNK         0.0000 
     16 C16         5.3190   54.8400   19.9991 C.ar      1 UNK         0.0000 
     17 C17         5.0226   54.3948   21.2891 C.ar      1 UNK         0.0000 
     18 N18         6.8005   56.0381   18.4678 N.pl3     1 UNK         0.0000 
     19 C19         7.4265   57.3523   18.2370 C.3       1 UNK         0.0000 
     20 C20         6.3973   58.3852   17.7177 C.3       1 UNK         0.0000 
     21 C21         5.7377   57.9386   16.4013 C.3       1 UNK         0.0000 
     22 C22         5.1834   56.5068   16.6124 C.3       1 UNK         0.0000 
     23 C23         6.2320   55.5359   17.2057 C.3       1 UNK         0.0000 
     24 C24         4.1316   58.8246   14.5669 C.3       1 UNK         0.0000 
     25 C25         2.5784   58.9438   14.4091 C.3       1 UNK         0.0000 
     26 C26         2.0973   60.3533   14.8921 C.3       1 UNK         0.0000 
     27 C27         2.6772   61.5364   14.0819 C.3       1 UNK         0.0000 
     28 O28         2.3557   61.3847   12.6998 O.3       1 UNK         0.0000 
     29 C29         2.7765   60.1572   12.1060 C.3       1 UNK         0.0000 
     30 C30         2.2045   58.9578   12.8969 C.3       1 UNK         0.0000 
     31 C31         1.8154   57.7616   15.0702 C.ar      1 UNK         0.0000 
     32 C32         2.2297   56.4450   14.8126 C.ar      1 UNK         0.0000 
     33 C33         1.5846   55.3603   15.3998 C.ar      1 UNK         0.0000 
     34 C34         0.4931   55.5767   16.2337 C.ar      1 UNK         0.0000 
     35 C35         0.0309   56.8680   16.4631 C.ar      1 UNK         0.0000 
     36 C36         0.6774   57.9485   15.8698 C.ar      1 UNK         0.0000 
     37 H37         2.6767   51.9067   29.4266 H         1 UNK         0.0000 
     38 H38         3.9315   52.6148   30.4379 H         1 UNK         0.0000 
     39 H39         2.4768   53.5472   30.0302 H         1 UNK         0.0000 
     40 H40         5.8111   53.5964   29.2815 H         1 UNK         0.0000 
     41 H41         6.8728   54.4117   27.2625 H         1 UNK         0.0000 
     42 H42         2.0719   53.2535   27.2392 H         1 UNK         0.0000 
     43 H43         2.9718   53.3049   24.1143 H         1 UNK         0.0000 
     44 H44         1.7462   54.0970   25.1034 H         1 UNK         0.0000 
     45 H45         2.9681   55.0631   24.3193 H         1 UNK         0.0000 
     46 H46         4.7694   53.5697   23.6724 H         1 UNK         0.0000 
     47 H47         7.8281   55.4995   22.8560 H         1 UNK         0.0000 
     48 H48         8.3613   56.2090   20.6157 H         1 UNK         0.0000 
     49 H49         4.5980   54.6626   19.2147 H         1 UNK         0.0000 
     50 H50         4.0844   53.8883   21.4647 H         1 UNK         0.0000 
     51 H51         7.9305   57.7345   19.1224 H         1 UNK         0.0000 
     52 H52         8.2122   57.2169   17.4916 H         1 UNK         0.0000 
     53 H53         5.6389   58.5405   18.4820 H         1 UNK         0.0000 
     54 H54         6.8587   59.3613   17.5918 H         1 UNK         0.0000 
     55 H55         6.5000   57.9327   15.6183 H         1 UNK         0.0000 
     56 H56         4.7791   56.1080   15.6846 H         1 UNK         0.0000 
     57 H57         4.3238   56.5291   17.2853 H         1 UNK         0.0000 
     58 H58         7.0563   55.4251   16.4982 H         1 UNK         0.0000 
     59 H59         5.8243   54.5304   17.3244 H         1 UNK         0.0000 
     60 H60         4.7070   59.6241   14.1019 H         1 UNK         0.0000 
     61 H61         4.5144   57.8873   14.1645 H         1 UNK         0.0000 
     62 H62         1.0137   60.4372   14.8153 H         1 UNK         0.0000 
     63 H63         2.3033   60.4818   15.9558 H         1 UNK         0.0000 
     64 H64         2.2586   62.4774   14.4384 H         1 UNK         0.0000 
     65 H65         3.7564   61.6090   14.2050 H         1 UNK         0.0000 
     66 H66         2.4272   60.1281   11.0741 H         1 UNK         0.0000 
     67 H67         3.8647   60.1103   12.0697 H         1 UNK         0.0000 
     68 H68         2.5062   58.0230   12.4240 H         1 UNK         0.0000 
     69 H69         1.1181   58.9672   12.7912 H         1 UNK         0.0000 
     70 H70         3.0595   56.2463   14.1518 H         1 UNK         0.0000 
     71 H71         1.9283   54.3538   15.2075 H         1 UNK         0.0000 
     72 H72        -0.0036   54.7369   16.6966 H         1 UNK         0.0000 
     73 H73        -0.8231   57.0361   17.1016 H         1 UNK         0.0000 
     74 H74         0.2878   58.9297   16.0820 H         1 UNK         0.0000 
     75 N75         4.5706   58.8963   16.0480 N.4       1 UNK         0.0000 
     76 H76         3.7845   58.6688   16.6407 H         1 UNK         0.0000 
     77 H77         4.7915   59.8639   16.2875 H         1 UNK         0.0000 
@<TRIPOS>BOND
     1    1    2 1    
     2    1   37 1    
     3    1   38 1    
     4    1   39 1    
     5    2    7 ar   
     6    2    3 ar   
     7    3    4 ar   
     8    3   40 1    
     9    4    5 ar   
    10    4   41 1    
    11    5    6 ar   
    12    5    9 1    
    13    6    7 ar   
    14    6    8 1    
    15    7   42 1    
    16    8   43 1    
    17    8   44 1    
    18    8   45 1    
    19    9   10 2    
    20    9   11 am   BACKBONE|DICT|INTERRES
    21   11   12 1    
    22   11   46 1    
    23   12   17 ar   
    24   12   13 ar   
    25   13   14 ar   
    26   13   47 1    
    27   14   15 ar   
    28   14   48 1    
    29   15   16 ar   
    30   15   18 1    
    31   16   17 ar   
    32   16   49 1    
    33   17   50 1    
    34   18   23 1    
    35   18   19 1    
    36   19   20 1    
    37   19   51 1    
    38   19   52 1    
    39   20   21 1    
    40   20   53 1    
    41   20   54 1    
    42   21   22 1    
    43   21   55 1    
    44   21   75 1    
    45   22   23 1    
    46   22   56 1    
    47   22   57 1    
    48   23   58 1    
    49   23   59 1    
    50   24   25 1    
    51   24   60 1    
    52   24   61 1    
    53   24   75 1    
    54   25   30 1    
    55   25   26 1    
    56   25   31 1    
    57   26   27 1    
    58   26   62 1    
    59   26   63 1    
    60   27   28 1    
    61   27   64 1    
    62   27   65 1    
    63   28   29 1    
    64   29   30 1    
    65   29   66 1    
    66   29   67 1    
    67   30   68 1    
    68   30   69 1    
    69   31   36 ar   
    70   31   32 ar   
    71   32   33 ar   
    72   32   70 1    
    73   33   34 ar   
    74   33   71 1    
    75   34   35 ar   
    76   34   72 1    
    77   35   36 ar   
    78   35   73 1    
    79   36   74 1    
    80   75   76 1    
    81   75   77 1    
@<TRIPOS>SUBSTRUCTURE
     1 UNK         1 GROUP             0       ****    0 ROOT    
