ZINC10933298_849
                    3D
 Schrodinger Suite 2024-2.
 65 67  0  0  1  0            999 V2000
    3.6669   51.3739   20.9661 C   0  0  0  0  0  0
    2.5656   52.4271   21.2571 C   0  0  1  0  0  0
    2.7123   53.3093   20.6325 H   0  0  0  0  0  0
    1.1305   51.9265   20.9604 C   0  0  0  0  0  0
    0.2019   52.1844   21.7277 O   0  0  0  0  0  0
    0.9611   51.2028   19.8348 N   0  0  0  0  0  0
   -0.2644   50.5751   19.2997 C   0  0  2  0  0  0
   -0.0437   50.4792   17.7681 C   0  0  0  0  0  0
   -1.4583   51.4297   19.5159 C   0  0  0  0  0  0
   -2.3948   52.0963   19.6817 N   0  0  0  0  0  0
   -0.5001   49.1431   19.9092 C   0  0  0  0  0  0
   -0.5757   49.1106   21.4581 C   0  0  0  0  0  0
   -1.7493   48.4277   19.3401 C   0  0  0  0  0  0
    2.6326   52.8170   22.6369 O   0  0  0  0  0  0
    3.5468   53.6967   23.1169 C   0  0  0  0  0  0
    4.3558   54.3139   22.4226 O   0  0  0  0  0  0
    3.5122   53.7575   24.5899 C   0  0  0  0  0  0
    4.5955   54.2397   25.3597 C   0  0  0  0  0  0
    4.4335   54.1293   26.7181 C   0  0  0  0  0  0
    2.8791   53.5639   27.1596 S   0  0  0  0  0  0
    2.4878   53.2988   25.4648 C   0  0  0  0  0  0
    1.3188   52.6408   25.0703 N   0  0  0  0  0  0
    0.3142   52.1506   25.8298 C   0  0  0  0  0  0
    0.1828   52.3628   27.0379 O   0  0  0  0  0  0
   -0.7220   51.2734   25.0923 C   0  0  0  0  0  0
   -0.7239   49.8766   25.7654 C   0  0  0  0  0  0
   -1.7456   48.9645   25.0557 C   0  0  0  0  0  0
   -3.1600   49.5862   25.0507 C   0  0  0  0  0  0
   -3.1666   51.0384   24.5215 C   0  0  0  0  0  0
   -2.1246   51.9186   25.2454 C   0  0  0  0  0  0
    5.6599   54.4747   27.5137 C   0  0  0  0  0  0
    6.6753   54.8282   26.4150 C   0  0  0  0  0  0
    5.9629   54.8072   25.0485 C   0  0  0  0  0  0
    3.7007   51.0964   19.9098 H   0  0  0  0  0  0
    4.6556   51.7594   21.2051 H   0  0  0  0  0  0
    3.5096   50.4650   21.5489 H   0  0  0  0  0  0
    1.8000   50.9757   19.3202 H   0  0  0  0  0  0
   -0.9450   50.1583   17.2390 H   0  0  0  0  0  0
    0.2332   51.4459   17.3389 H   0  0  0  0  0  0
    0.7506   49.7750   17.5143 H   0  0  0  0  0  0
    0.3574   48.5295   19.6327 H   0  0  0  0  0  0
   -1.3487   49.7805   21.8333 H   0  0  0  0  0  0
    0.3718   49.4011   21.9186 H   0  0  0  0  0  0
   -0.8132   48.1142   21.8327 H   0  0  0  0  0  0
   -2.6593   48.9913   19.5419 H   0  0  0  0  0  0
   -1.6817   48.2748   18.2630 H   0  0  0  0  0  0
   -1.8780   47.4383   19.7831 H   0  0  0  0  0  0
    1.2412   52.4853   24.0710 H   0  0  0  0  0  0
   -0.4198   51.2066   24.0463 H   0  0  0  0  0  0
    0.2444   49.3772   25.6737 H   0  0  0  0  0  0
   -1.0399   49.9349   26.8137 H   0  0  0  0  0  0
   -1.4146   48.7712   24.0319 H   0  0  0  0  0  0
   -1.7745   47.9944   25.5531 H   0  0  0  0  0  0
   -3.8350   48.9687   24.4549 H   0  0  0  0  0  0
   -3.5577   49.5695   26.0677 H   0  0  0  0  0  0
   -2.9616   51.0407   23.4487 H   0  0  0  0  0  0
   -4.1621   51.4703   24.6416 H   0  0  0  0  0  0
   -2.4390   51.9670   26.2909 H   0  0  0  0  0  0
   -2.1694   52.9008   24.7701 H   0  0  0  0  0  0
    5.4916   55.2984   28.2037 H   0  0  0  0  0  0
    6.0152   53.6316   28.1068 H   0  0  0  0  0  0
    7.1040   55.8085   26.6047 H   0  0  0  0  0  0
    7.5039   54.1170   26.4302 H   0  0  0  0  0  0
    6.5223   54.2045   24.3325 H   0  0  0  0  0  0
    5.9020   55.8175   24.6414 H   0  0  0  0  0  0
  1  2  1  0  0  0
  1 34  1  0  0  0
  1 35  1  0  0  0
  1 36  1  0  0  0
  2  3  1  0  0  0
  2  4  1  0  0  0
  2 14  1  0  0  0
  4  5  2  0  0  0
  4  6  1  0  0  0
  6  7  1  0  0  0
  6 37  1  0  0  0
  7  8  1  0  0  0
  7  9  1  0  0  0
  7 11  1  0  0  0
  8 38  1  0  0  0
  8 39  1  0  0  0
  8 40  1  0  0  0
  9 10  3  0  0  0
 11 12  1  0  0  0
 11 13  1  0  0  0
 11 41  1  0  0  0
 12 42  1  0  0  0
 12 43  1  0  0  0
 12 44  1  0  0  0
 13 45  1  0  0  0
 13 46  1  0  0  0
 13 47  1  0  0  0
 14 15  1  0  0  0
 15 16  2  0  0  0
 15 17  1  0  0  0
 17 21  2  0  0  0
 17 18  1  0  0  0
 18 33  1  0  0  0
 18 19  2  0  0  0
 19 20  1  0  0  0
 19 31  1  0  0  0
 20 21  1  0  0  0
 21 22  1  0  0  0
 22 23  1  0  0  0
 22 48  1  0  0  0
 23 24  2  0  0  0
 23 25  1  0  0  0
 25 30  1  0  0  0
 25 26  1  0  0  0
 25 49  1  0  0  0
 26 27  1  0  0  0
 26 50  1  0  0  0
 26 51  1  0  0  0
 27 28  1  0  0  0
 27 52  1  0  0  0
 27 53  1  0  0  0
 28 29  1  0  0  0
 28 54  1  0  0  0
 28 55  1  0  0  0
 29 30  1  0  0  0
 29 56  1  0  0  0
 29 57  1  0  0  0
 30 58  1  0  0  0
 30 59  1  0  0  0
 31 32  1  0  0  0
 31 60  1  0  0  0
 31 61  1  0  0  0
 32 33  1  0  0  0
 32 62  1  0  0  0
 32 63  1  0  0  0
 33 64  1  0  0  0
 33 65  1  0  0  0
M  END
> <i_i_glide_confnum>
362

> <i_i_glide_lignum>
850

> <i_i_glide_posenum>
203

> <i_i_glide_rotatable_bonds>
11

> <i_m_Source_File_Index>
1217

> <b_m_subgroup_collapsed>
0

> <r_i_docking_score>
-4.89534

> <r_i_glide_ecoul>
-6.31468

> <r_i_glide_eff_state_penalty>
0

> <r_i_glide_einternal>
3.94743

> <r_i_glide_emodel>
-56.7422

> <r_i_glide_energy>
-42.169

> <r_i_glide_erotb>
0.857327

> <r_i_glide_esite>
-0.034293

> <r_i_glide_evdw>
-35.8543

> <r_i_glide_gscore>
-4.89534

> <r_i_glide_hbond>
-0.32

> <r_i_glide_ligand_efficiency>
-0.152979

> <r_i_glide_ligand_efficiency_ln>
-1.0962

> <r_i_glide_ligand_efficiency_sa>
-0.485679

> <r_i_glide_lipo>
-1.9858

> <r_i_glide_metal>
0

> <r_i_glide_rewards>
-0.672653

> <s_i_glide_gridfile>
wee1_glide-grid

> <s_m_Source_File>
wee1_decoys_glide_SP.sdf

> <s_m_Source_Path>
/Users/zhangxujun/Desktop

> <s_m_entry_id>
1492

> <s_m_entry_name>
wee1_decoys_glide_SP.1217

> <s_m_subgroup_title>
wee1_decoys_glide_SP

> <s_m_subgroupid>
wee1_decoys_glide_SP


$$$$
