@<TRIPOS>MOLECULE
ZINC15972856_446
60   66    1
SMALL
USER_CHARGES


@<TRIPOS>ATOM
      1 C1          3.0072   53.4469   28.5264 C.3       1 UNK         0.0000 
      2 C2          2.9135   53.5141   27.0153 C.ar      1 UNK         0.0000 
      3 C3          3.8862   54.1969   26.2755 C.ar      1 UNK         0.0000 
      4 C4          3.7893   54.2742   24.8832 C.ar      1 UNK         0.0000 
      5 C5          2.7147   53.6552   24.2464 C.ar      1 UNK         0.0000 
      6 C6          1.7601   52.9506   24.9573 C.ar      1 UNK         0.0000 
      7 C7          1.8447   52.8970   26.3522 C.ar      1 UNK         0.0000 
      8 C8          0.7234   52.4141   24.0023 C.3       1 UNK         0.0000 
      9 C9          0.4548   50.8541   23.9749 C.3       1 UNK         0.0000 
     10 H10         0.6959   50.4042   24.9394 H         1 UNK         0.0000 
     11 C11        -1.0172   50.6802   23.7049 C.3       1 UNK         0.0000 
     12 H12        -1.4615   50.0383   24.4651 H         1 UNK         0.0000 
     13 C13        -1.6177   52.1016   23.6909 C.3       1 UNK         0.0000 
     14 H14        -1.7001   52.4444   22.6576 H         1 UNK         0.0000 
     15 N15        -0.6053   52.9402   24.2979 N.3       1 UNK         0.0000 
     16 C16        -3.0341   52.2584   24.3001 C.3       1 UNK         0.0000 
     17 C17        -3.2129   51.8237   25.7543 C.ar      1 UNK         0.0000 
     18 C18        -2.2939   51.2627   26.6306 C.ar      1 UNK         0.0000 
     19 N19        -2.9001   50.8973   27.8021 N.pl3     1 UNK         0.0000 
     20 H20        -2.4191   50.3616   28.5175 H         1 UNK         0.0000 
     21 C21        -4.2162   51.2943   27.7845 C.ar      1 UNK         0.0000 
     22 C22        -4.4424   51.8957   26.5049 C.ar      1 UNK         0.0000 
     23 C23        -5.7265   52.3910   26.2216 C.ar      1 UNK         0.0000 
     24 C24        -6.7269   52.2857   27.1878 C.ar      1 UNK         0.0000 
     25 C25        -6.4762   51.6923   28.4223 C.ar      1 UNK         0.0000 
     26 C26        -5.2219   51.1778   28.7525 C.ar      1 UNK         0.0000 
     27 C27        -1.1084   49.9944   22.3566 C.2       1 UNK         0.0000 
     28 O28        -2.1718   49.8215   21.7546 O.2       1 UNK         0.0000 
     29 N29         0.1452   49.6053   21.9828 N.am      1 UNK         0.0000 
     30 C30         1.1031   50.0139   22.8699 C.2       1 UNK         0.0000 
     31 O31         2.3059   49.7619   22.8399 O.2       1 UNK         0.0000 
     32 C32         0.4217   48.8592   20.7971 C.ar      1 UNK         0.0000 
     33 C33        -0.4245   47.8062   20.4018 C.ar      1 UNK         0.0000 
     34 C34        -0.1310   47.0495   19.2713 C.ar      1 UNK         0.0000 
     35 C35         0.9982   47.3420   18.5138 C.ar      1 UNK         0.0000 
     36 C36         1.8366   48.3894   18.8785 C.ar      1 UNK         0.0000 
     37 C37         1.5538   49.1465   20.0126 C.ar      1 UNK         0.0000 
     38 F38         1.2812   46.5995   17.4196 F         1 UNK         0.0000 
     39 C39         1.2390   53.0039   22.6512 C.2       1 UNK         0.0000 
     40 O40         0.7046   52.8854   21.5517 O.2       1 UNK         0.0000 
     41 N41         2.3826   53.6571   22.9057 N.am      1 UNK         0.0000 
     42 H42         2.0199   53.5648   28.9735 H         1 UNK         0.0000 
     43 H43         3.4117   52.4829   28.8361 H         1 UNK         0.0000 
     44 H44         3.6344   54.2461   28.9248 H         1 UNK         0.0000 
     45 H45         4.7142   54.6767   26.7761 H         1 UNK         0.0000 
     46 H46         4.5308   54.8268   24.3249 H         1 UNK         0.0000 
     47 H47         1.0868   52.3738   26.9201 H         1 UNK         0.0000 
     48 H48        -0.7045   53.9219   24.0856 H         1 UNK         0.0000 
     49 H49        -3.7305   51.6935   23.6782 H         1 UNK         0.0000 
     50 H50        -3.3403   53.3012   24.1964 H         1 UNK         0.0000 
     51 H51        -1.2493   51.0244   26.4923 H         1 UNK         0.0000 
     52 H52        -5.9378   52.8443   25.2631 H         1 UNK         0.0000 
     53 H53        -7.7174   52.6594   26.9714 H         1 UNK         0.0000 
     54 H54        -7.2798   51.6180   29.1408 H         1 UNK         0.0000 
     55 H55        -5.0380   50.7123   29.7108 H         1 UNK         0.0000 
     56 H56        -1.2977   47.5483   20.9812 H         1 UNK         0.0000 
     57 H57        -0.7778   46.2377   18.9787 H         1 UNK         0.0000 
     58 H58         2.7050   48.6148   18.2763 H         1 UNK         0.0000 
     59 H59         2.2211   49.9551   20.2712 H         1 UNK         0.0000 
     60 H60         2.9116   54.1227   22.1820 H         1 UNK         0.0000 
@<TRIPOS>BOND
     1    1    2 1    
     2    1   42 1    
     3    1   43 1    
     4    1   44 1    
     5    2    7 ar   
     6    2    3 ar   
     7    3    4 ar   
     8    3   45 1    
     9    4    5 ar   
    10    4   46 1    
    11    5   41 1    
    12    5    6 ar   
    13    6    7 ar   
    14    6    8 1    
    15    7   47 1    
    16    8   15 1    
    17    8    9 1    
    18    8   39 1    
    19    9   10 1    
    20    9   30 1    
    21    9   11 1    
    22   11   12 1    
    23   11   13 1    
    24   11   27 1    
    25   13   14 1    
    26   13   15 1    
    27   13   16 1    
    28   15   48 1    
    29   16   17 1    
    30   16   49 1    
    31   16   50 1    
    32   17   22 ar   
    33   17   18 ar   
    34   18   19 ar   
    35   18   51 1    
    36   19   20 1    
    37   19   21 ar   
    38   21   26 ar   
    39   21   22 ar   
    40   22   23 ar   
    41   23   24 ar   
    42   23   52 1    
    43   24   25 ar   
    44   24   53 1    
    45   25   26 ar   
    46   25   54 1    
    47   26   55 1    
    48   27   28 2    
    49   27   29 am   BACKBONE|DICT|INTERRES
    50   29   30 am   BACKBONE|DICT|INTERRES
    51   29   32 1    
    52   30   31 2    
    53   32   37 ar   
    54   32   33 ar   
    55   33   34 ar   
    56   33   56 1    
    57   34   35 ar   
    58   34   57 1    
    59   35   36 ar   
    60   35   38 1    
    61   36   37 ar   
    62   36   58 1    
    63   37   59 1    
    64   39   40 2    
    65   39   41 am   BACKBONE|DICT|INTERRES
    66   41   60 1    
@<TRIPOS>SUBSTRUCTURE
     1 UNK         1 GROUP             0       ****    0 ROOT    
