@<TRIPOS>MOLECULE
ZINC02309842_260
54   56    1
SMALL
USER_CHARGES


@<TRIPOS>ATOM
      1 C1          3.1043   51.5206   19.4711 C.3       1 UNK         0.0000 
      2 C2          2.6661   52.2177   20.7607 C.3       1 UNK         0.0000 
      3 H3          2.1620   53.1464   20.4878 H         1 UNK         0.0000 
      4 C4          3.8832   52.5958   21.6465 C.2       1 UNK         0.0000 
      5 O5          4.8714   51.8585   21.6816 O.2       1 UNK         0.0000 
      6 N6          3.7634   53.7216   22.3862 N.am      1 UNK         0.0000 
      7 C7          4.7609   54.1706   23.2312 C.ar      1 UNK         0.0000 
      8 C8          4.6556   54.2206   24.6644 C.ar      1 UNK         0.0000 
      9 C9          3.6413   53.9142   25.5860 C.ar      1 UNK         0.0000 
     10 C10         3.8925   54.0585   26.9474 C.ar      1 UNK         0.0000 
     11 C11         5.1318   54.4950   27.4047 C.ar      1 UNK         0.0000 
     12 C12         6.1664   54.8209   26.5293 C.ar      1 UNK         0.0000 
     13 C13         5.9146   54.6871   25.1583 C.ar      1 UNK         0.0000 
     14 N14         6.7043   54.9514   24.0533 N.pl3     1 UNK         0.0000 
     15 H15         7.6571   55.2972   24.0271 H         1 UNK         0.0000 
     16 C16         5.9989   54.7034   22.8948 C.ar      1 UNK         0.0000 
     17 C17         6.5709   55.0649   21.5893 C.2       1 UNK         0.0000 
     18 O18         5.9488   54.9360   20.5326 O.2       1 UNK         0.0000 
     19 O19         7.8318   55.5487   21.6801 O.3       1 UNK         0.0000 
     20 C20         8.5711   55.8337   20.4991 C.3       1 UNK         0.0000 
     21 Br21        2.5227   53.6384   28.1988 Br        1 UNK         0.0000 
     22 C22         1.9940   50.0896   22.1313 C.3       1 UNK         0.0000 
     23 C23         0.7760   49.4058   22.7880 C.3       1 UNK         0.0000 
     24 C24         0.0933   50.3030   23.8386 C.3       1 UNK         0.0000 
     25 C25        -0.3359   51.6835   23.2715 C.3       1 UNK         0.0000 
     26 C26         0.9357   52.3629   22.6998 C.3       1 UNK         0.0000 
     27 C27        -1.4201   51.5249   22.1759 C.3       1 UNK         0.0000 
     28 C28        -0.8361   52.5488   24.4491 C.3       1 UNK         0.0000 
     29 H29         3.8311   52.1286   18.9286 H         1 UNK         0.0000 
     30 H30         3.5622   50.5546   19.6815 H         1 UNK         0.0000 
     31 H31         2.2464   51.3568   18.8190 H         1 UNK         0.0000 
     32 H32         2.8752   54.2009   22.4089 H         1 UNK         0.0000 
     33 H33         2.6784   53.5623   25.2547 H         1 UNK         0.0000 
     34 H34         5.2960   54.5899   28.4697 H         1 UNK         0.0000 
     35 H35         7.1044   55.1713   26.9204 H         1 UNK         0.0000 
     36 H36         9.5045   56.3320   20.7566 H         1 UNK         0.0000 
     37 H37         8.8107   54.9148   19.9625 H         1 UNK         0.0000 
     38 H38         8.0151   56.4921   19.8284 H         1 UNK         0.0000 
     39 H39         2.8169   50.2342   22.8316 H         1 UNK         0.0000 
     40 H40         2.3343   49.4956   21.2828 H         1 UNK         0.0000 
     41 H41         1.1083   48.4967   23.2824 H         1 UNK         0.0000 
     42 H42         0.0657   49.0853   22.0263 H         1 UNK         0.0000 
     43 H43         0.7771   50.4366   24.6800 H         1 UNK         0.0000 
     44 H44        -0.7724   49.7850   24.2558 H         1 UNK         0.0000 
     45 H45         0.7018   53.3196   22.2371 H         1 UNK         0.0000 
     46 H46         1.7015   52.5023   23.4625 H         1 UNK         0.0000 
     47 H47        -1.0850   50.9404   21.3192 H         1 UNK         0.0000 
     48 H48        -1.7428   52.4956   21.7958 H         1 UNK         0.0000 
     49 H49        -2.3062   51.0275   22.5730 H         1 UNK         0.0000 
     50 H50        -0.0775   52.6672   25.2255 H         1 UNK         0.0000 
     51 H51        -1.1219   53.5476   24.1179 H         1 UNK         0.0000 
     52 H52        -1.7123   52.1027   24.9236 H         1 UNK         0.0000 
     53 N53         1.5642   51.4794   21.5882 N.4       1 UNK         0.0000 
     54 H54         0.8275   51.3108   20.9184 H         1 UNK         0.0000 
@<TRIPOS>BOND
     1    1    2 1    
     2    1   29 1    
     3    1   30 1    
     4    1   31 1    
     5    2    3 1    
     6    2    4 1    
     7    2   53 1    
     8    4    5 2    
     9    4    6 am   BACKBONE|DICT|INTERRES
    10    6    7 1    
    11    6   32 1    
    12    7   16 ar   
    13    7    8 ar   
    14    8   13 ar   
    15    8    9 ar   
    16    9   10 ar   
    17    9   33 1    
    18   10   11 ar   
    19   10   21 1    
    20   11   12 ar   
    21   11   34 1    
    22   12   13 ar   
    23   12   35 1    
    24   13   14 ar   
    25   14   15 1    
    26   14   16 ar   
    27   16   17 1    
    28   17   18 2    
    29   17   19 1    
    30   19   20 1    
    31   20   36 1    
    32   20   37 1    
    33   20   38 1    
    34   22   23 1    
    35   22   39 1    
    36   22   40 1    
    37   22   53 1    
    38   23   24 1    
    39   23   41 1    
    40   23   42 1    
    41   24   25 1    
    42   24   43 1    
    43   24   44 1    
    44   25   26 1    
    45   25   27 1    
    46   25   28 1    
    47   26   45 1    
    48   26   46 1    
    49   26   53 1    
    50   27   47 1    
    51   27   48 1    
    52   27   49 1    
    53   28   50 1    
    54   28   51 1    
    55   28   52 1    
    56   53   54 1    
@<TRIPOS>SUBSTRUCTURE
     1 UNK         1 GROUP             0       ****    0 ROOT    
