ZINC13134113_420
                    3D
 Schrodinger Suite 2024-2.
 47 50  0  0  1  0            999 V2000
   12.1672   51.8677   14.7542 C   0  0  0  0  0  0
   12.7220   50.7294   15.3382 C   0  0  0  0  0  0
   11.9550   49.9424   16.1963 C   0  0  0  0  0  0
   10.6321   50.2895   16.4699 C   0  0  0  0  0  0
   10.0645   51.4281   15.8805 C   0  0  0  0  0  0
   10.8433   52.2156   15.0241 C   0  0  0  0  0  0
    8.6072   51.8056   16.1373 C   0  0  0  0  0  0
    8.3770   53.0161   17.0360 C   0  0  0  0  0  0
    9.2968   53.7986   17.5476 N   0  0  0  0  0  0
    8.6402   54.7857   18.2780 N   0  0  0  0  0  0
    7.3559   54.5239   18.2381 C   0  0  0  0  0  0
    7.1233   53.4363   17.4200 N   0  0  0  0  0  0
    5.9121   52.8967   17.0245 N   0  0  0  0  0  0
    6.1276   55.6025   18.9047 S   0  0  0  0  0  0
    5.4444   54.5201   20.2095 C   0  0  0  0  0  0
    5.9007   54.8865   21.6336 C   0  0  0  0  0  0
    6.8691   55.6299   21.7957 O   0  0  0  0  0  0
    5.1644   54.3470   22.6349 N   0  0  0  0  0  0
    5.3454   54.4971   24.0118 C   0  0  0  0  0  0
    4.4674   54.0460   24.8749 N   0  0  0  0  0  0
    4.8281   54.2214   26.1426 C   0  0  0  0  0  0
    6.0418   54.8968   26.2959 C   0  0  0  0  0  0
    6.7043   55.2946   24.7483 S   0  0  0  0  0  0
    3.9867   53.6956   27.2697 C   0  0  0  0  0  0
    4.5816   53.4621   28.5184 C   0  0  0  0  0  0
    3.8386   52.9293   29.5679 C   0  0  0  0  0  0
    2.4937   52.6305   29.3772 C   0  0  0  0  0  0
    1.8845   52.8632   28.1467 C   0  0  0  0  0  0
    2.6283   53.3941   27.0951 C   0  0  0  0  0  0
    1.7803   52.1027   30.3949 F   0  0  0  0  0  0
    9.9048   49.5049   17.2964 F   0  0  0  0  0  0
   12.7612   52.4747   14.0873 H   0  0  0  0  0  0
   13.7438   50.4553   15.1221 H   0  0  0  0  0  0
   12.3803   49.0602   16.6495 H   0  0  0  0  0  0
   10.4186   53.0957   14.5636 H   0  0  0  0  0  0
    8.0815   50.9444   16.5506 H   0  0  0  0  0  0
    8.1265   51.9730   15.1724 H   0  0  0  0  0  0
    5.5065   52.2339   17.6815 H   0  0  0  0  0  0
    5.2700   53.5729   16.6394 H   0  0  0  0  0  0
    5.6894   53.4778   20.0081 H   0  0  0  0  0  0
    4.3589   54.6085   20.1583 H   0  0  0  0  0  0
    4.3561   53.8074   22.3652 H   0  0  0  0  0  0
    6.5529   55.1750   27.2072 H   0  0  0  0  0  0
    5.6294   53.6685   28.6801 H   0  0  0  0  0  0
    4.3047   52.7386   30.5227 H   0  0  0  0  0  0
    0.8415   52.6220   28.0095 H   0  0  0  0  0  0
    2.1470   53.5591   26.1423 H   0  0  0  0  0  0
  1  6  2  0  0  0
  1  2  1  0  0  0
  1 32  1  0  0  0
  2  3  2  0  0  0
  2 33  1  0  0  0
  3  4  1  0  0  0
  3 34  1  0  0  0
  4  5  2  0  0  0
  4 31  1  0  0  0
  5  6  1  0  0  0
  5  7  1  0  0  0
  6 35  1  0  0  0
  7  8  1  0  0  0
  7 36  1  0  0  0
  7 37  1  0  0  0
  8 12  1  0  0  0
  8  9  2  0  0  0
  9 10  1  0  0  0
 10 11  2  0  0  0
 11 12  1  0  0  0
 11 14  1  0  0  0
 12 13  1  0  0  0
 13 38  1  0  0  0
 13 39  1  0  0  0
 14 15  1  0  0  0
 15 16  1  0  0  0
 15 40  1  0  0  0
 15 41  1  0  0  0
 16 17  2  0  0  0
 16 18  1  0  0  0
 18 19  1  0  0  0
 18 42  1  0  0  0
 19 23  1  0  0  0
 19 20  2  0  0  0
 20 21  1  0  0  0
 21 22  2  0  0  0
 21 24  1  0  0  0
 22 23  1  0  0  0
 22 43  1  0  0  0
 24 29  2  0  0  0
 24 25  1  0  0  0
 25 26  2  0  0  0
 25 44  1  0  0  0
 26 27  1  0  0  0
 26 45  1  0  0  0
 27 28  2  0  0  0
 27 30  1  0  0  0
 28 29  1  0  0  0
 28 46  1  0  0  0
 29 47  1  0  0  0
M  END
> <i_i_glide_confnum>
79

> <i_i_glide_lignum>
421

> <i_i_glide_posenum>
355

> <i_i_glide_rotatable_bonds>
8

> <i_m_Source_File_Index>
4542

> <b_m_subgroup_collapsed>
0

> <r_i_docking_score>
-5.89341

> <r_i_glide_ecoul>
-2.70202

> <r_i_glide_eff_state_penalty>
0

> <r_i_glide_einternal>
1.16985

> <r_i_glide_emodel>
-67.0713

> <r_i_glide_energy>
-48.6115

> <r_i_glide_erotb>
0.76538

> <r_i_glide_esite>
-0.134491

> <r_i_glide_evdw>
-45.9094

> <r_i_glide_gscore>
-5.89341

> <r_i_glide_hbond>
-0.136399

> <r_i_glide_ligand_efficiency>
-0.19011

> <r_i_glide_ligand_efficiency_ln>
-1.32914

> <r_i_glide_ligand_efficiency_sa>
-0.597208

> <r_i_glide_lipo>
-2.7661

> <r_i_glide_metal>
0

> <r_i_glide_rewards>
-0.921023

> <s_i_glide_gridfile>
wee1_glide-grid

> <s_m_Source_File>
wee1_decoys_glide_SP.sdf

> <s_m_Source_Path>
/Users/zhangxujun/Desktop

> <s_m_entry_id>
4817

> <s_m_entry_name>
wee1_decoys_glide_SP.4542

> <s_m_subgroup_title>
wee1_decoys_glide_SP

> <s_m_subgroupid>
wee1_decoys_glide_SP


$$$$
