@<TRIPOS>MOLECULE
ZINC08846199_2489
49   52    1
SMALL
USER_CHARGES


@<TRIPOS>ATOM
      1 C1          5.8221   57.6960   17.3923 C.3       1 UNK         0.0000 
      2 C2          6.1005   56.1843   17.4105 C.3       1 UNK         0.0000 
      3 O3          5.8625   55.6289   18.7012 O.3       1 UNK         0.0000 
      4 C4          6.7925   55.6940   19.6911 C.2       1 UNK         0.0000 
      5 O5          7.9049   56.2086   19.5500 O.2       1 UNK         0.0000 
      6 C6          6.3044   55.1429   20.9970 C.ar      1 UNK         0.0000 
      7 C7          5.0640   54.4967   21.1157 C.ar      1 UNK         0.0000 
      8 C8          4.5944   54.1005   22.3646 C.ar      1 UNK         0.0000 
      9 C9          5.3536   54.3499   23.5122 C.ar      1 UNK         0.0000 
     10 C10         6.6286   54.9025   23.3877 C.ar      1 UNK         0.0000 
     11 C11         7.1000   55.2973   22.1393 C.ar      1 UNK         0.0000 
     12 C12         4.7829   54.0966   24.8653 C.2       1 UNK         0.0000 
     13 C13         5.2995   54.0968   26.1549 C.2       1 UNK         0.0000 
     14 C14         4.2439   53.7886   27.0153 C.2       1 UNK         0.0000 
     15 C15         3.1107   53.6245   26.2279 C.2       1 UNK         0.0000 
     16 O16         3.4527   53.8220   24.9294 O.3       1 UNK         0.0000 
     17 C17         1.6378   53.3432   26.4966 C.3       1 UNK         0.0000 
     18 H18         1.1065   54.1335   25.9856 H         1 UNK         0.0000 
     19 C19         1.2380   53.3989   27.9802 C.ar      1 UNK         0.0000 
     20 C20         1.5247   54.5100   28.7845 C.ar      1 UNK         0.0000 
     21 C21         1.1928   54.5241   30.1384 C.ar      1 UNK         0.0000 
     22 C22         0.5641   53.4212   30.7153 C.ar      1 UNK         0.0000 
     23 C23         0.2078   52.3353   29.9240 C.ar      1 UNK         0.0000 
     24 C24         0.5457   52.3255   28.5730 C.ar      1 UNK         0.0000 
     25 O25         0.1720   51.2031   27.8690 O.3       1 UNK         0.0000 
     26 C26         0.4326   51.1367   26.5439 C.2       1 UNK         0.0000 
     27 C27         1.0978   52.0741   25.8349 C.2       1 UNK         0.0000 
     28 C28         1.2713   51.9110   24.4260 C.1       1 UNK         0.0000 
     29 N29         1.3933   51.7925   23.2819 N.1       1 UNK         0.0000 
     30 N30        -0.0957   49.9611   26.0821 N.pl3     1 UNK         0.0000 
     31 N31         0.3044   53.3966   32.0815 N.pl3     1 UNK         0.0000 
     32 H32         5.9751   58.1098   16.3953 H         1 UNK         0.0000 
     33 H33         4.7922   57.9091   17.6810 H         1 UNK         0.0000 
     34 H34         6.4796   58.2361   18.0745 H         1 UNK         0.0000 
     35 H35         7.1178   55.9716   17.0750 H         1 UNK         0.0000 
     36 H36         5.4326   55.6884   16.7051 H         1 UNK         0.0000 
     37 H37         4.4281   54.3328   20.2560 H         1 UNK         0.0000 
     38 H38         3.6131   53.6524   22.4369 H         1 UNK         0.0000 
     39 H39         7.2404   55.0811   24.2592 H         1 UNK         0.0000 
     40 H40         8.0751   55.7627   22.0815 H         1 UNK         0.0000 
     41 H41         6.3235   54.2861   26.4393 H         1 UNK         0.0000 
     42 H42         4.2957   53.7009   28.0904 H         1 UNK         0.0000 
     43 H43         2.0283   55.3661   28.3584 H         1 UNK         0.0000 
     44 H44         1.4456   55.3863   30.7388 H         1 UNK         0.0000 
     45 H45        -0.3195   51.4942   30.3513 H         1 UNK         0.0000 
     46 H46         0.0529   49.6498   25.1341 H         1 UNK         0.0000 
     47 H47        -0.5289   49.3126   26.7331 H         1 UNK         0.0000 
     48 H48        -0.3379   52.6788   32.4396 H         1 UNK         0.0000 
     49 H49         0.3557   54.2706   32.5802 H         1 UNK         0.0000 
@<TRIPOS>BOND
     1    1    2 1    
     2    1   32 1    
     3    1   33 1    
     4    1   34 1    
     5    2    3 1    
     6    2   35 1    
     7    2   36 1    
     8    3    4 1    
     9    4    5 2    
    10    4    6 1    
    11    6   11 ar   
    12    6    7 ar   
    13    7    8 ar   
    14    7   37 1    
    15    8    9 ar   
    16    8   38 1    
    17    9   10 ar   
    18    9   12 1    
    19   10   11 ar   
    20   10   39 1    
    21   11   40 1    
    22   12   16 1    
    23   12   13 2    
    24   13   14 1    
    25   13   41 1    
    26   14   15 2    
    27   14   42 1    
    28   15   16 1    
    29   15   17 1    
    30   17   18 1    
    31   17   27 1    
    32   17   19 1    
    33   19   24 ar   
    34   19   20 ar   
    35   20   21 ar   
    36   20   43 1    
    37   21   22 ar   
    38   21   44 1    
    39   22   23 ar   
    40   22   31 1    
    41   23   24 ar   
    42   23   45 1    
    43   24   25 1    
    44   25   26 1    
    45   26   27 2    
    46   26   30 1    
    47   27   28 1    
    48   28   29 3    
    49   30   46 1    
    50   30   47 1    
    51   31   48 1    
    52   31   49 1    
@<TRIPOS>SUBSTRUCTURE
     1 UNK         1 GROUP             0       ****    0 ROOT    
