ZINC38847373_1094
                    3D
 Schrodinger Suite 2024-2.
 65 68  0  0  1  0            999 V2000
    4.6543   54.2237   21.2393 C   0  0  0  0  0  0
    3.5045   53.3196   20.7428 N   0  3  0  0  0  0
    4.0078   52.3576   19.6430 C   0  0  0  0  0  0
    2.8070   52.5594   21.8937 C   0  0  0  0  0  0
    1.8928   53.4980   22.7186 C   0  0  0  0  0  0
    1.2790   52.8251   23.8989 N   0  0  0  0  0  0
    1.8913   53.0803   25.1519 C   0  0  0  0  0  0
    3.1038   53.5705   25.2296 N   0  0  0  0  0  0
    3.5269   53.7634   26.5086 C   0  0  0  0  0  0
    4.8069   54.2123   26.8818 C   0  0  0  0  0  0
    5.0812   54.3651   28.2502 C   0  0  0  0  0  0
    4.1178   54.0799   29.2163 C   0  0  0  0  0  0
    2.8494   53.6181   28.8663 C   0  0  0  0  0  0
    2.5674   53.4598   27.5042 C   0  0  0  0  0  0
    1.1041   52.8966   26.7231 S   0  0  0  0  0  0
    5.6800   54.4614   25.8439 O   0  0  0  0  0  0
    7.0257   54.7699   26.1579 C   0  0  0  0  0  0
    0.2506   51.9508   23.6228 C   0  0  0  0  0  0
   -0.2571   51.9326   22.4945 O   0  0  0  0  0  0
   -0.3235   50.8863   24.6024 C   0  0  0  0  0  0
   -1.8755   51.0826   24.7352 C   0  0  0  0  0  0
   -2.5955   49.8452   25.3053 C   0  0  0  0  0  0
   -2.1167   48.6315   24.6163 N   0  0  0  0  0  0
   -0.6869   48.3514   24.8454 C   0  0  0  0  0  0
    0.1327   49.4596   24.1513 C   0  0  0  0  0  0
   -3.2552   47.3020   24.3588 S   0  0  0  0  0  0
   -2.4989   46.0969   24.0003 O   0  0  0  0  0  0
   -4.3193   47.8005   23.4801 O   0  0  0  0  0  0
   -4.0050   47.0073   25.9548 C   0  0  0  0  0  0
   -3.2954   46.3131   26.9352 C   0  0  0  0  0  0
   -3.8592   46.1354   28.1947 C   0  0  0  0  0  0
   -5.1237   46.6519   28.4659 C   0  0  0  0  0  0
   -5.8406   47.3312   27.4862 C   0  0  0  0  0  0
   -5.2789   47.5141   26.2275 C   0  0  0  0  0  0
   -5.6651   46.4969   29.6933 F   0  0  0  0  0  0
    5.4237   53.5820   21.6716 H   0  0  0  0  0  0
    5.0304   54.7757   20.3764 H   0  0  0  0  0  0
    4.2500   54.9069   21.9846 H   0  0  0  0  0  0
    4.7561   51.6953   20.0814 H   0  0  0  0  0  0
    3.1558   51.7896   19.2688 H   0  0  0  0  0  0
    4.4403   52.9567   18.8397 H   0  0  0  0  0  0
    3.5954   52.0940   22.4817 H   0  0  0  0  0  0
    2.2131   51.7747   21.4198 H   0  0  0  0  0  0
    1.1085   53.9041   22.0796 H   0  0  0  0  0  0
    2.4430   54.3828   23.0327 H   0  0  0  0  0  0
    6.0482   54.7139   28.5841 H   0  0  0  0  0  0
    4.3669   54.2152   30.2583 H   0  0  0  0  0  0
    2.1075   53.3854   29.6174 H   0  0  0  0  0  0
    7.5650   54.8975   25.2205 H   0  0  0  0  0  0
    7.1040   55.6964   26.7258 H   0  0  0  0  0  0
    7.5037   53.9667   26.7207 H   0  0  0  0  0  0
    0.0842   50.9564   25.5949 H   0  0  0  0  0  0
   -2.3397   51.2230   23.7549 H   0  0  0  0  0  0
   -2.1134   51.9271   25.3841 H   0  0  0  0  0  0
   -3.6794   49.9247   25.2135 H   0  0  0  0  0  0
   -2.3405   49.7543   26.3643 H   0  0  0  0  0  0
   -0.4912   48.3699   25.9200 H   0  0  0  0  0  0
   -0.4267   47.3615   24.4682 H   0  0  0  0  0  0
    1.1833   49.2886   24.3925 H   0  0  0  0  0  0
   -0.0380   49.3075   23.0831 H   0  0  0  0  0  0
   -2.2938   45.9543   26.7451 H   0  0  0  0  0  0
   -3.2942   45.6412   28.9694 H   0  0  0  0  0  0
   -6.8214   47.7236   27.7097 H   0  0  0  0  0  0
   -5.8321   48.0573   25.4748 H   0  0  0  0  0  0
    2.8004   53.9202   20.3201 H   0  0  0  0  0  0
  1  2  1  0  0  0
  1 36  1  0  0  0
  1 37  1  0  0  0
  1 38  1  0  0  0
  2  3  1  0  0  0
  2  4  1  0  0  0
  2 65  1  0  0  0
  3 39  1  0  0  0
  3 40  1  0  0  0
  3 41  1  0  0  0
  4  5  1  0  0  0
  4 42  1  0  0  0
  4 43  1  0  0  0
  5  6  1  0  0  0
  5 44  1  0  0  0
  5 45  1  0  0  0
  6  7  1  0  0  0
  6 18  1  0  0  0
  7 15  1  0  0  0
  7  8  2  0  0  0
  8  9  1  0  0  0
  9 14  2  0  0  0
  9 10  1  0  0  0
 10 11  2  0  0  0
 10 16  1  0  0  0
 11 12  1  0  0  0
 11 46  1  0  0  0
 12 13  2  0  0  0
 12 47  1  0  0  0
 13 14  1  0  0  0
 13 48  1  0  0  0
 14 15  1  0  0  0
 16 17  1  0  0  0
 17 49  1  0  0  0
 17 50  1  0  0  0
 17 51  1  0  0  0
 18 19  2  0  0  0
 18 20  1  0  0  0
 20 25  1  0  0  0
 20 21  1  0  0  0
 20 52  1  0  0  0
 21 22  1  0  0  0
 21 53  1  0  0  0
 21 54  1  0  0  0
 22 23  1  0  0  0
 22 55  1  0  0  0
 22 56  1  0  0  0
 23 24  1  0  0  0
 23 26  1  0  0  0
 24 25  1  0  0  0
 24 57  1  0  0  0
 24 58  1  0  0  0
 25 59  1  0  0  0
 25 60  1  0  0  0
 26 27  2  0  0  0
 26 28  2  0  0  0
 26 29  1  0  0  0
 29 34  2  0  0  0
 29 30  1  0  0  0
 30 31  2  0  0  0
 30 61  1  0  0  0
 31 32  1  0  0  0
 31 62  1  0  0  0
 32 33  2  0  0  0
 32 35  1  0  0  0
 33 34  1  0  0  0
 33 63  1  0  0  0
 34 64  1  0  0  0
M  CHG  1   2   1
M  END
> <i_i_glide_confnum>
14

> <i_i_glide_lignum>
1095

> <i_i_glide_posenum>
398

> <i_i_glide_rotatable_bonds>
9

> <i_m_Source_File_Index>
3278

> <b_m_subgroup_collapsed>
0

> <r_i_docking_score>
-4.33595

> <r_i_glide_ecoul>
-4.23497

> <r_i_glide_eff_state_penalty>
0

> <r_i_glide_einternal>
8.63166

> <r_i_glide_emodel>
-56.2315

> <r_i_glide_energy>
-45.9595

> <r_i_glide_erotb>
0.528858

> <r_i_glide_esite>
-0.209392

> <r_i_glide_evdw>
-41.7245

> <r_i_glide_gscore>
-4.33595

> <r_i_glide_hbond>
0

> <r_i_glide_ligand_efficiency>
-0.123884

> <r_i_glide_ligand_efficiency_ln>
-0.951837

> <r_i_glide_ligand_efficiency_sa>
-0.405234

> <r_i_glide_lipo>
-1.91067

> <r_i_glide_metal>
0

> <r_i_glide_rewards>
-0.023278

> <s_i_glide_gridfile>
wee1_glide-grid

> <s_m_Source_File>
wee1_decoys_glide_SP.sdf

> <s_m_Source_Path>
/Users/zhangxujun/Desktop

> <s_m_entry_id>
3553

> <s_m_entry_name>
wee1_decoys_glide_SP.3278

> <s_m_subgroup_title>
wee1_decoys_glide_SP

> <s_m_subgroupid>
wee1_decoys_glide_SP


$$$$
