@<TRIPOS>MOLECULE
ZINC13364638_5632
54   57    1
SMALL
USER_CHARGES


@<TRIPOS>ATOM
      1 C1         -3.3392   49.5467   23.1265 C.3       1 UNK         0.0000 
      2 C2         -4.0641   50.2213   24.3042 C.3       1 UNK         0.0000 
      3 C3         -3.2230   50.3329   25.5999 C.3       1 UNK         0.0000 
      4 H4         -2.9039   49.3197   25.8553 H         1 UNK         0.0000 
      5 C5         -4.0711   50.9147   26.7569 C.3       1 UNK         0.0000 
      6 C6         -3.3500   50.7918   28.1142 C.3       1 UNK         0.0000 
      7 C7         -1.9322   51.3151   27.9455 C.2       1 UNK         0.0000 
      8 C8         -1.2853   51.5000   26.7192 C.2       1 UNK         0.0000 
      9 C9          0.0454   51.9014   26.8888 C.2       1 UNK         0.0000 
     10 C10         0.4257   52.0814   28.2170 C.2       1 UNK         0.0000 
     11 S11        -0.8955   51.6968   29.2810 S.3       1 UNK         0.0000 
     12 C12         1.7216   52.4748   28.7615 C.ar      1 UNK         0.0000 
     13 N13         2.1663   52.0975   29.9375 N.2       1 UNK         0.0000 
     14 N14         3.4099   52.6842   30.1256 N.2       1 UNK         0.0000 
     15 C15         3.6649   53.4020   29.0617 C.ar      1 UNK         0.0000 
     16 N16         2.6269   53.3275   28.1594 N.pl3     1 UNK         0.0000 
     17 C17         2.4907   54.0456   26.9005 C.3       1 UNK         0.0000 
     18 S18         5.1044   54.3838   28.8815 S.3       1 UNK         0.0000 
     19 C19         5.8803   53.4485   27.5253 C.3       1 UNK         0.0000 
     20 C20         6.1147   54.3224   26.2914 C.2       1 UNK         0.0000 
     21 O21         6.8527   55.2968   26.4019 O.2       1 UNK         0.0000 
     22 N22         5.4876   53.9540   25.1536 N.am      1 UNK         0.0000 
     23 C23         5.6418   54.4613   23.8492 C.ar      1 UNK         0.0000 
     24 C24         6.7046   55.2826   23.4677 C.ar      1 UNK         0.0000 
     25 C25         6.8506   55.6938   22.1514 C.ar      1 UNK         0.0000 
     26 C26         5.9185   55.3154   21.1799 C.ar      1 UNK         0.0000 
     27 C27         4.8537   54.4814   21.5576 C.ar      1 UNK         0.0000 
     28 C28         4.7195   54.0555   22.8816 C.ar      1 UNK         0.0000 
     29 C29         6.0530   55.8362   19.7809 C.2       1 UNK         0.0000 
     30 O30         5.3097   55.3487   18.9006 O.co2     1 UNK         0.0000 
     31 C31        -1.9546   51.2039   25.3783 C.3       1 UNK         0.0000 
     32 H32        -4.0103   49.4346   22.2749 H         1 UNK         0.0000 
     33 H33        -2.4833   50.1320   22.7889 H         1 UNK         0.0000 
     34 H34        -2.9813   48.5523   23.3973 H         1 UNK         0.0000 
     35 H35        -4.9685   49.6476   24.5165 H         1 UNK         0.0000 
     36 H36        -4.4061   51.2112   23.9966 H         1 UNK         0.0000 
     37 H37        -5.0137   50.3713   26.8272 H         1 UNK         0.0000 
     38 H38        -4.3655   51.9421   26.5362 H         1 UNK         0.0000 
     39 H39        -3.3195   49.7454   28.4217 H         1 UNK         0.0000 
     40 H40        -3.8915   51.3342   28.8883 H         1 UNK         0.0000 
     41 H41         0.7112   52.0497   26.0536 H         1 UNK         0.0000 
     42 H42         1.5030   54.4935   26.8499 H         1 UNK         0.0000 
     43 H43         3.2254   54.8474   26.8298 H         1 UNK         0.0000 
     44 H44         2.6445   53.3543   26.0688 H         1 UNK         0.0000 
     45 H45         5.3244   52.5391   27.2823 H         1 UNK         0.0000 
     46 H46         6.8566   53.1146   27.8756 H         1 UNK         0.0000 
     47 H47         4.8614   53.1677   25.2234 H         1 UNK         0.0000 
     48 H48         7.4704   55.5983   24.1567 H         1 UNK         0.0000 
     49 H49         7.6995   56.3120   21.8975 H         1 UNK         0.0000 
     50 H50         4.1152   54.1751   20.8286 H         1 UNK         0.0000 
     51 H51         3.8933   53.4102   23.1445 H         1 UNK         0.0000 
     52 H52        -2.2157   52.1449   24.8917 H         1 UNK         0.0000 
     53 H53        -1.2521   50.6929   24.7198 H         1 UNK         0.0000 
     54 O54         6.8834   56.7568   19.5874 O.co2     1 UNK         0.0000 
@<TRIPOS>BOND
     1    1    2 1    
     2    1   32 1    
     3    1   33 1    
     4    1   34 1    
     5    2    3 1    
     6    2   35 1    
     7    2   36 1    
     8    3    4 1    
     9    3   31 1    
    10    3    5 1    
    11    5    6 1    
    12    5   37 1    
    13    5   38 1    
    14    6    7 1    
    15    6   39 1    
    16    6   40 1    
    17    7   11 1    
    18    7    8 2    
    19    8    9 1    
    20    8   31 1    
    21    9   10 2    
    22    9   41 1    
    23   10   11 1    
    24   10   12 1    
    25   12   16 ar   
    26   12   13 ar   
    27   13   14 ar   
    28   14   15 ar   
    29   15   16 ar   
    30   15   18 1    
    31   16   17 1    
    32   17   42 1    
    33   17   43 1    
    34   17   44 1    
    35   18   19 1    
    36   19   20 1    
    37   19   45 1    
    38   19   46 1    
    39   20   21 2    
    40   20   22 am   BACKBONE|DICT|INTERRES
    41   22   23 1    
    42   22   47 1    
    43   23   28 ar   
    44   23   24 ar   
    45   24   25 ar   
    46   24   48 1    
    47   25   26 ar   
    48   25   49 1    
    49   26   27 ar   
    50   26   29 1    
    51   27   28 ar   
    52   27   50 1    
    53   28   51 1    
    54   29   30 2    
    55   29   54 1    
    56   31   52 1    
    57   31   53 1    
@<TRIPOS>SUBSTRUCTURE
     1 UNK         1 GROUP             0       ****    0 ROOT    
