@<TRIPOS>MOLECULE
ZINC16047610_5582
59   63    1
SMALL
USER_CHARGES


@<TRIPOS>ATOM
      1 C1         -0.6321   51.8689   29.4610 C.3       1 UNK         0.0000 
      2 C2          0.6771   52.3877   28.8862 C.ar      1 UNK         0.0000 
      3 C3          0.7579   52.7476   27.5424 C.ar      1 UNK         0.0000 
      4 C4          1.9552   53.2281   27.0129 C.ar      1 UNK         0.0000 
      5 C5          3.1068   53.3486   27.8057 C.ar      1 UNK         0.0000 
      6 C6          3.0204   52.9681   29.1630 C.ar      1 UNK         0.0000 
      7 C7          1.8108   52.4981   29.6903 C.ar      1 UNK         0.0000 
      8 C8          4.2193   53.0357   30.0881 C.3       1 UNK         0.0000 
      9 C9          4.3648   53.8544   27.1390 C.2       1 UNK         0.0000 
     10 N10         5.5539   54.0959   27.6500 N.2       1 UNK         0.0000 
     11 N11         6.3836   54.4745   26.5970 N.2       1 UNK         0.0000 
     12 C12         5.6347   54.4164   25.5263 C.2       1 UNK         0.0000 
     13 O13         4.3456   54.0811   25.8000 O.3       1 UNK         0.0000 
     14 N14         6.0086   54.6898   24.2225 N.am      1 UNK         0.0000 
     15 C15         5.3203   54.3219   23.1180 C.2       1 UNK         0.0000 
     16 O16         4.2574   53.6968   23.1486 O.2       1 UNK         0.0000 
     17 C17         5.9049   54.7430   21.7823 C.ar      1 UNK         0.0000 
     18 C18         7.1642   55.3590   21.6814 C.ar      1 UNK         0.0000 
     19 C19         7.6929   55.6956   20.4380 C.ar      1 UNK         0.0000 
     20 C20         6.9611   55.4253   19.2819 C.ar      1 UNK         0.0000 
     21 C21         5.7002   54.8344   19.3630 C.ar      1 UNK         0.0000 
     22 C22         5.1769   54.4976   20.6073 C.ar      1 UNK         0.0000 
     23 S23         7.6811   55.7559   17.6817 S.o2      1 UNK         0.0000 
     24 O24         6.5843   55.8765   16.7138 O.2       1 UNK         0.0000 
     25 O25         8.6507   56.8452   17.8671 O.2       1 UNK         0.0000 
     26 N26         8.6050   54.2538   17.3575 N.pl3     1 UNK         0.0000 
     27 C27         9.9831   54.1999   17.8642 C.3       1 UNK         0.0000 
     28 C28        10.9923   54.1393   16.7028 C.3       1 UNK         0.0000 
     29 C29        10.7473   52.9062   15.8281 C.3       1 UNK         0.0000 
     30 C30         9.2699   52.7470   15.5041 C.ar      1 UNK         0.0000 
     31 C31         8.2694   53.3662   16.2945 C.ar      1 UNK         0.0000 
     32 C32         6.9222   53.0541   16.0556 C.ar      1 UNK         0.0000 
     33 C33         6.5530   52.2356   14.9891 C.ar      1 UNK         0.0000 
     34 C34         7.5303   51.6942   14.1596 C.ar      1 UNK         0.0000 
     35 C35         8.8759   51.9396   14.4272 C.ar      1 UNK         0.0000 
     36 H36        -1.1277   51.2080   28.7489 H         1 UNK         0.0000 
     37 H37        -1.2943   52.7000   29.6815 H         1 UNK         0.0000 
     38 H38        -0.4949   51.2969   30.3770 H         1 UNK         0.0000 
     39 H39        -0.1104   52.6599   26.9060 H         1 UNK         0.0000 
     40 H40         1.9782   53.4985   25.9675 H         1 UNK         0.0000 
     41 H41         1.7448   52.2131   30.7313 H         1 UNK         0.0000 
     42 H42         5.0342   52.4355   29.6815 H         1 UNK         0.0000 
     43 H43         4.5614   54.0691   30.1643 H         1 UNK         0.0000 
     44 H44         4.0019   52.6667   31.0923 H         1 UNK         0.0000 
     45 H45         6.9257   55.0864   24.0981 H         1 UNK         0.0000 
     46 H46         7.7737   55.5698   22.5453 H         1 UNK         0.0000 
     47 H47         8.6774   56.1376   20.3750 H         1 UNK         0.0000 
     48 H48         5.1341   54.6158   18.4678 H         1 UNK         0.0000 
     49 H49         4.2005   54.0351   20.6405 H         1 UNK         0.0000 
     50 H50        10.2124   55.0282   18.5366 H         1 UNK         0.0000 
     51 H51        10.0216   53.2966   18.4747 H         1 UNK         0.0000 
     52 H52        10.9062   55.0464   16.1004 H         1 UNK         0.0000 
     53 H53        12.0124   54.1288   17.0896 H         1 UNK         0.0000 
     54 H54        11.3448   52.9568   14.9157 H         1 UNK         0.0000 
     55 H55        11.0693   52.0159   16.3726 H         1 UNK         0.0000 
     56 H56         6.1407   53.4515   16.6880 H         1 UNK         0.0000 
     57 H57         5.5099   52.0216   14.8106 H         1 UNK         0.0000 
     58 H58         7.2485   51.0603   13.3309 H         1 UNK         0.0000 
     59 H59         9.6270   51.4750   13.8030 H         1 UNK         0.0000 
@<TRIPOS>BOND
     1    1    2 1    
     2    1   36 1    
     3    1   37 1    
     4    1   38 1    
     5    2    7 ar   
     6    2    3 ar   
     7    3    4 ar   
     8    3   39 1    
     9    4    5 ar   
    10    4   40 1    
    11    5    6 ar   
    12    5    9 1    
    13    6    7 ar   
    14    6    8 1    
    15    7   41 1    
    16    8   42 1    
    17    8   43 1    
    18    8   44 1    
    19    9   13 1    
    20    9   10 2    
    21   10   11 1    
    22   11   12 2    
    23   12   13 1    
    24   12   14 am   BACKBONE|DICT|INTERRES
    25   14   15 am   BACKBONE|DICT|INTERRES
    26   14   45 1    
    27   15   16 2    
    28   15   17 1    
    29   17   22 ar   
    30   17   18 ar   
    31   18   19 ar   
    32   18   46 1    
    33   19   20 ar   
    34   19   47 1    
    35   20   21 ar   
    36   20   23 1    
    37   21   22 ar   
    38   21   48 1    
    39   22   49 1    
    40   23   24 2    
    41   23   25 2    
    42   23   26 1    
    43   26   31 1    
    44   26   27 1    
    45   27   28 1    
    46   27   50 1    
    47   27   51 1    
    48   28   29 1    
    49   28   52 1    
    50   28   53 1    
    51   29   30 1    
    52   29   54 1    
    53   29   55 1    
    54   30   35 ar   
    55   30   31 ar   
    56   31   32 ar   
    57   32   33 ar   
    58   32   56 1    
    59   33   34 ar   
    60   33   57 1    
    61   34   35 ar   
    62   34   58 1    
    63   35   59 1    
@<TRIPOS>SUBSTRUCTURE
     1 UNK         1 GROUP             0       ****    0 ROOT    
