@<TRIPOS>MOLECULE
ZINC12858083_3408
58   61    1
SMALL
USER_CHARGES


@<TRIPOS>ATOM
      1 C1          1.1049   55.7423   29.4953 C.3       1 UNK         0.0000 
      2 C2          2.5146   55.1495   29.4991 C.3       1 UNK         0.0000 
      3 C3          2.6088   53.6397   29.1665 C.3       1 UNK         0.0000 
      4 H4          1.9401   53.1289   29.8618 H         1 UNK         0.0000 
      5 C5          4.0130   53.0567   29.3770 C.3       1 UNK         0.0000 
      6 C6          5.0130   53.8022   28.4790 C.3       1 UNK         0.0000 
      7 C7          4.5377   53.8598   27.0207 C.ar      1 UNK         0.0000 
      8 C8          3.1927   53.5958   26.6450 C.ar      1 UNK         0.0000 
      9 C9          2.8675   53.5580   25.2606 C.ar      1 UNK         0.0000 
     10 C10         3.8929   53.8929   24.3273 C.ar      1 UNK         0.0000 
     11 C11         3.9236   53.9832   22.8843 C.2       1 UNK         0.0000 
     12 C12         5.1484   54.4126   22.3636 C.2       1 UNK         0.0000 
     13 S13         6.3717   54.5194   23.6209 S.3       1 UNK         0.0000 
     14 C14         5.1826   54.1653   24.8509 C.ar      1 UNK         0.0000 
     15 N15         5.5192   54.1233   26.1289 N.ar      1 UNK         0.0000 
     16 C16         5.5049   54.6287   20.9668 C.2       1 UNK         0.0000 
     17 O17         4.7564   54.2617   20.0609 O.2       1 UNK         0.0000 
     18 N18         6.6637   55.2975   20.7689 N.am      1 UNK         0.0000 
     19 C19         7.2450   55.7007   19.5536 C.ar      1 UNK         0.0000 
     20 C20         8.6082   55.9913   19.5890 C.ar      1 UNK         0.0000 
     21 C21         9.2727   56.3820   18.4305 C.ar      1 UNK         0.0000 
     22 C22         8.5829   56.4957   17.2141 C.ar      1 UNK         0.0000 
     23 C23         7.2087   56.2230   17.1885 C.ar      1 UNK         0.0000 
     24 C24         6.5420   55.8342   18.3458 C.ar      1 UNK         0.0000 
     25 C25         9.2768   56.8865   15.9417 C.2       1 UNK         0.0000 
     26 O26         8.7117   56.9215   14.8432 O.2       1 UNK         0.0000 
     27 O27        10.5873   57.2106   16.1225 O.3       1 UNK         0.0000 
     28 C28        11.4231   57.5937   15.0349 C.3       1 UNK         0.0000 
     29 C29        11.1927   59.0579   14.6225 C.3       1 UNK         0.0000 
     30 N30         2.8504   53.7087   22.0818 N.pl3     1 UNK         0.0000 
     31 C31         1.4832   53.0874   24.7548 C.3       1 UNK         0.0000 
     32 F32         0.6133   52.6555   25.6629 F         1 UNK         0.0000 
     33 F33         0.8969   54.0781   24.0831 F         1 UNK         0.0000 
     34 F34         1.6584   52.0592   23.9265 F         1 UNK         0.0000 
     35 C35         2.1568   53.2750   27.7424 C.3       1 UNK         0.0000 
     36 H36         1.1082   56.7626   29.8831 H         1 UNK         0.0000 
     37 H37         0.7067   55.7911   28.4823 H         1 UNK         0.0000 
     38 H38         0.4204   55.1584   30.1105 H         1 UNK         0.0000 
     39 H39         2.9441   55.2966   30.4816 H         1 UNK         0.0000 
     40 H40         3.1194   55.7369   28.8116 H         1 UNK         0.0000 
     41 H41         4.3045   53.1772   30.4203 H         1 UNK         0.0000 
     42 H42         4.0322   51.9868   29.1559 H         1 UNK         0.0000 
     43 H43         5.9894   53.3163   28.5386 H         1 UNK         0.0000 
     44 H44         5.1731   54.8172   28.8484 H         1 UNK         0.0000 
     45 H45         7.2201   55.4715   21.5920 H         1 UNK         0.0000 
     46 H46         9.1696   55.9030   20.5089 H         1 UNK         0.0000 
     47 H47        10.3330   56.5812   18.4934 H         1 UNK         0.0000 
     48 H48         6.6421   56.3063   16.2708 H         1 UNK         0.0000 
     49 H49         5.4821   55.6432   18.2757 H         1 UNK         0.0000 
     50 H50        11.2843   56.9227   14.1815 H         1 UNK         0.0000 
     51 H51        12.4595   57.4723   15.3548 H         1 UNK         0.0000 
     52 H52        11.8891   59.3515   13.8373 H         1 UNK         0.0000 
     53 H53        11.3382   59.7325   15.4686 H         1 UNK         0.0000 
     54 H54        10.1815   59.2103   14.2413 H         1 UNK         0.0000 
     55 H55         1.9626   53.3872   22.4417 H         1 UNK         0.0000 
     56 H56         2.9023   53.8738   21.0795 H         1 UNK         0.0000 
     57 H57         1.2154   53.7843   27.5463 H         1 UNK         0.0000 
     58 H58         1.9434   52.2059   27.7113 H         1 UNK         0.0000 
@<TRIPOS>BOND
     1    1    2 1    
     2    1   36 1    
     3    1   37 1    
     4    1   38 1    
     5    2    3 1    
     6    2   39 1    
     7    2   40 1    
     8    3    4 1    
     9    3   35 1    
    10    3    5 1    
    11    5    6 1    
    12    5   41 1    
    13    5   42 1    
    14    6    7 1    
    15    6   43 1    
    16    6   44 1    
    17    7   15 ar   
    18    7    8 ar   
    19    8    9 ar   
    20    8   35 1    
    21    9   10 ar   
    22    9   31 1    
    23   10   14 ar   
    24   10   11 1    
    25   11   12 2    
    26   11   30 1    
    27   12   13 1    
    28   12   16 1    
    29   13   14 1    
    30   14   15 ar   
    31   16   17 2    
    32   16   18 am   BACKBONE|DICT|INTERRES
    33   18   19 1    
    34   18   45 1    
    35   19   24 ar   
    36   19   20 ar   
    37   20   21 ar   
    38   20   46 1    
    39   21   22 ar   
    40   21   47 1    
    41   22   23 ar   
    42   22   25 1    
    43   23   24 ar   
    44   23   48 1    
    45   24   49 1    
    46   25   26 2    
    47   25   27 1    
    48   27   28 1    
    49   28   29 1    
    50   28   50 1    
    51   28   51 1    
    52   29   52 1    
    53   29   53 1    
    54   29   54 1    
    55   30   55 1    
    56   30   56 1    
    57   31   32 1    
    58   31   33 1    
    59   31   34 1    
    60   35   57 1    
    61   35   58 1    
@<TRIPOS>SUBSTRUCTURE
     1 UNK         1 GROUP             0       ****    0 ROOT    
