ZINC39665289_640
                    3D
 Schrodinger Suite 2024-2.
 63 66  0  0  1  0            999 V2000
    5.7002   54.9735   24.3800 C   0  0  0  0  0  0
    4.4121   54.1102   24.3982 C   0  0  2  0  0  0
    4.7124   53.0885   24.5901 H   0  0  0  0  0  0
    3.6720   54.0985   23.0273 C   0  0  0  0  0  0
    2.6041   53.0944   22.8413 N   0  0  0  0  0  0
    1.3591   53.1820   23.3514 C   0  0  0  0  0  0
    1.0313   54.1109   24.0815 O   0  0  0  0  0  0
    0.2441   52.1707   22.9501 C   0  0  1  0  0  0
   -0.5115   52.7707   22.4410 H   0  0  0  0  0  0
    0.6974   51.1031   21.9261 C   0  0  0  0  0  0
   -0.3323   50.0631   22.0956 N   0  0  0  0  0  0
   -1.1005   50.2509   23.3261 C   0  0  0  0  0  0
   -0.3745   51.3539   24.1186 C   0  0  0  0  0  0
    0.7047   50.7570   25.0649 C   0  0  0  0  0  0
    0.1119   49.7644   26.0805 C   0  0  0  0  0  0
   -0.9871   50.4967   26.8819 N   0  3  0  0  0  0
   -2.0549   51.2220   26.0327 C   0  0  0  0  0  0
   -1.3191   52.1543   25.0467 C   0  0  0  0  0  0
   -0.8103   49.2328   21.1320 C   0  0  0  0  0  0
   -1.8532   48.5897   21.2780 O   0  0  0  0  0  0
   -0.0714   49.1022   19.8252 C   0  0  0  0  0  0
   -0.8048   49.1079   18.6280 C   0  0  0  0  0  0
   -0.1685   48.9291   17.4004 C   0  0  0  0  0  0
    1.2073   48.7200   17.3596 C   0  0  0  0  0  0
    1.9382   48.6719   18.5441 C   0  0  0  0  0  0
    1.3105   48.8515   19.7734 C   0  0  0  0  0  0
    2.0533   48.7417   20.8995 F   0  0  0  0  0  0
   -1.0829   48.9650   15.9373 Cl  0  0  0  0  0  0
    3.5038   54.5198   25.4288 O   0  0  0  0  0  0
    3.7004   54.1848   26.7574 C   0  0  0  0  0  0
    4.8697   53.6002   27.2614 C   0  0  0  0  0  0
    4.9857   53.3197   28.6168 C   0  0  0  0  0  0
    3.9260   53.5888   29.4785 C   0  0  0  0  0  0
    2.7551   54.1606   28.9948 C   0  0  0  0  0  0
    2.6501   54.4597   27.6401 C   0  0  0  0  0  0
    6.2601   54.8311   23.4549 H   0  0  0  0  0  0
    5.5043   56.0387   24.4865 H   0  0  0  0  0  0
    6.3843   54.7171   25.1853 H   0  0  0  0  0  0
    3.2608   55.0896   22.8294 H   0  0  0  0  0  0
    4.3988   53.9256   22.2328 H   0  0  0  0  0  0
    2.8089   52.3401   22.2044 H   0  0  0  0  0  0
    0.7479   51.5447   20.9285 H   0  0  0  0  0  0
    1.6462   50.6924   22.2742 H   0  0  0  0  0  0
   -1.3543   49.3416   23.8689 H   0  0  0  0  0  0
   -2.0643   50.6654   23.0218 H   0  0  0  0  0  0
    1.4431   50.2040   24.4807 H   0  0  0  0  0  0
    1.2617   51.5466   25.5735 H   0  0  0  0  0  0
   -0.3463   48.8777   25.6417 H   0  0  0  0  0  0
    0.8507   49.4277   26.8084 H   0  0  0  0  0  0
   -1.4141   49.8021   27.5023 H   0  0  0  0  0  0
   -2.6534   50.4479   25.5498 H   0  0  0  0  0  0
   -2.6855   51.7672   26.7365 H   0  0  0  0  0  0
   -0.7783   52.9351   25.5763 H   0  0  0  0  0  0
   -2.0739   52.6641   24.4464 H   0  0  0  0  0  0
   -1.8757   49.2583   18.6426 H   0  0  0  0  0  0
    1.7215   48.5926   16.4171 H   0  0  0  0  0  0
    3.0064   48.4998   18.5045 H   0  0  0  0  0  0
    5.6989   53.3400   26.6256 H   0  0  0  0  0  0
    5.9030   52.8967   28.9913 H   0  0  0  0  0  0
    4.0216   53.3536   30.5278 H   0  0  0  0  0  0
    1.9328   54.3725   29.6621 H   0  0  0  0  0  0
    1.7325   54.8966   27.2818 H   0  0  0  0  0  0
   -0.5425   51.1672   27.4921 H   0  0  0  0  0  0
  1  2  1  0  0  0
  1 36  1  0  0  0
  1 37  1  0  0  0
  1 38  1  0  0  0
  2  3  1  0  0  0
  2  4  1  0  0  0
  2 29  1  0  0  0
  4  5  1  0  0  0
  4 39  1  0  0  0
  4 40  1  0  0  0
  5  6  1  0  0  0
  5 41  1  0  0  0
  6  7  2  0  0  0
  6  8  1  0  0  0
  8  9  1  0  0  0
  8 13  1  0  0  0
  8 10  1  0  0  0
 10 11  1  0  0  0
 10 42  1  0  0  0
 10 43  1  0  0  0
 11 12  1  0  0  0
 11 19  1  0  0  0
 12 13  1  0  0  0
 12 44  1  0  0  0
 12 45  1  0  0  0
 13 18  1  0  0  0
 13 14  1  0  0  0
 14 15  1  0  0  0
 14 46  1  0  0  0
 14 47  1  0  0  0
 15 16  1  0  0  0
 15 48  1  0  0  0
 15 49  1  0  0  0
 16 17  1  0  0  0
 16 50  1  0  0  0
 16 63  1  0  0  0
 17 18  1  0  0  0
 17 51  1  0  0  0
 17 52  1  0  0  0
 18 53  1  0  0  0
 18 54  1  0  0  0
 19 20  2  0  0  0
 19 21  1  0  0  0
 21 26  2  0  0  0
 21 22  1  0  0  0
 22 23  2  0  0  0
 22 55  1  0  0  0
 23 24  1  0  0  0
 23 28  1  0  0  0
 24 25  2  0  0  0
 24 56  1  0  0  0
 25 26  1  0  0  0
 25 57  1  0  0  0
 26 27  1  0  0  0
 29 30  1  0  0  0
 30 35  2  0  0  0
 30 31  1  0  0  0
 31 32  2  0  0  0
 31 58  1  0  0  0
 32 33  1  0  0  0
 32 59  1  0  0  0
 33 34  2  0  0  0
 33 60  1  0  0  0
 34 35  1  0  0  0
 34 61  1  0  0  0
 35 62  1  0  0  0
M  CHG  1  16   1
M  END
> <i_i_glide_confnum>
281

> <i_i_glide_lignum>
641

> <i_i_glide_posenum>
252

> <i_i_glide_rotatable_bonds>
8

> <i_m_Source_File_Index>
921

> <b_m_subgroup_collapsed>
0

> <r_i_docking_score>
-4.35056

> <r_i_glide_ecoul>
-4.61452

> <r_i_glide_eff_state_penalty>
0

> <r_i_glide_einternal>
6.16429

> <r_i_glide_emodel>
-46.4486

> <r_i_glide_energy>
-36.3677

> <r_i_glide_erotb>
0.627978

> <r_i_glide_esite>
-0.112275

> <r_i_glide_evdw>
-31.7532

> <r_i_glide_gscore>
-4.35056

> <r_i_glide_hbond>
-0.2

> <r_i_glide_ligand_efficiency>
-0.131835

> <r_i_glide_ligand_efficiency_ln>
-0.967543

> <r_i_glide_ligand_efficiency_sa>
-0.422866

> <r_i_glide_lipo>
-1.97192

> <r_i_glide_metal>
0

> <r_i_glide_rewards>
-0.414505

> <s_i_glide_gridfile>
wee1_glide-grid

> <s_m_Source_File>
wee1_decoys_glide_SP.sdf

> <s_m_Source_Path>
/Users/zhangxujun/Desktop

> <s_m_entry_id>
1196

> <s_m_entry_name>
wee1_decoys_glide_SP.921

> <s_m_subgroup_title>
wee1_decoys_glide_SP

> <s_m_subgroupid>
wee1_decoys_glide_SP


$$$$
