@<TRIPOS>MOLECULE
ZINC64208421_661
40   42    1
SMALL
USER_CHARGES


@<TRIPOS>ATOM
      1 C1          6.4474   53.6105   27.8431 C.3       1 UNK         0.0000 
      2 O2          5.5985   54.7005   27.4947 O.3       1 UNK         0.0000 
      3 C3          4.8150   54.4868   26.3865 C.ar      1 UNK         0.0000 
      4 C4          3.4675   54.1200   26.5264 C.ar      1 UNK         0.0000 
      5 C5          2.6912   53.9412   25.3704 C.ar      1 UNK         0.0000 
      6 C6          3.2451   54.0954   24.1036 C.ar      1 UNK         0.0000 
      7 C7          4.5775   54.4612   23.9723 C.ar      1 UNK         0.0000 
      8 C8          5.3461   54.6947   25.1080 C.ar      1 UNK         0.0000 
      9 Br9         7.1044   55.3669   24.8821 Br        1 UNK         0.0000 
     10 Cl10        2.2672   53.8621   22.7022 Cl        1 UNK         0.0000 
     11 S11         2.7967   53.9250   28.1942 S.o2      1 UNK         0.0000 
     12 O12         3.0129   55.1983   28.8895 O.2       1 UNK         0.0000 
     13 O13         3.4215   52.7230   28.7552 O.2       1 UNK         0.0000 
     14 N14         1.0335   53.6804   28.1629 N.pl3     1 UNK         0.0000 
     15 N15         0.5080   52.7724   27.2505 N.am      1 UNK         0.0000 
     16 C16         0.6365   51.4372   27.3251 C.2       1 UNK         0.0000 
     17 O17         1.4274   50.8968   28.0899 O.2       1 UNK         0.0000 
     18 C18        -0.1661   50.6706   26.3833 C.2       1 UNK         0.0000 
     19 C19        -1.4092   50.9763   25.9349 C.2       1 UNK         0.0000 
     20 C20        -2.3307   52.0990   26.1955 C.2       1 UNK         0.0000 
     21 C21        -3.5385   52.1651   25.6003 C.2       1 UNK         0.0000 
     22 C22        -3.9142   51.0871   24.6984 C.2       1 UNK         0.0000 
     23 C23        -3.0922   50.0335   24.4564 C.2       1 UNK         0.0000 
     24 C24        -1.8357   49.9570   25.0697 C.2       1 UNK         0.0000 
     25 N25        -0.9271   49.0165   24.9632 N.pl3     1 UNK         0.0000 
     26 C26         0.2506   49.3444   25.7784 C.3       1 UNK         0.0000 
     27 H27         6.9593   53.8368   28.7780 H         1 UNK         0.0000 
     28 H28         5.8909   52.6832   27.9878 H         1 UNK         0.0000 
     29 H29         7.2109   53.4310   27.0860 H         1 UNK         0.0000 
     30 H30         1.6469   53.7001   25.4016 H         1 UNK         0.0000 
     31 H31         5.0080   54.5883   22.9894 H         1 UNK         0.0000 
     32 H32         0.6947   53.4346   29.0985 H         1 UNK         0.0000 
     33 H33        -0.1497   53.1791   26.6023 H         1 UNK         0.0000 
     34 H34        -2.0801   52.8962   26.8743 H         1 UNK         0.0000 
     35 H35        -4.2173   52.9814   25.7975 H         1 UNK         0.0000 
     36 H36        -4.8812   51.1229   24.2169 H         1 UNK         0.0000 
     37 H37        -3.4301   49.2558   23.7852 H         1 UNK         0.0000 
     38 H38         0.3867   48.5364   26.4935 H         1 UNK         0.0000 
     39 H39         1.1048   49.3938   25.1062 H         1 UNK         0.0000 
     40 H40        -1.0129   48.1718   24.4057 H         1 UNK         0.0000 
@<TRIPOS>BOND
     1    1    2 1    
     2    1   27 1    
     3    1   28 1    
     4    1   29 1    
     5    2    3 1    
     6    3    8 ar   
     7    3    4 ar   
     8    4    5 ar   
     9    4   11 1    
    10    5    6 ar   
    11    5   30 1    
    12    6    7 ar   
    13    6   10 1    
    14    7    8 ar   
    15    7   31 1    
    16    8    9 1    
    17   11   12 2    
    18   11   13 2    
    19   11   14 1    
    20   14   15 1    
    21   14   32 1    
    22   15   16 am   BACKBONE|DICT|INTERRES
    23   15   33 1    
    24   16   17 2    
    25   16   18 1    
    26   18   26 1    
    27   18   19 2    
    28   19   24 1    
    29   19   20 1    
    30   20   21 2    
    31   20   34 1    
    32   21   22 1    
    33   21   35 1    
    34   22   23 2    
    35   22   36 1    
    36   23   24 1    
    37   23   37 1    
    38   24   25 2    
    39   25   26 1    
    40   25   40 1    
    41   26   38 1    
    42   26   39 1    
@<TRIPOS>SUBSTRUCTURE
     1 UNK         1 GROUP             0       ****    0 ROOT    
