@<TRIPOS>MOLECULE
ZINC01176821_2341
53   55    1
SMALL
USER_CHARGES


@<TRIPOS>ATOM
      1 C1          1.6401   53.1373   21.8944 C.3       1 UNK         0.0000 
      2 C2          3.1861   53.0494   21.8081 C.3       1 UNK         0.0000 
      3 C3          3.5389   51.5486   21.6617 C.3       1 UNK         0.0000 
      4 C4          3.6545   53.7936   20.5349 C.3       1 UNK         0.0000 
      5 C5          3.8912   53.6473   23.0508 C.ar      1 UNK         0.0000 
      6 C6          5.2895   53.6968   23.0920 C.ar      1 UNK         0.0000 
      7 C7          5.9538   54.0963   24.2462 C.ar      1 UNK         0.0000 
      8 C8          5.2447   54.4530   25.4031 C.ar      1 UNK         0.0000 
      9 C9          3.8466   54.5078   25.3196 C.ar      1 UNK         0.0000 
     10 C10         3.1798   54.0969   24.1714 C.ar      1 UNK         0.0000 
     11 C11         6.0302   54.7525   26.6756 C.2       1 UNK         0.0000 
     12 O12         7.2309   54.8970   26.5918 O.2       1 UNK         0.0000 
     13 N13         5.5011   54.8192   27.9140 N.am      1 UNK         0.0000 
     14 C14         4.2985   54.2588   28.2980 C.ar      1 UNK         0.0000 
     15 C15         4.0963   52.8967   28.1098 C.ar      1 UNK         0.0000 
     16 C16         2.8161   52.3872   28.2197 C.ar      1 UNK         0.0000 
     17 C17         1.7739   53.2456   28.5264 C.ar      1 UNK         0.0000 
     18 C18         1.9822   54.5944   28.8066 C.ar      1 UNK         0.0000 
     19 C19         3.2716   55.0872   28.7395 C.ar      1 UNK         0.0000 
     20 N20         0.5196   52.6857   28.6288 N.pl3     1 UNK         0.0000 
     21 C21        -0.1730   52.4567   29.7774 C.2       1 UNK         0.0000 
     22 S22         0.3045   53.0003   31.2814 S.2       1 UNK         0.0000 
     23 N23        -1.2957   51.6933   29.6820 N.am      1 UNK         0.0000 
     24 C24        -2.0105   51.2974   28.5911 C.2       1 UNK         0.0000 
     25 O25        -1.6060   51.3570   27.4247 O.2       1 UNK         0.0000 
     26 C26        -3.3687   50.8965   28.8847 C.2       1 UNK         0.0000 
     27 C27        -3.9278   50.4932   30.1035 C.2       1 UNK         0.0000 
     28 C28        -5.2805   50.1542   30.0067 C.2       1 UNK         0.0000 
     29 C29        -5.7642   50.2630   28.7122 C.2       1 UNK         0.0000 
     30 S30        -4.5384   50.7737   27.5976 S.3       1 UNK         0.0000 
     31 H31         1.1628   52.8051   20.9707 H         1 UNK         0.0000 
     32 H32         1.3077   54.1564   22.0816 H         1 UNK         0.0000 
     33 H33         1.2426   52.5157   22.6976 H         1 UNK         0.0000 
     34 H34         4.6158   51.3728   21.6573 H         1 UNK         0.0000 
     35 H35         3.1039   50.9553   22.4682 H         1 UNK         0.0000 
     36 H36         3.1480   51.1376   20.7293 H         1 UNK         0.0000 
     37 H37         4.7102   53.6281   20.3199 H         1 UNK         0.0000 
     38 H38         3.1034   53.4658   19.6514 H         1 UNK         0.0000 
     39 H39         3.5077   54.8700   20.6307 H         1 UNK         0.0000 
     40 H40         5.8774   53.3730   22.2467 H         1 UNK         0.0000 
     41 H41         7.0351   54.0710   24.2417 H         1 UNK         0.0000 
     42 H42         3.2351   54.8469   26.1361 H         1 UNK         0.0000 
     43 H43         2.1020   54.1099   24.1928 H         1 UNK         0.0000 
     44 H44         6.1160   55.1473   28.6476 H         1 UNK         0.0000 
     45 H45         4.9120   52.2590   27.8036 H         1 UNK         0.0000 
     46 H46         2.6355   51.3345   28.0545 H         1 UNK         0.0000 
     47 H47         1.1632   55.2413   29.0883 H         1 UNK         0.0000 
     48 H48         3.4464   56.1223   28.9465 H         1 UNK         0.0000 
     49 H49         0.1646   52.2282   27.7987 H         1 UNK         0.0000 
     50 H50        -1.7017   51.4477   30.5747 H         1 UNK         0.0000 
     51 H51        -3.3756   50.4359   31.0329 H         1 UNK         0.0000 
     52 H52        -5.8741   49.8271   30.8478 H         1 UNK         0.0000 
     53 H53        -6.7629   50.0495   28.3608 H         1 UNK         0.0000 
@<TRIPOS>BOND
     1    1    2 1    
     2    1   31 1    
     3    1   32 1    
     4    1   33 1    
     5    2    3 1    
     6    2    4 1    
     7    2    5 1    
     8    3   34 1    
     9    3   35 1    
    10    3   36 1    
    11    4   37 1    
    12    4   38 1    
    13    4   39 1    
    14    5   10 ar   
    15    5    6 ar   
    16    6    7 ar   
    17    6   40 1    
    18    7    8 ar   
    19    7   41 1    
    20    8    9 ar   
    21    8   11 1    
    22    9   10 ar   
    23    9   42 1    
    24   10   43 1    
    25   11   12 2    
    26   11   13 am   BACKBONE|DICT|INTERRES
    27   13   14 1    
    28   13   44 1    
    29   14   19 ar   
    30   14   15 ar   
    31   15   16 ar   
    32   15   45 1    
    33   16   17 ar   
    34   16   46 1    
    35   17   18 ar   
    36   17   20 1    
    37   18   19 ar   
    38   18   47 1    
    39   19   48 1    
    40   20   21 1    
    41   20   49 1    
    42   21   22 2    
    43   21   23 am   BACKBONE|DICT|INTERRES
    44   23   24 am   BACKBONE|DICT|INTERRES
    45   23   50 1    
    46   24   25 2    
    47   24   26 1    
    48   26   30 1    
    49   26   27 2    
    50   27   28 1    
    51   27   51 1    
    52   28   29 2    
    53   28   52 1    
    54   29   30 1    
    55   29   53 1    
@<TRIPOS>SUBSTRUCTURE
     1 UNK         1 GROUP             0       ****    0 ROOT    
