@<TRIPOS>MOLECULE
ZINC36560067_5755
80   82    1
SMALL
USER_CHARGES


@<TRIPOS>ATOM
      1 C1         -0.4215   52.8932   28.0815 C.3       1 UNK         0.0000 
      2 C2          0.1770   51.4915   28.2437 C.3       1 UNK         0.0000 
      3 C3          0.7904   50.9281   26.9508 C.3       1 UNK         0.0000 
      4 C4         -0.2418   50.3952   25.9333 C.3       1 UNK         0.0000 
      5 N5          0.3439   50.0425   24.6390 N.am      1 UNK         0.0000 
      6 C6          0.5002   50.9139   23.6226 C.2       1 UNK         0.0000 
      7 O7          0.1624   52.0954   23.7026 O.2       1 UNK         0.0000 
      8 C8          1.1498   50.3568   22.3170 C.3       1 UNK         0.0000 
      9 H9          2.0228   49.8398   22.7198 H         1 UNK         0.0000 
     10 C10         0.3692   49.3028   21.5434 C.ar      1 UNK         0.0000 
     11 C11         1.0099   48.6622   20.4803 C.ar      1 UNK         0.0000 
     12 C12         0.3547   47.7045   19.7161 C.ar      1 UNK         0.0000 
     13 C13        -0.9618   47.3292   20.0185 C.ar      1 UNK         0.0000 
     14 C14        -1.6212   47.9470   21.0936 C.ar      1 UNK         0.0000 
     15 C15        -0.9504   48.9347   21.8373 C.ar      1 UNK         0.0000 
     16 O16        -2.9170   47.5393   21.3627 O.3       1 UNK         0.0000 
     17 C17        -3.6364   48.1290   22.4418 C.3       1 UNK         0.0000 
     18 O18        -1.6615   46.3691   19.3067 O.3       1 UNK         0.0000 
     19 C19        -1.0424   45.7323   18.1939 C.3       1 UNK         0.0000 
     20 N20         1.6200   51.4308   21.3852 N.am      1 UNK         0.0000 
     21 C21         0.5921   52.2309   20.6885 C.3       1 UNK         0.0000 
     22 C22         0.5164   51.9567   19.1694 C.3       1 UNK         0.0000 
     23 C23        -0.4498   52.8955   18.4369 C.3       1 UNK         0.0000 
     24 C24         2.9562   51.6584   21.2388 C.2       1 UNK         0.0000 
     25 O25         3.8154   50.8988   21.6816 O.2       1 UNK         0.0000 
     26 C26         3.4776   52.9837   20.6145 C.3       1 UNK         0.0000 
     27 H27         2.7043   53.6431   20.2374 H         1 UNK         0.0000 
     28 C28         4.4780   52.7496   19.4698 C.3       1 UNK         0.0000 
     29 C29         5.2666   54.0465   19.4055 C.3       1 UNK         0.0000 
     30 C30         5.3841   54.4542   20.8694 C.3       1 UNK         0.0000 
     31 N31         4.2584   53.8103   21.5545 N.am      1 UNK         0.0000 
     32 C32         3.9373   54.0295   22.9005 C.2       1 UNK         0.0000 
     33 O33         2.8435   53.8165   23.4257 O.2       1 UNK         0.0000 
     34 O34         5.0011   54.5113   23.5636 O.3       1 UNK         0.0000 
     35 C35         4.8181   55.2950   24.7318 C.3       1 UNK         0.0000 
     36 C36         5.1088   54.5214   25.9715 C.ar      1 UNK         0.0000 
     37 C37         4.0446   54.1036   26.7688 C.ar      1 UNK         0.0000 
     38 C38         4.3118   53.4910   27.9800 C.ar      1 UNK         0.0000 
     39 C39         5.6373   53.3142   28.3531 C.ar      1 UNK         0.0000 
     40 C40         6.6999   53.6973   27.5491 C.ar      1 UNK         0.0000 
     41 C41         6.4338   54.3056   26.3369 C.ar      1 UNK         0.0000 
     42 H42        -0.8201   53.2381   29.0352 H         1 UNK         0.0000 
     43 H43        -1.2319   52.9019   27.3525 H         1 UNK         0.0000 
     44 H44         0.3297   53.6131   27.7560 H         1 UNK         0.0000 
     45 H45         0.9465   51.5275   29.0159 H         1 UNK         0.0000 
     46 H46        -0.5894   50.8163   28.6214 H         1 UNK         0.0000 
     47 H47         1.4143   51.6936   26.4874 H         1 UNK         0.0000 
     48 H48         1.4659   50.1170   27.2302 H         1 UNK         0.0000 
     49 H49        -0.7500   49.5264   26.3561 H         1 UNK         0.0000 
     50 H50        -1.0420   51.1261   25.7936 H         1 UNK         0.0000 
     51 H51         0.6569   49.0881   24.5251 H         1 UNK         0.0000 
     52 H52         2.0289   48.9169   20.2293 H         1 UNK         0.0000 
     53 H53         0.8983   47.2559   18.8977 H         1 UNK         0.0000 
     54 H54        -1.4608   49.4250   22.6487 H         1 UNK         0.0000 
     55 H55        -4.6316   47.6834   22.5062 H         1 UNK         0.0000 
     56 H56        -3.1361   47.9534   23.3932 H         1 UNK         0.0000 
     57 H57        -3.7619   49.2042   22.2972 H         1 UNK         0.0000 
     58 H58        -1.7400   45.0235   17.7447 H         1 UNK         0.0000 
     59 H59        -0.7630   46.4485   17.4246 H         1 UNK         0.0000 
     60 H60        -0.1609   45.1729   18.5013 H         1 UNK         0.0000 
     61 H61        -0.3894   52.0253   21.1135 H         1 UNK         0.0000 
     62 H62         0.7438   53.2937   20.8824 H         1 UNK         0.0000 
     63 H63         1.5023   52.0496   18.7098 H         1 UNK         0.0000 
     64 H64         0.1925   50.9284   19.0072 H         1 UNK         0.0000 
     65 H65        -0.5315   52.6254   17.3827 H         1 UNK         0.0000 
     66 H66        -1.4467   52.8511   18.8724 H         1 UNK         0.0000 
     67 H67        -0.0951   53.9257   18.4789 H         1 UNK         0.0000 
     68 H68         5.1587   51.9320   19.7013 H         1 UNK         0.0000 
     69 H69         3.9965   52.5122   18.5187 H         1 UNK         0.0000 
     70 H70         6.2279   53.9438   18.8993 H         1 UNK         0.0000 
     71 H71         4.6803   54.7961   18.8707 H         1 UNK         0.0000 
     72 H72         6.3083   54.0976   21.3135 H         1 UNK         0.0000 
     73 H73         5.3659   55.5397   20.9786 H         1 UNK         0.0000 
     74 H74         5.5071   56.1404   24.7018 H         1 UNK         0.0000 
     75 H75         3.8061   55.6876   24.8368 H         1 UNK         0.0000 
     76 H76         3.0214   54.2668   26.4569 H         1 UNK         0.0000 
     77 H77         3.5090   53.1585   28.6218 H         1 UNK         0.0000 
     78 H78         5.8644   52.8647   29.2822 H         1 UNK         0.0000 
     79 H79         7.7106   53.5258   27.8739 H         1 UNK         0.0000 
     80 H80         7.2429   54.6220   25.6957 H         1 UNK         0.0000 
@<TRIPOS>BOND
     1    1    2 1    
     2    1   42 1    
     3    1   43 1    
     4    1   44 1    
     5    2    3 1    
     6    2   45 1    
     7    2   46 1    
     8    3    4 1    
     9    3   47 1    
    10    3   48 1    
    11    4    5 1    
    12    4   49 1    
    13    4   50 1    
    14    5    6 am   BACKBONE|DICT|INTERRES
    15    5   51 1    
    16    6    7 2    
    17    6    8 1    
    18    8    9 1    
    19    8   10 1    
    20    8   20 1    
    21   10   15 ar   
    22   10   11 ar   
    23   11   12 ar   
    24   11   52 1    
    25   12   13 ar   
    26   12   53 1    
    27   13   14 ar   
    28   13   18 1    
    29   14   15 ar   
    30   14   16 1    
    31   15   54 1    
    32   16   17 1    
    33   17   55 1    
    34   17   56 1    
    35   17   57 1    
    36   18   19 1    
    37   19   58 1    
    38   19   59 1    
    39   19   60 1    
    40   20   21 1    
    41   20   24 am   BACKBONE|DICT|INTERRES
    42   21   22 1    
    43   21   61 1    
    44   21   62 1    
    45   22   23 1    
    46   22   63 1    
    47   22   64 1    
    48   23   65 1    
    49   23   66 1    
    50   23   67 1    
    51   24   25 2    
    52   24   26 1    
    53   26   27 1    
    54   26   31 1    
    55   26   28 1    
    56   28   29 1    
    57   28   68 1    
    58   28   69 1    
    59   29   30 1    
    60   29   70 1    
    61   29   71 1    
    62   30   31 1    
    63   30   72 1    
    64   30   73 1    
    65   31   32 am   BACKBONE|DICT|INTERRES
    66   32   33 2    
    67   32   34 1    
    68   34   35 1    
    69   35   36 1    
    70   35   74 1    
    71   35   75 1    
    72   36   41 ar   
    73   36   37 ar   
    74   37   38 ar   
    75   37   76 1    
    76   38   39 ar   
    77   38   77 1    
    78   39   40 ar   
    79   39   78 1    
    80   40   41 ar   
    81   40   79 1    
    82   41   80 1    
@<TRIPOS>SUBSTRUCTURE
     1 UNK         1 GROUP             0       ****    0 ROOT    
