@<TRIPOS>MOLECULE
ZINC39665121_637
66   69    1
SMALL
USER_CHARGES


@<TRIPOS>ATOM
      1 C1          4.1077   52.6314   15.3574 C.3       1 UNK         0.0000 
      2 C2          4.1198   53.3723   16.7027 C.3       1 UNK         0.0000 
      3 H3          5.1509   53.3702   17.0475 H         1 UNK         0.0000 
      4 C4          3.2231   52.6691   17.7454 C.3       1 UNK         0.0000 
      5 N5          3.1744   53.2971   19.0678 N.am      1 UNK         0.0000 
      6 C6          4.1833   53.3970   19.9498 C.2       1 UNK         0.0000 
      7 O7          5.3333   53.0393   19.6933 O.2       1 UNK         0.0000 
      8 C8          3.7646   53.8893   21.3651 C.3       1 UNK         0.0000 
      9 H9          3.3310   54.8917   21.2819 H         1 UNK         0.0000 
     10 C10         5.0325   54.0667   22.2293 C.3       1 UNK         0.0000 
     11 N11         4.5510   53.9536   23.6108 N.am      1 UNK         0.0000 
     12 C12         3.2424   53.2971   23.6395 C.3       1 UNK         0.0000 
     13 C13         2.9039   52.8772   22.1890 C.3       1 UNK         0.0000 
     14 C14         1.3908   52.9872   21.8982 C.3       1 UNK         0.0000 
     15 C15         0.5487   52.1002   22.8404 C.3       1 UNK         0.0000 
     16 N16         0.9645   50.6279   22.6206 N.4       1 UNK         0.0000 
     17 C17         2.4805   50.3663   22.7646 C.3       1 UNK         0.0000 
     18 C18         3.2555   51.3773   21.8894 C.3       1 UNK         0.0000 
     19 C19         5.2886   54.4266   24.6598 C.2       1 UNK         0.0000 
     20 O20         6.3738   54.9778   24.4547 O.2       1 UNK         0.0000 
     21 C21         4.8616   54.2401   26.1152 C.ar      1 UNK         0.0000 
     22 C22         5.8540   54.2508   27.1102 C.ar      1 UNK         0.0000 
     23 C23         5.5350   54.1014   28.4560 C.ar      1 UNK         0.0000 
     24 C24         4.2109   53.9261   28.8459 C.ar      1 UNK         0.0000 
     25 C25         3.1966   53.9034   27.8876 C.ar      1 UNK         0.0000 
     26 C26         3.5272   54.0914   26.5387 C.ar      1 UNK         0.0000 
     27 C27         1.7466   53.6718   28.3139 C.3       1 UNK         0.0000 
     28 F28         1.2524   54.8007   28.8220 F         1 UNK         0.0000 
     29 F29         0.9851   53.2966   27.2846 F         1 UNK         0.0000 
     30 F30         1.6665   52.7121   29.2373 F         1 UNK         0.0000 
     31 F31         3.9106   53.7881   30.1569 F         1 UNK         0.0000 
     32 O32         3.5835   54.6748   16.4482 O.3       1 UNK         0.0000 
     33 C33         4.2684   55.8299   16.7795 C.ar      1 UNK         0.0000 
     34 C34         5.4257   55.8916   17.5723 C.ar      1 UNK         0.0000 
     35 C35         6.0429   57.1157   17.8169 C.ar      1 UNK         0.0000 
     36 C36         5.5060   58.2793   17.2757 C.ar      1 UNK         0.0000 
     37 C37         4.3453   58.2358   16.5103 C.ar      1 UNK         0.0000 
     38 C38         3.7288   57.0118   16.2693 C.ar      1 UNK         0.0000 
     39 H39         4.4940   51.6161   15.4626 H         1 UNK         0.0000 
     40 H40         3.1000   52.5615   14.9465 H         1 UNK         0.0000 
     41 H41         4.7299   53.1477   14.6263 H         1 UNK         0.0000 
     42 H42         2.1996   52.6498   17.3673 H         1 UNK         0.0000 
     43 H43         3.5048   51.6218   17.8564 H         1 UNK         0.0000 
     44 H44         2.3178   53.7866   19.2980 H         1 UNK         0.0000 
     45 H45         5.7180   53.2272   22.0953 H         1 UNK         0.0000 
     46 H46         5.5436   55.0066   22.0080 H         1 UNK         0.0000 
     47 H47         2.5370   54.0963   23.8673 H         1 UNK         0.0000 
     48 H48         3.1048   52.5000   24.3693 H         1 UNK         0.0000 
     49 H49         1.1046   54.0231   22.0815 H         1 UNK         0.0000 
     50 H50         1.1564   52.7974   20.8497 H         1 UNK         0.0000 
     51 H51         0.6985   52.3198   23.8988 H         1 UNK         0.0000 
     52 H52        -0.5184   52.1519   22.6175 H         1 UNK         0.0000 
     53 H53         0.4572   50.0288   23.2595 H         1 UNK         0.0000 
     54 H54         2.7030   50.4273   23.8271 H         1 UNK         0.0000 
     55 H55         2.6477   49.3346   22.4473 H         1 UNK         0.0000 
     56 H56         3.0973   51.1243   20.8394 H         1 UNK         0.0000 
     57 H57         4.3232   51.2232   22.0528 H         1 UNK         0.0000 
     58 H58         6.8963   54.3715   26.8496 H         1 UNK         0.0000 
     59 H59         6.3199   54.1276   29.1976 H         1 UNK         0.0000 
     60 H60         2.7042   54.1482   25.8524 H         1 UNK         0.0000 
     61 H61         5.8711   55.0170   18.0147 H         1 UNK         0.0000 
     62 H62         6.9366   57.1602   18.4206 H         1 UNK         0.0000 
     63 H63         5.9816   59.2337   17.4577 H         1 UNK         0.0000 
     64 H64         3.9316   59.1510   16.1080 H         1 UNK         0.0000 
     65 H65         2.8319   56.9751   15.6707 H         1 UNK         0.0000 
     66 H66         0.6860   50.3531   21.6882 H         1 UNK         0.0000 
@<TRIPOS>BOND
     1    1    2 1    
     2    1   39 1    
     3    1   40 1    
     4    1   41 1    
     5    2    3 1    
     6    2    4 1    
     7    2   32 1    
     8    4    5 1    
     9    4   42 1    
    10    4   43 1    
    11    5    6 am   BACKBONE|DICT|INTERRES
    12    5   44 1    
    13    6    7 2    
    14    6    8 1    
    15    8    9 1    
    16    8   13 1    
    17    8   10 1    
    18   10   11 1    
    19   10   45 1    
    20   10   46 1    
    21   11   12 1    
    22   11   19 am   BACKBONE|DICT|INTERRES
    23   12   13 1    
    24   12   47 1    
    25   12   48 1    
    26   13   18 1    
    27   13   14 1    
    28   14   15 1    
    29   14   49 1    
    30   14   50 1    
    31   15   16 1    
    32   15   51 1    
    33   15   52 1    
    34   16   17 1    
    35   16   53 1    
    36   16   66 1    
    37   17   18 1    
    38   17   54 1    
    39   17   55 1    
    40   18   56 1    
    41   18   57 1    
    42   19   20 2    
    43   19   21 1    
    44   21   26 ar   
    45   21   22 ar   
    46   22   23 ar   
    47   22   58 1    
    48   23   24 ar   
    49   23   59 1    
    50   24   25 ar   
    51   24   31 1    
    52   25   26 ar   
    53   25   27 1    
    54   26   60 1    
    55   27   28 1    
    56   27   29 1    
    57   27   30 1    
    58   32   33 1    
    59   33   38 ar   
    60   33   34 ar   
    61   34   35 ar   
    62   34   61 1    
    63   35   36 ar   
    64   35   62 1    
    65   36   37 ar   
    66   36   63 1    
    67   37   38 ar   
    68   37   64 1    
    69   38   65 1    
@<TRIPOS>SUBSTRUCTURE
     1 UNK         1 GROUP             0       ****    0 ROOT    
