@<TRIPOS>MOLECULE
ZINC15676190_5010
52   55    1
SMALL
USER_CHARGES


@<TRIPOS>ATOM
      1 C1         -1.8931   47.2261   25.5838 C.ar      1 UNK         0.0000 
      2 C2         -3.1194   46.5790   25.6936 C.ar      1 UNK         0.0000 
      3 C3         -3.9258   46.4071   24.5637 C.ar      1 UNK         0.0000 
      4 C4         -3.4859   46.8885   23.3260 C.ar      1 UNK         0.0000 
      5 C5         -2.2575   47.5371   23.2195 C.ar      1 UNK         0.0000 
      6 C6         -1.4524   47.7106   24.3480 C.ar      1 UNK         0.0000 
      7 C7         -0.1184   48.4539   24.2107 C.3       1 UNK         0.0000 
      8 N8          0.2948   49.2938   25.3358 N.am      1 UNK         0.0000 
      9 C9         -0.3454   50.3949   25.7659 C.2       1 UNK         0.0000 
     10 O10        -1.3811   50.8133   25.2455 O.2       1 UNK         0.0000 
     11 C11         0.2747   51.1049   26.9996 C.3       1 UNK         0.0000 
     12 H12         0.7436   50.2658   27.5114 H         1 UNK         0.0000 
     13 C13        -0.8162   51.6972   27.9365 C.3       1 UNK         0.0000 
     14 C14        -0.0898   52.1542   29.1787 C.ar      1 UNK         0.0000 
     15 C15         1.2520   52.4880   29.2362 C.ar      1 UNK         0.0000 
     16 N16         1.6534   52.7376   30.4732 N.2       1 UNK         0.0000 
     17 C17         0.5987   52.4974   31.2155 C.ar      1 UNK         0.0000 
     18 N18        -0.4893   52.0998   30.4816 N.pl3     1 UNK         0.0000 
     19 H19        -1.3801   51.7885   30.8478 H         1 UNK         0.0000 
     20 C20         2.1296   52.4972   27.9981 C.3       1 UNK         0.0000 
     21 N21         1.3839   52.0996   26.7574 N.am      1 UNK         0.0000 
     22 C22         1.5043   52.8872   25.6397 C.2       1 UNK         0.0000 
     23 O23         0.6095   53.0267   24.8077 O.2       1 UNK         0.0000 
     24 N24         2.7446   53.4047   25.4740 N.am      1 UNK         0.0000 
     25 C25         3.4132   53.7944   24.2993 C.ar      1 UNK         0.0000 
     26 C26         2.8526   53.7630   23.0132 C.ar      1 UNK         0.0000 
     27 C27         3.6322   54.0961   21.9098 C.ar      1 UNK         0.0000 
     28 C28         4.9628   54.4668   22.0818 C.ar      1 UNK         0.0000 
     29 C29         5.5302   54.4963   23.3540 C.ar      1 UNK         0.0000 
     30 C30         4.7527   54.1640   24.4608 C.ar      1 UNK         0.0000 
     31 Cl31        5.9051   54.9135   20.7091 Cl        1 UNK         0.0000 
     32 C32        -5.2812   45.7059   24.6631 C.3       1 UNK         0.0000 
     33 F33        -5.6488   45.4892   25.9274 F         1 UNK         0.0000 
     34 F34        -5.2021   44.5256   24.0472 F         1 UNK         0.0000 
     35 F35        -6.2267   46.4367   24.0713 F         1 UNK         0.0000 
     36 H36        -1.2957   47.3523   26.4755 H         1 UNK         0.0000 
     37 H37        -3.4335   46.2277   26.6670 H         1 UNK         0.0000 
     38 H38        -4.1014   46.7707   22.4452 H         1 UNK         0.0000 
     39 H39        -1.9397   47.9133   22.2578 H         1 UNK         0.0000 
     40 H40         0.6580   47.7001   24.0822 H         1 UNK         0.0000 
     41 H41        -0.1102   49.0609   23.3029 H         1 UNK         0.0000 
     42 H42         1.0760   48.9526   25.8753 H         1 UNK         0.0000 
     43 H43        -1.3336   52.5268   27.4544 H         1 UNK         0.0000 
     44 H44        -1.5736   50.9476   28.1775 H         1 UNK         0.0000 
     45 H45         0.5294   52.5322   32.2947 H         1 UNK         0.0000 
     46 H46         3.0026   51.8547   28.1150 H         1 UNK         0.0000 
     47 H47         2.5654   53.4946   27.9213 H         1 UNK         0.0000 
     48 H48         3.3557   53.3130   26.2698 H         1 UNK         0.0000 
     49 H49         1.8295   53.4729   22.8358 H         1 UNK         0.0000 
     50 H50         3.1978   54.0756   20.9203 H         1 UNK         0.0000 
     51 H51         6.5649   54.7807   23.4817 H         1 UNK         0.0000 
     52 H52         5.2060   54.1789   25.4414 H         1 UNK         0.0000 
@<TRIPOS>BOND
     1    1    6 ar   
     2    1    2 ar   
     3    1   36 1    
     4    2    3 ar   
     5    2   37 1    
     6    3    4 ar   
     7    3   32 1    
     8    4    5 ar   
     9    4   38 1    
    10    5    6 ar   
    11    5   39 1    
    12    6    7 1    
    13    7    8 1    
    14    7   40 1    
    15    7   41 1    
    16    8    9 am   BACKBONE|DICT|INTERRES
    17    8   42 1    
    18    9   10 2    
    19    9   11 1    
    20   11   12 1    
    21   11   21 1    
    22   11   13 1    
    23   13   14 1    
    24   13   43 1    
    25   13   44 1    
    26   14   18 ar   
    27   14   15 ar   
    28   15   16 ar   
    29   15   20 1    
    30   16   17 ar   
    31   17   18 ar   
    32   17   45 1    
    33   18   19 1    
    34   20   21 1    
    35   20   46 1    
    36   20   47 1    
    37   21   22 am   BACKBONE|DICT|INTERRES
    38   22   23 2    
    39   22   24 am   BACKBONE|DICT|INTERRES
    40   24   25 1    
    41   24   48 1    
    42   25   30 ar   
    43   25   26 ar   
    44   26   27 ar   
    45   26   49 1    
    46   27   28 ar   
    47   27   50 1    
    48   28   29 ar   
    49   28   31 1    
    50   29   30 ar   
    51   29   51 1    
    52   30   52 1    
    53   32   33 1    
    54   32   34 1    
    55   32   35 1    
@<TRIPOS>SUBSTRUCTURE
     1 UNK         1 GROUP             0       ****    0 ROOT    
