@<TRIPOS>MOLECULE
ZINC39724243_550
52   55    1
SMALL
USER_CHARGES


@<TRIPOS>ATOM
      1 C1         -1.9556   48.2501   22.8556 C.3       1 UNK         0.0000 
      2 C2         -0.8665   48.7005   23.8386 C.3       1 UNK         0.0000 
      3 C3         -0.4915   50.1716   23.7093 C.2       1 UNK         0.0000 
      4 C4         -1.0489   51.1957   24.4040 C.2       1 UNK         0.0000 
      5 S5         -0.2677   52.7795   24.0833 S.3       1 UNK         0.0000 
      6 C6          0.4752   52.1171   22.5985 C.3       1 UNK         0.0000 
      7 H7         -0.2874   52.2101   21.8197 H         1 UNK         0.0000 
      8 C8          0.7530   50.6634   22.9866 C.3       1 UNK         0.0000 
      9 H9          1.5848   50.5864   23.6924 H         1 UNK         0.0000 
     10 C10         1.2852   49.9845   21.6963 C.2       1 UNK         0.0000 
     11 O11         0.8845   48.8967   21.2842 O.2       1 UNK         0.0000 
     12 N12         2.2354   50.7784   21.0833 N.am      1 UNK         0.0000 
     13 C13         2.5524   52.0691   21.4923 C.2       1 UNK         0.0000 
     14 N14         1.6878   52.7814   22.1384 N.2       1 UNK         0.0000 
     15 S15         4.1938   52.7832   21.1744 S.3       1 UNK         0.0000 
     16 C16         4.1355   54.3785   22.0686 C.3       1 UNK         0.0000 
     17 C17         4.3425   54.2408   23.5765 C.ar      1 UNK         0.0000 
     18 N18         5.5956   54.4969   24.0985 N.pl3     1 UNK         0.0000 
     19 H19         6.3515   54.7214   23.4712 H         1 UNK         0.0000 
     20 C20         5.9623   54.5440   25.4165 C.ar      1 UNK         0.0000 
     21 O21         7.1041   54.8960   25.7040 O.2       1 UNK         0.0000 
     22 C22         4.8399   54.1562   26.2946 C.ar      1 UNK         0.0000 
     23 C23         4.8005   54.0098   27.7037 C.2       1 UNK         0.0000 
     24 C24         3.5125   53.6129   28.1425 C.2       1 UNK         0.0000 
     25 S25         2.3840   53.4644   26.8162 S.3       1 UNK         0.0000 
     26 C26         3.6041   53.9116   25.6906 C.ar      1 UNK         0.0000 
     27 N27         3.3507   53.9755   24.3544 N.2       1 UNK         0.0000 
     28 C28         3.0039   53.3267   29.5010 C.2       1 UNK         0.0000 
     29 O29         1.9027   52.7420   29.6092 O.co2     1 UNK         0.0000 
     30 O30         3.7011   53.6961   30.4730 O.co2     1 UNK         0.0000 
     31 C31         6.0011   54.1576   28.6178 C.3       1 UNK         0.0000 
     32 C32         2.7717   50.2480   19.8113 C.3       1 UNK         0.0000 
     33 C33         1.9785   50.7432   18.5873 C.3       1 UNK         0.0000 
     34 C34        -2.2150   51.1346   25.3717 C.3       1 UNK         0.0000 
     35 H35        -2.1740   47.1893   22.9782 H         1 UNK         0.0000 
     36 H36        -2.8829   48.8007   23.0180 H         1 UNK         0.0000 
     37 H37        -1.6539   48.4078   21.8204 H         1 UNK         0.0000 
     38 H38        -1.1996   48.5020   24.8578 H         1 UNK         0.0000 
     39 H39         0.0328   48.0960   23.7158 H         1 UNK         0.0000 
     40 H40         4.9281   54.9996   21.6530 H         1 UNK         0.0000 
     41 H41         3.2064   54.8988   21.8355 H         1 UNK         0.0000 
     42 H42         5.9021   55.0205   29.2747 H         1 UNK         0.0000 
     43 H43         6.0666   53.2970   29.2786 H         1 UNK         0.0000 
     44 H44         6.9642   54.2107   28.1132 H         1 UNK         0.0000 
     45 H45         3.8184   50.5309   19.6977 H         1 UNK         0.0000 
     46 H46         2.7892   49.1560   19.8044 H         1 UNK         0.0000 
     47 H47         2.0895   51.8194   18.4518 H         1 UNK         0.0000 
     48 H48         2.3316   50.2641   17.6753 H         1 UNK         0.0000 
     49 H49         0.9166   50.5133   18.6785 H         1 UNK         0.0000 
     50 H50        -1.8819   51.4098   26.3731 H         1 UNK         0.0000 
     51 H51        -2.9930   51.8336   25.0657 H         1 UNK         0.0000 
     52 H52        -2.6594   50.1415   25.4260 H         1 UNK         0.0000 
@<TRIPOS>BOND
     1    1    2 1    
     2    1   35 1    
     3    1   36 1    
     4    1   37 1    
     5    2    3 1    
     6    2   38 1    
     7    2   39 1    
     8    3    8 1    
     9    3    4 2    
    10    4    5 1    
    11    4   34 1    
    12    5    6 1    
    13    6    7 1    
    14    6   14 1    
    15    6    8 1    
    16    8    9 1    
    17    8   10 1    
    18   10   11 2    
    19   10   12 am   BACKBONE|DICT|INTERRES
    20   12   13 am   BACKBONE|DICT|INTERRES
    21   12   32 1    
    22   13   14 2    
    23   13   15 1    
    24   15   16 1    
    25   16   17 1    
    26   16   40 1    
    27   16   41 1    
    28   17   27 ar   
    29   17   18 ar   
    30   18   19 1    
    31   18   20 ar   
    32   20   21 2    
    33   20   22 ar   
    34   22   26 ar   
    35   22   23 1    
    36   23   24 2    
    37   23   31 1    
    38   24   25 1    
    39   24   28 1    
    40   25   26 1    
    41   26   27 ar   
    42   28   29 2    
    43   28   30 1    
    44   31   42 1    
    45   31   43 1    
    46   31   44 1    
    47   32   33 1    
    48   32   45 1    
    49   32   46 1    
    50   33   47 1    
    51   33   48 1    
    52   33   49 1    
    53   34   50 1    
    54   34   51 1    
    55   34   52 1    
@<TRIPOS>SUBSTRUCTURE
     1 UNK         1 GROUP             0       ****    0 ROOT    
