@<TRIPOS>MOLECULE
ZINC13071551_2189
55   58    1
SMALL
USER_CHARGES


@<TRIPOS>ATOM
      1 C1         -1.6432   53.1733   23.6817 C.3       1 UNK         0.0000 
      2 C2         -1.1088   51.8825   24.2845 C.ar      1 UNK         0.0000 
      3 C3         -1.9561   51.1220   25.0978 C.ar      1 UNK         0.0000 
      4 C4         -1.5072   49.9385   25.6816 C.ar      1 UNK         0.0000 
      5 C5         -0.2078   49.4955   25.4537 C.ar      1 UNK         0.0000 
      6 C6          0.6476   50.2397   24.6450 C.ar      1 UNK         0.0000 
      7 C7          0.2147   51.4434   24.0663 C.ar      1 UNK         0.0000 
      8 N8          1.1385   52.1752   23.2806 N.pl3     1 UNK         0.0000 
      9 C9          2.1882   52.9357   23.7153 C.ar      1 UNK         0.0000 
     10 N10         2.9731   53.1704   22.7563 N.2       1 UNK         0.0000 
     11 N11         2.4607   52.6123   21.6724 N.pl3     1 UNK         0.0000 
     12 C12         1.2413   52.0533   21.9154 C.ar      1 UNK         0.0000 
     13 S13         0.2122   51.2961   20.8238 S.2       1 UNK         0.0000 
     14 C14         3.3088   52.4445   20.4743 C.3       1 UNK         0.0000 
     15 C15         5.0109   54.3121   20.7936 C.3       1 UNK         0.0000 
     16 C16         5.9632   55.3368   20.1322 C.3       1 UNK         0.0000 
     17 C17         6.4859   54.8976   18.7628 C.3       1 UNK         0.0000 
     18 C18         5.3048   54.5790   17.8446 C.3       1 UNK         0.0000 
     19 C19         4.4483   53.4208   18.4093 C.3       1 UNK         0.0000 
     20 H20         5.0205   52.4969   18.4744 H         1 UNK         0.0000 
     21 C21         3.2022   53.2298   17.5118 C.2       1 UNK         0.0000 
     22 O22         2.3292   54.0902   17.4499 O.2       1 UNK         0.0000 
     23 N23         3.1052   52.0969   16.8175 N.am      1 UNK         0.0000 
     24 C24         2.4524   53.4186   25.1113 C.ar      1 UNK         0.0000 
     25 C25         1.5529   53.2607   26.1797 C.ar      1 UNK         0.0000 
     26 C26         1.8770   53.6958   27.4636 C.ar      1 UNK         0.0000 
     27 C27         3.1024   54.3112   27.7004 C.ar      1 UNK         0.0000 
     28 C28         4.0040   54.4968   26.6598 C.ar      1 UNK         0.0000 
     29 C29         3.6776   54.0625   25.3783 C.ar      1 UNK         0.0000 
     30 Cl30        3.5031   54.8565   29.2888 Cl        1 UNK         0.0000 
     31 H31        -2.5290   53.5332   24.2059 H         1 UNK         0.0000 
     32 H32        -0.8950   53.9626   23.7433 H         1 UNK         0.0000 
     33 H33        -1.8969   53.0124   22.6345 H         1 UNK         0.0000 
     34 H34        -2.9689   51.4474   25.2868 H         1 UNK         0.0000 
     35 H35        -2.1575   49.3615   26.3256 H         1 UNK         0.0000 
     36 H36         0.1332   48.5762   25.9114 H         1 UNK         0.0000 
     37 H37         1.6487   49.8722   24.4756 H         1 UNK         0.0000 
     38 H38         2.7385   51.9569   19.6871 H         1 UNK         0.0000 
     39 H39         4.1541   51.7913   20.6909 H         1 UNK         0.0000 
     40 H40         5.5720   53.4527   21.1647 H         1 UNK         0.0000 
     41 H41         4.4992   54.7998   21.6237 H         1 UNK         0.0000 
     42 H42         6.8150   55.4909   20.7957 H         1 UNK         0.0000 
     43 H43         5.4984   56.3173   20.0456 H         1 UNK         0.0000 
     44 H44         7.1358   54.0254   18.8597 H         1 UNK         0.0000 
     45 H45         7.1001   55.6883   18.3246 H         1 UNK         0.0000 
     46 H46         5.6739   54.3253   16.8489 H         1 UNK         0.0000 
     47 H47         4.7041   55.4833   17.7198 H         1 UNK         0.0000 
     48 H48         3.7758   51.3417   16.9371 H         1 UNK         0.0000 
     49 H49         2.3048   51.9495   16.2227 H         1 UNK         0.0000 
     50 H50         0.5863   52.8044   26.0673 H         1 UNK         0.0000 
     51 H51         1.1747   53.5605   28.2734 H         1 UNK         0.0000 
     52 H52         4.9562   54.9747   26.8414 H         1 UNK         0.0000 
     53 H53         4.4086   54.2169   24.5977 H         1 UNK         0.0000 
     54 N54         3.9043   53.7493   19.8416 N.4       1 UNK         0.0000 
     55 H55         3.1802   54.4508   19.6984 H         1 UNK         0.0000 
@<TRIPOS>BOND
     1    1    2 1    
     2    1   31 1    
     3    1   32 1    
     4    1   33 1    
     5    2    7 ar   
     6    2    3 ar   
     7    3    4 ar   
     8    3   34 1    
     9    4    5 ar   
    10    4   35 1    
    11    5    6 ar   
    12    5   36 1    
    13    6    7 ar   
    14    6   37 1    
    15    7    8 1    
    16    8   12 ar   
    17    8    9 ar   
    18    9   10 ar   
    19    9   24 1    
    20   10   11 ar   
    21   11   12 ar   
    22   11   14 1    
    23   12   13 2    
    24   14   38 1    
    25   14   39 1    
    26   14   54 1    
    27   15   16 1    
    28   15   40 1    
    29   15   41 1    
    30   15   54 1    
    31   16   17 1    
    32   16   42 1    
    33   16   43 1    
    34   17   18 1    
    35   17   44 1    
    36   17   45 1    
    37   18   19 1    
    38   18   46 1    
    39   18   47 1    
    40   19   20 1    
    41   19   21 1    
    42   19   54 1    
    43   21   22 2    
    44   21   23 am   BACKBONE|DICT|INTERRES
    45   23   48 1    
    46   23   49 1    
    47   24   29 ar   
    48   24   25 ar   
    49   25   26 ar   
    50   25   50 1    
    51   26   27 ar   
    52   26   51 1    
    53   27   28 ar   
    54   27   30 1    
    55   28   29 ar   
    56   28   52 1    
    57   29   53 1    
    58   54   55 1    
@<TRIPOS>SUBSTRUCTURE
     1 UNK         1 GROUP             0       ****    0 ROOT    
