ZINC59344917_853
                    3D
 Schrodinger Suite 2024-2.
 61 64  0  0  1  0            999 V2000
    6.7612   49.2194   10.1801 C   0  0  0  0  0  0
    7.9353   50.2132   10.1103 C   0  0  0  0  0  0
    7.5462   51.7012   10.2478 C   0  0  0  0  0  0
    6.8230   52.0281   11.5570 C   0  0  0  0  0  0
    5.5926   52.0215   11.5754 O   0  0  0  0  0  0
    7.6142   52.3232   12.6087 N   0  0  0  0  0  0
    7.2258   52.6163   13.9263 C   0  0  0  0  0  0
    6.0261   52.1701   14.4952 C   0  0  0  0  0  0
    5.7083   52.5116   15.8043 C   0  0  0  0  0  0
    6.5844   53.2953   16.5712 C   0  0  0  0  0  0
    7.7933   53.7151   16.0018 C   0  0  0  0  0  0
    8.1158   53.3687   14.6926 C   0  0  0  0  0  0
    6.2243   53.7265   17.9740 C   0  0  0  0  0  0
    6.6952   54.7672   18.4391 O   0  0  0  0  0  0
    5.3974   52.8968   18.6500 N   0  0  0  0  0  0
    4.7373   53.1030   19.8693 C   0  0  0  0  0  0
    4.2054   51.9772   20.5070 C   0  0  0  0  0  0
    3.5548   52.1045   21.7338 C   0  0  0  0  0  0
    3.4424   53.3646   22.3233 C   0  0  0  0  0  0
    3.9046   54.4882   21.6494 C   0  0  0  0  0  0
    4.5620   54.3681   20.4357 C   0  0  0  0  0  0
    2.7633   53.5955   23.9687 S   0  0  0  0  0  0
    2.0949   54.8964   23.9891 O   0  0  0  0  0  0
    2.0113   52.3758   24.2857 O   0  0  0  0  0  0
    4.1666   53.7205   25.1104 N   0  0  0  0  0  0
    5.4706   54.1719   24.5711 C   0  0  0  0  0  0
    6.1146   55.3142   25.3625 C   0  0  0  0  0  0
    6.3013   54.8826   26.8111 C   0  0  0  0  0  0
    4.9805   54.3810   27.3683 C   0  0  0  0  0  0
    3.9956   53.7912   26.5304 C   0  0  0  0  0  0
    2.8235   53.2974   27.1291 C   0  0  0  0  0  0
    2.6154   53.3875   28.5016 C   0  0  0  0  0  0
    3.5748   53.9835   29.3079 C   0  0  0  0  0  0
    4.7410   54.4848   28.7426 C   0  0  0  0  0  0
    7.1049   48.1905   10.0831 H   0  0  0  0  0  0
    6.0372   49.4103    9.3874 H   0  0  0  0  0  0
    6.2344   49.2837   11.1326 H   0  0  0  0  0  0
    8.6748   49.9546   10.8710 H   0  0  0  0  0  0
    8.4445   50.0968    9.1544 H   0  0  0  0  0  0
    8.4388   52.3219   10.1663 H   0  0  0  0  0  0
    6.9113   51.9986    9.4128 H   0  0  0  0  0  0
    8.6006   52.4125   12.4209 H   0  0  0  0  0  0
    5.3318   51.5538   13.9445 H   0  0  0  0  0  0
    4.7699   52.1582   16.2091 H   0  0  0  0  0  0
    8.4883   54.3191   16.5687 H   0  0  0  0  0  0
    9.0525   53.7101   14.2762 H   0  0  0  0  0  0
    5.2980   51.9480   18.2743 H   0  0  0  0  0  0
    4.3036   50.9963   20.0659 H   0  0  0  0  0  0
    3.1620   51.2268   22.2266 H   0  0  0  0  0  0
    3.7605   55.4571   22.0821 H   0  0  0  0  0  0
    4.9081   55.2664   19.9498 H   0  0  0  0  0  0
    6.1070   53.2966   24.6879 H   0  0  0  0  0  0
    5.4930   54.3739   23.5075 H   0  0  0  0  0  0
    7.0685   55.5856   24.9084 H   0  0  0  0  0  0
    5.4974   56.2090   25.2890 H   0  0  0  0  0  0
    7.0308   54.0715   26.8610 H   0  0  0  0  0  0
    6.7031   55.6972   27.4120 H   0  0  0  0  0  0
    2.0429   52.8288   26.5566 H   0  0  0  0  0  0
    1.7068   52.9948   28.9354 H   0  0  0  0  0  0
    3.4234   54.0479   30.3719 H   0  0  0  0  0  0
    5.4842   54.9433   29.3814 H   0  0  0  0  0  0
  1  2  1  0  0  0
  1 35  1  0  0  0
  1 36  1  0  0  0
  1 37  1  0  0  0
  2  3  1  0  0  0
  2 38  1  0  0  0
  2 39  1  0  0  0
  3  4  1  0  0  0
  3 40  1  0  0  0
  3 41  1  0  0  0
  4  5  2  0  0  0
  4  6  1  0  0  0
  6  7  1  0  0  0
  6 42  1  0  0  0
  7 12  2  0  0  0
  7  8  1  0  0  0
  8  9  2  0  0  0
  8 43  1  0  0  0
  9 10  1  0  0  0
  9 44  1  0  0  0
 10 11  2  0  0  0
 10 13  1  0  0  0
 11 12  1  0  0  0
 11 45  1  0  0  0
 12 46  1  0  0  0
 13 14  2  0  0  0
 13 15  1  0  0  0
 15 16  1  0  0  0
 15 47  1  0  0  0
 16 21  2  0  0  0
 16 17  1  0  0  0
 17 18  2  0  0  0
 17 48  1  0  0  0
 18 19  1  0  0  0
 18 49  1  0  0  0
 19 20  2  0  0  0
 19 22  1  0  0  0
 20 21  1  0  0  0
 20 50  1  0  0  0
 21 51  1  0  0  0
 22 23  2  0  0  0
 22 24  2  0  0  0
 22 25  1  0  0  0
 25 30  1  0  0  0
 25 26  1  0  0  0
 26 27  1  0  0  0
 26 52  1  0  0  0
 26 53  1  0  0  0
 27 28  1  0  0  0
 27 54  1  0  0  0
 27 55  1  0  0  0
 28 29  1  0  0  0
 28 56  1  0  0  0
 28 57  1  0  0  0
 29 34  2  0  0  0
 29 30  1  0  0  0
 30 31  2  0  0  0
 31 32  1  0  0  0
 31 58  1  0  0  0
 32 33  2  0  0  0
 32 59  1  0  0  0
 33 34  1  0  0  0
 33 60  1  0  0  0
 34 61  1  0  0  0
M  END
> <i_i_glide_confnum>
70

> <i_i_glide_lignum>
854

> <i_i_glide_posenum>
377

> <i_i_glide_rotatable_bonds>
9

> <i_m_Source_File_Index>
1107

> <b_m_subgroup_collapsed>
0

> <r_i_docking_score>
-2.34078

> <r_i_glide_ecoul>
-3.60974

> <r_i_glide_eff_state_penalty>
0

> <r_i_glide_einternal>
14.4257

> <r_i_glide_emodel>
-29.5197

> <r_i_glide_energy>
-36.0516

> <r_i_glide_erotb>
0.710565

> <r_i_glide_esite>
-0.135086

> <r_i_glide_evdw>
-32.4419

> <r_i_glide_gscore>
-2.34078

> <r_i_glide_hbond>
-0.16

> <r_i_glide_ligand_efficiency>
-0.0688464

> <r_i_glide_ligand_efficiency_ln>
-0.517143

> <r_i_glide_ligand_efficiency_sa>
-0.223036

> <r_i_glide_lipo>
-2.24569

> <r_i_glide_metal>
0

> <r_i_glide_rewards>
1.65299

> <s_i_glide_gridfile>
wee1_glide-grid

> <s_m_Source_File>
wee1_decoys_glide_SP.sdf

> <s_m_Source_Path>
/Users/zhangxujun/Desktop

> <s_m_entry_id>
1382

> <s_m_entry_name>
wee1_decoys_glide_SP.1107

> <s_m_subgroup_title>
wee1_decoys_glide_SP

> <s_m_subgroupid>
wee1_decoys_glide_SP


$$$$
