ZINC40814981_2266
                    3D
 Schrodinger Suite 2024-2.
 51 54  0  0  1  0            999 V2000
    2.0467   53.7086   24.5467 C   0  0  0  0  0  0
    2.9083   53.6851   25.8017 C   0  0  0  0  0  0
    2.5156   53.3194   27.1132 C   0  0  0  0  0  0
    3.6053   53.5566   27.9402 C   0  0  0  0  0  0
    4.6476   54.0366   27.2284 O   0  0  0  0  0  0
    4.2594   54.0684   25.9265 C   0  0  0  0  0  0
    5.2170   54.5643   24.9713 C   0  0  0  0  0  0
    6.1178   55.3333   25.3123 O   0  0  0  0  0  0
    4.9989   54.0991   23.7224 N   0  0  0  0  0  0
    5.5708   54.4961   22.4997 C   0  0  0  0  0  0
    6.7209   55.2929   22.3896 C   0  0  0  0  0  0
    7.1934   55.6846   21.1369 C   0  0  0  0  0  0
    6.5188   55.2941   19.9818 C   0  0  0  0  0  0
    5.3799   54.4951   20.0799 C   0  0  0  0  0  0
    4.9081   54.0948   21.3309 C   0  0  0  0  0  0
    3.7972   53.3224   21.4016 F   0  0  0  0  0  0
    3.7193   53.3065   29.4265 C   0  0  0  0  0  0
    2.6227   52.2786   29.7808 C   0  0  0  0  0  0
    1.2285   52.6242   29.1957 C   0  0  0  0  0  0
    1.2537   52.7618   27.6507 C   0  0  0  0  0  0
    0.3169   52.4953   26.8304 N   0  0  0  0  0  0
   -0.8547   51.9848   27.2738 N   0  0  0  0  0  0
   -2.0489   51.4735   26.0793 S   0  0  0  0  0  0
   -2.1619   52.5279   25.0631 O   0  0  0  0  0  0
   -1.7263   50.0996   25.6818 O   0  0  0  0  0  0
   -3.6031   51.4058   26.9674 C   0  0  0  0  0  0
   -3.6959   50.6527   28.1404 C   0  0  0  0  0  0
   -4.8984   50.6046   28.8392 C   0  0  0  0  0  0
   -6.0049   51.3023   28.3586 C   0  0  0  0  0  0
   -5.9193   52.0491   27.1845 C   0  0  0  0  0  0
   -4.7155   52.1018   26.4855 C   0  0  0  0  0  0
    1.0148   53.9785   24.7661 H   0  0  0  0  0  0
    2.3702   54.4570   23.8241 H   0  0  0  0  0  0
    2.0216   52.7387   24.0504 H   0  0  0  0  0  0
    4.2216   53.4631   23.6229 H   0  0  0  0  0  0
    7.2798   55.6111   23.2560 H   0  0  0  0  0  0
    8.0948   56.2750   21.0633 H   0  0  0  0  0  0
    6.8862   55.5944   19.0112 H   0  0  0  0  0  0
    4.8598   54.1816   19.1861 H   0  0  0  0  0  0
    4.6979   52.8978   29.6797 H   0  0  0  0  0  0
    3.5925   54.2354   29.9825 H   0  0  0  0  0  0
    2.9265   51.2970   29.4105 H   0  0  0  0  0  0
    2.5520   52.1777   30.8647 H   0  0  0  0  0  0
    0.5256   51.8448   29.4927 H   0  0  0  0  0  0
    0.8543   53.5527   29.6285 H   0  0  0  0  0  0
   -0.8151   51.4154   28.1235 H   0  0  0  0  0  0
   -2.8479   50.0969   28.5126 H   0  0  0  0  0  0
   -4.9699   50.0194   29.7450 H   0  0  0  0  0  0
   -6.9399   51.2568   28.8979 H   0  0  0  0  0  0
   -6.7837   52.5817   26.8158 H   0  0  0  0  0  0
   -4.6528   52.6798   25.5745 H   0  0  0  0  0  0
  1  2  1  0  0  0
  1 32  1  0  0  0
  1 33  1  0  0  0
  1 34  1  0  0  0
  2  6  2  0  0  0
  2  3  1  0  0  0
  3 20  1  0  0  0
  3  4  2  0  0  0
  4  5  1  0  0  0
  4 17  1  0  0  0
  5  6  1  0  0  0
  6  7  1  0  0  0
  7  8  2  0  0  0
  7  9  1  0  0  0
  9 10  1  0  0  0
  9 35  1  0  0  0
 10 15  2  0  0  0
 10 11  1  0  0  0
 11 12  2  0  0  0
 11 36  1  0  0  0
 12 13  1  0  0  0
 12 37  1  0  0  0
 13 14  2  0  0  0
 13 38  1  0  0  0
 14 15  1  0  0  0
 14 39  1  0  0  0
 15 16  1  0  0  0
 17 18  1  0  0  0
 17 40  1  0  0  0
 17 41  1  0  0  0
 18 19  1  0  0  0
 18 42  1  0  0  0
 18 43  1  0  0  0
 19 20  1  0  0  0
 19 44  1  0  0  0
 19 45  1  0  0  0
 20 21  2  0  0  0
 21 22  1  0  0  0
 22 23  1  0  0  0
 22 46  1  0  0  0
 23 24  2  0  0  0
 23 25  2  0  0  0
 23 26  1  0  0  0
 26 31  2  0  0  0
 26 27  1  0  0  0
 27 28  2  0  0  0
 27 47  1  0  0  0
 28 29  1  0  0  0
 28 48  1  0  0  0
 29 30  2  0  0  0
 29 49  1  0  0  0
 30 31  1  0  0  0
 30 50  1  0  0  0
 31 51  1  0  0  0
M  END
> <i_i_glide_confnum>
228

> <i_i_glide_lignum>
2267

> <i_i_glide_posenum>
361

> <i_i_glide_rotatable_bonds>
6

> <i_m_Source_File_Index>
673

> <b_m_subgroup_collapsed>
0

> <r_i_docking_score>
-4.67746

> <r_i_glide_ecoul>
-1.45941

> <r_i_glide_eff_state_penalty>
0

> <r_i_glide_einternal>
8.53308

> <r_i_glide_emodel>
-55.4404

> <r_i_glide_energy>
-47.9885

> <r_i_glide_erotb>
0.512447

> <r_i_glide_esite>
-0.131249

> <r_i_glide_evdw>
-46.529

> <r_i_glide_gscore>
-4.67746

> <r_i_glide_hbond>
0

> <r_i_glide_ligand_efficiency>
-0.150886

> <r_i_glide_ligand_efficiency_ln>
-1.05491

> <r_i_glide_ligand_efficiency_sa>
-0.47399

> <r_i_glide_lipo>
-2.27182

> <r_i_glide_metal>
0

> <r_i_glide_rewards>
-0.241472

> <s_i_glide_gridfile>
wee1_glide-grid

> <s_m_Source_File>
wee1_decoys_glide_SP.sdf

> <s_m_Source_Path>
/Users/zhangxujun/Desktop

> <s_m_entry_id>
948

> <s_m_entry_name>
wee1_decoys_glide_SP.673

> <s_m_subgroup_title>
wee1_decoys_glide_SP

> <s_m_subgroupid>
wee1_decoys_glide_SP


$$$$
