ZINC50633810_1807
                    3D
 Schrodinger Suite 2024-2.
 28 29  0  0  1  0            999 V2000
   -1.2848   49.8205   23.1952 C   0  0  0  0  0  0
   -1.2146   48.4336   23.3677 C   0  0  0  0  0  0
   -1.3810   47.8978   24.6467 C   0  0  0  0  0  0
   -1.6210   48.7191   25.6817 N   0  3  0  0  0  0
   -1.7301   50.0523   25.5583 C   0  0  0  0  0  0
   -1.5458   50.6371   24.3017 C   0  0  0  0  0  0
   -1.6519   52.4058   24.1021 S   0  0  0  0  0  0
   -2.2314   52.8967   25.3575 O   0  0  0  0  0  0
   -2.4485   52.5698   22.8817 O   0  0  0  0  0  0
   -0.1347   52.7468   23.8848 N   0  5  0  0  0  0
    0.8002   52.8967   24.8817 C   0  0  0  0  0  0
    0.6438   52.4967   26.2212 C   0  0  0  0  0  0
    1.6414   52.7119   27.1711 C   0  0  0  0  0  0
    2.8279   53.3354   26.7995 C   0  0  0  0  0  0
    3.0180   53.7260   25.4771 C   0  0  0  0  0  0
    2.0151   53.4995   24.5333 C   0  0  0  0  0  0
    4.4911   54.4967   25.0133 Cl  0  0  0  0  0  0
    1.4105   52.1966   28.8025 Cl  0  0  0  0  0  0
   -1.2956   46.5214   24.8817 N   0  0  0  0  0  0
   -1.1408   50.2599   22.2176 H   0  0  0  0  0  0
   -1.0149   47.7944   22.5209 H   0  0  0  0  0  0
   -1.9475   50.5888   26.4726 H   0  0  0  0  0  0
   -0.2628   52.0285   26.5573 H   0  0  0  0  0  0
    3.6049   53.5038   27.5307 H   0  0  0  0  0  0
    2.1779   53.8158   23.5126 H   0  0  0  0  0  0
   -1.1832   45.8965   24.0997 H   0  0  0  0  0  0
   -1.1199   46.2035   25.8294 H   0  0  0  0  0  0
   -1.6956   48.3294   26.6239 H   0  0  0  0  0  0
  1  6  2  0  0  0
  1  2  1  0  0  0
  1 20  1  0  0  0
  2  3  2  0  0  0
  2 21  1  0  0  0
  3  4  1  0  0  0
  3 19  1  0  0  0
  4  5  2  0  0  0
  4 28  1  0  0  0
  5  6  1  0  0  0
  5 22  1  0  0  0
  6  7  1  0  0  0
  7  8  2  0  0  0
  7  9  2  0  0  0
  7 10  1  0  0  0
 10 11  1  0  0  0
 11 16  2  0  0  0
 11 12  1  0  0  0
 12 13  2  0  0  0
 12 23  1  0  0  0
 13 14  1  0  0  0
 13 18  1  0  0  0
 14 15  2  0  0  0
 14 24  1  0  0  0
 15 16  1  0  0  0
 15 17  1  0  0  0
 16 25  1  0  0  0
 19 26  1  0  0  0
 19 27  1  0  0  0
M  CHG  2   4   1  10  -1
M  END
> <i_i_glide_confnum>
1

> <i_i_glide_lignum>
1808

> <i_i_glide_posenum>
348

> <i_i_glide_rotatable_bonds>
3

> <i_m_Source_File_Index>
1387

> <b_m_subgroup_collapsed>
0

> <r_i_docking_score>
-4.56587

> <r_i_glide_ecoul>
-7.38716

> <r_i_glide_eff_state_penalty>
0

> <r_i_glide_einternal>
0.95563

> <r_i_glide_emodel>
-40.5928

> <r_i_glide_energy>
-29.5599

> <r_i_glide_erotb>
0.552399

> <r_i_glide_esite>
-0.196323

> <r_i_glide_evdw>
-22.1728

> <r_i_glide_gscore>
-4.56587

> <r_i_glide_hbond>
-0.2

> <r_i_glide_ligand_efficiency>
-0.240309

> <r_i_glide_ligand_efficiency_ln>
-1.15755

> <r_i_glide_ligand_efficiency_sa>
-0.641241

> <r_i_glide_lipo>
-1.39352

> <r_i_glide_metal>
0

> <r_i_glide_rewards>
-1.11171

> <s_i_glide_gridfile>
wee1_glide-grid

> <s_m_Source_File>
wee1_decoys_glide_SP.sdf

> <s_m_Source_Path>
/Users/zhangxujun/Desktop

> <s_m_entry_id>
1662

> <s_m_entry_name>
wee1_decoys_glide_SP.1387

> <s_m_subgroup_title>
wee1_decoys_glide_SP

> <s_m_subgroupid>
wee1_decoys_glide_SP


$$$$
