@<TRIPOS>MOLECULE
ZINC08898054_2898
61   65    1
SMALL
USER_CHARGES


@<TRIPOS>ATOM
      1 C1          2.7362   53.1837   29.9004 C.ar      1 UNK         0.0000 
      2 C2          1.7996   52.8861   28.9084 C.ar      1 UNK         0.0000 
      3 C3          2.0683   53.1369   27.5612 C.ar      1 UNK         0.0000 
      4 C4          3.3250   53.6717   27.2563 C.ar      1 UNK         0.0000 
      5 C5          4.2897   53.9889   28.2379 C.ar      1 UNK         0.0000 
      6 C6          3.9738   53.7601   29.5853 C.ar      1 UNK         0.0000 
      7 C7          5.4113   54.4964   27.5099 C.2       1 UNK         0.0000 
      8 C8          5.0734   54.4197   26.1586 C.2       1 UNK         0.0000 
      9 O9          3.7950   53.9437   26.0070 O.3       1 UNK         0.0000 
     10 C10         5.8259   54.7677   24.9733 C.2       1 UNK         0.0000 
     11 O11         6.8745   55.4125   25.0486 O.2       1 UNK         0.0000 
     12 N12         5.2310   54.3087   23.8464 N.am      1 UNK         0.0000 
     13 C13         5.4378   54.4922   22.5024 C.2       1 UNK         0.0000 
     14 S14         6.7043   55.2968   21.7653 S.2       1 UNK         0.0000 
     15 N15         4.4898   53.9262   21.6937 N.pl3     1 UNK         0.0000 
     16 C16         3.3726   53.1595   22.0814 C.ar      1 UNK         0.0000 
     17 C17         2.4289   53.6570   22.9882 C.ar      1 UNK         0.0000 
     18 C18         1.4318   52.8177   23.4801 C.ar      1 UNK         0.0000 
     19 C19         1.3642   51.4844   23.0621 C.ar      1 UNK         0.0000 
     20 C20         2.2451   51.0283   22.0753 C.ar      1 UNK         0.0000 
     21 C21         3.2477   51.8622   21.5827 C.ar      1 UNK         0.0000 
     22 N22         0.4598   50.6011   23.6328 N.pl3     1 UNK         0.0000 
     23 C23        -0.6595   50.0161   22.8764 C.3       1 UNK         0.0000 
     24 C24        -1.1598   48.6315   23.3731 C.3       1 UNK         0.0000 
     25 C25         0.0378   49.0873   25.5596 C.3       1 UNK         0.0000 
     26 C26         0.2664   50.5280   25.0861 C.3       1 UNK         0.0000 
     27 C27        -1.6027   47.1642   25.4337 C.3       1 UNK         0.0000 
     28 C28        -3.0724   46.7903   25.3110 C.ar      1 UNK         0.0000 
     29 C29        -3.9358   47.0509   26.3830 C.ar      1 UNK         0.0000 
     30 C30        -5.2826   46.6962   26.3020 C.ar      1 UNK         0.0000 
     31 C31        -5.7760   46.0788   25.1519 C.ar      1 UNK         0.0000 
     32 C32        -4.9202   45.8152   24.0808 C.ar      1 UNK         0.0000 
     33 C33        -3.5714   46.1649   24.1609 C.ar      1 UNK         0.0000 
     34 F34        -2.7481   45.8816   23.1247 F         1 UNK         0.0000 
     35 H35         2.4888   52.9517   30.9265 H         1 UNK         0.0000 
     36 H36         0.8521   52.4494   29.1954 H         1 UNK         0.0000 
     37 H37         1.3496   52.9158   26.7883 H         1 UNK         0.0000 
     38 H38         4.6944   54.0078   30.3496 H         1 UNK         0.0000 
     39 H39         6.3504   54.8542   27.9078 H         1 UNK         0.0000 
     40 H40         4.4148   53.7508   24.0497 H         1 UNK         0.0000 
     41 H41         4.6535   53.9895   20.6988 H         1 UNK         0.0000 
     42 H42         2.4955   54.6726   23.3524 H         1 UNK         0.0000 
     43 H43         0.7388   53.1957   24.2183 H         1 UNK         0.0000 
     44 H44         2.1921   50.0060   21.7274 H         1 UNK         0.0000 
     45 H45         3.9539   51.4777   20.8598 H         1 UNK         0.0000 
     46 H46        -1.4689   50.7293   23.0474 H         1 UNK         0.0000 
     47 H47        -0.4647   50.0131   21.8025 H         1 UNK         0.0000 
     48 H48        -0.4944   47.8259   23.0661 H         1 UNK         0.0000 
     49 H49        -2.1707   48.4463   23.0091 H         1 UNK         0.0000 
     50 H50         0.8499   48.4066   25.2918 H         1 UNK         0.0000 
     51 H51        -0.0958   49.0741   26.6428 H         1 UNK         0.0000 
     52 H52         1.1046   50.9698   25.6142 H         1 UNK         0.0000 
     53 H53        -0.5975   51.1466   25.3353 H         1 UNK         0.0000 
     54 H54        -0.9464   46.4746   24.9015 H         1 UNK         0.0000 
     55 H55        -1.3010   47.1354   26.4815 H         1 UNK         0.0000 
     56 H56        -3.5600   47.5214   27.2832 H         1 UNK         0.0000 
     57 H57        -5.9460   46.8970   27.1326 H         1 UNK         0.0000 
     58 H58        -6.8191   45.8017   25.0917 H         1 UNK         0.0000 
     59 H59        -5.3016   45.3400   23.1884 H         1 UNK         0.0000 
     60 N60        -1.2666   48.5822   24.9162 N.4       1 UNK         0.0000 
     61 H61        -1.9964   49.2108   25.2201 H         1 UNK         0.0000 
@<TRIPOS>BOND
     1    1    6 ar   
     2    1    2 ar   
     3    1   35 1    
     4    2    3 ar   
     5    2   36 1    
     6    3    4 ar   
     7    3   37 1    
     8    4    9 1    
     9    4    5 ar   
    10    5    6 ar   
    11    5    7 1    
    12    6   38 1    
    13    7    8 2    
    14    7   39 1    
    15    8    9 1    
    16    8   10 1    
    17   10   11 2    
    18   10   12 am   BACKBONE|DICT|INTERRES
    19   12   13 am   BACKBONE|DICT|INTERRES
    20   12   40 1    
    21   13   14 2    
    22   13   15 1    
    23   15   16 1    
    24   15   41 1    
    25   16   21 ar   
    26   16   17 ar   
    27   17   18 ar   
    28   17   42 1    
    29   18   19 ar   
    30   18   43 1    
    31   19   20 ar   
    32   19   22 1    
    33   20   21 ar   
    34   20   44 1    
    35   21   45 1    
    36   22   26 1    
    37   22   23 1    
    38   23   24 1    
    39   23   46 1    
    40   23   47 1    
    41   24   48 1    
    42   24   49 1    
    43   24   60 1    
    44   25   26 1    
    45   25   50 1    
    46   25   51 1    
    47   25   60 1    
    48   26   52 1    
    49   26   53 1    
    50   27   28 1    
    51   27   54 1    
    52   27   55 1    
    53   27   60 1    
    54   28   33 ar   
    55   28   29 ar   
    56   29   30 ar   
    57   29   56 1    
    58   30   31 ar   
    59   30   57 1    
    60   31   32 ar   
    61   31   58 1    
    62   32   33 ar   
    63   32   59 1    
    64   33   34 1    
    65   60   61 1    
@<TRIPOS>SUBSTRUCTURE
     1 UNK         1 GROUP             0       ****    0 ROOT    
