@<TRIPOS>MOLECULE
ZINC36555920_5601
70   73    1
SMALL
USER_CHARGES


@<TRIPOS>ATOM
      1 C1          1.9272   51.9502   21.6774 C.3       1 UNK         0.0000 
      2 C2          2.1107   52.7245   22.9585 C.2       1 UNK         0.0000 
      3 C3          2.9658   53.7503   23.3095 C.2       1 UNK         0.0000 
      4 C4          2.6275   54.1140   24.6051 C.2       1 UNK         0.0000 
      5 C5          1.5897   53.2947   25.0241 C.2       1 UNK         0.0000 
      6 O6          1.2892   52.4342   24.0086 O.3       1 UNK         0.0000 
      7 C7          0.7081   53.2780   26.2649 C.3       1 UNK         0.0000 
      8 N8          0.8763   52.1745   27.2214 N.am      1 UNK         0.0000 
      9 C9         -0.1476   51.0558   27.2488 C.3       1 UNK         0.0000 
     10 H10        -0.1666   50.6785   28.2714 H         1 UNK         0.0000 
     11 C11        -1.6003   51.4443   26.9302 C.ar      1 UNK         0.0000 
     12 C12        -2.5598   51.2960   27.9346 C.ar      1 UNK         0.0000 
     13 C13        -3.9074   51.5378   27.6784 C.ar      1 UNK         0.0000 
     14 C14        -4.3278   51.9819   26.4189 C.ar      1 UNK         0.0000 
     15 C15        -3.3774   52.0990   25.3956 C.ar      1 UNK         0.0000 
     16 C16        -2.0393   51.8109   25.6455 C.ar      1 UNK         0.0000 
     17 N17        -5.7504   52.3199   26.1705 N.pl3     1 UNK         0.0000 
     18 O18        -6.5478   52.2212   27.1013 O.co2     1 UNK         0.0000 
     19 O19        -6.0726   52.6912   25.0474 O.co2     1 UNK         0.0000 
     20 C20         0.3476   49.8054   26.4821 C.2       1 UNK         0.0000 
     21 O21         1.4020   49.2932   26.8779 O.2       1 UNK         0.0000 
     22 N22        -0.4512   49.2865   25.5332 N.am      1 UNK         0.0000 
     23 C23        -0.0768   48.3314   24.5041 C.3       1 UNK         0.0000 
     24 C24        -1.2604   47.4035   24.1436 C.3       1 UNK         0.0000 
     25 C25        -2.4415   48.1447   23.4874 C.3       1 UNK         0.0000 
     26 C26        -1.9856   48.8792   22.2171 C.3       1 UNK         0.0000 
     27 C27        -0.7911   49.8141   22.4857 C.3       1 UNK         0.0000 
     28 C28         0.3676   49.1157   23.2375 C.3       1 UNK         0.0000 
     29 C29         1.9372   52.1862   28.0979 C.2       1 UNK         0.0000 
     30 O30         2.0788   51.2971   28.9349 O.2       1 UNK         0.0000 
     31 C31         3.0098   53.3290   28.1137 C.3       1 UNK         0.0000 
     32 C32         3.4881   53.6264   29.5550 C.3       1 UNK         0.0000 
     33 C33         4.5326   54.7628   29.5011 C.3       1 UNK         0.0000 
     34 C34         5.6960   54.5009   28.5136 C.3       1 UNK         0.0000 
     35 C35         5.2130   54.0614   27.1334 C.3       1 UNK         0.0000 
     36 C36         4.2258   52.8961   27.2699 C.3       1 UNK         0.0000 
     37 H37         2.5917   52.3110   20.8906 H         1 UNK         0.0000 
     38 H38         2.1451   50.8897   21.7997 H         1 UNK         0.0000 
     39 H39         0.9147   52.0518   21.2950 H         1 UNK         0.0000 
     40 H40         3.7245   54.1994   22.6881 H         1 UNK         0.0000 
     41 H41         3.0797   54.9145   25.1689 H         1 UNK         0.0000 
     42 H42        -0.3114   53.2967   25.9369 H         1 UNK         0.0000 
     43 H43         0.8348   54.1521   26.8817 H         1 UNK         0.0000 
     44 H44        -2.2686   50.9509   28.9201 H         1 UNK         0.0000 
     45 H45        -4.6210   51.3984   28.4812 H         1 UNK         0.0000 
     46 H46        -3.6682   52.4005   24.3986 H         1 UNK         0.0000 
     47 H47        -1.3332   51.8811   24.8340 H         1 UNK         0.0000 
     48 H48        -1.3397   49.7415   25.3961 H         1 UNK         0.0000 
     49 H49         0.7141   47.6947   24.8915 H         1 UNK         0.0000 
     50 H50        -1.6036   46.8933   25.0423 H         1 UNK         0.0000 
     51 H51        -0.9114   46.6259   23.4646 H         1 UNK         0.0000 
     52 H52        -2.8836   48.8540   24.1905 H         1 UNK         0.0000 
     53 H53        -3.2345   47.4369   23.2408 H         1 UNK         0.0000 
     54 H54        -2.8162   49.4496   21.7970 H         1 UNK         0.0000 
     55 H55        -1.7077   48.1472   21.4576 H         1 UNK         0.0000 
     56 H56        -1.1328   50.6805   23.0476 H         1 UNK         0.0000 
     57 H57        -0.4268   50.2093   21.5368 H         1 UNK         0.0000 
     58 H58         0.9173   48.4968   22.5413 H         1 UNK         0.0000 
     59 H59         1.1064   49.8589   23.5416 H         1 UNK         0.0000 
     60 H60         2.5680   54.2357   27.7155 H         1 UNK         0.0000 
     61 H61         2.6660   53.9773   30.1789 H         1 UNK         0.0000 
     62 H62         3.9874   52.7637   30.0036 H         1 UNK         0.0000 
     63 H63         4.0239   55.6965   29.2494 H         1 UNK         0.0000 
     64 H64         4.9640   54.8965   30.4807 H         1 UNK         0.0000 
     65 H65         6.3015   55.3912   28.3955 H         1 UNK         0.0000 
     66 H66         6.3631   53.7344   28.9099 H         1 UNK         0.0000 
     67 H67         4.7545   54.9069   26.6247 H         1 UNK         0.0000 
     68 H68         6.0636   53.7575   26.5159 H         1 UNK         0.0000 
     69 H69         4.7781   52.0975   27.7606 H         1 UNK         0.0000 
     70 H70         3.9432   52.6392   26.2575 H         1 UNK         0.0000 
@<TRIPOS>BOND
     1    1    2 1    
     2    1   37 1    
     3    1   38 1    
     4    1   39 1    
     5    2    6 1    
     6    2    3 2    
     7    3    4 1    
     8    3   40 1    
     9    4    5 2    
    10    4   41 1    
    11    5    6 1    
    12    5    7 1    
    13    7    8 1    
    14    7   42 1    
    15    7   43 1    
    16    8    9 1    
    17    8   29 am   BACKBONE|DICT|INTERRES
    18    9   10 1    
    19    9   11 1    
    20    9   20 1    
    21   11   16 ar   
    22   11   12 ar   
    23   12   13 ar   
    24   12   44 1    
    25   13   14 ar   
    26   13   45 1    
    27   14   15 ar   
    28   14   17 1    
    29   15   16 ar   
    30   15   46 1    
    31   16   47 1    
    32   17   18 2    
    33   17   19 1    
    34   20   21 2    
    35   20   22 am   BACKBONE|DICT|INTERRES
    36   22   23 1    
    37   22   48 1    
    38   23   28 1    
    39   23   24 1    
    40   23   49 1    
    41   24   25 1    
    42   24   50 1    
    43   24   51 1    
    44   25   26 1    
    45   25   52 1    
    46   25   53 1    
    47   26   27 1    
    48   26   54 1    
    49   26   55 1    
    50   27   28 1    
    51   27   56 1    
    52   27   57 1    
    53   28   58 1    
    54   28   59 1    
    55   29   30 2    
    56   29   31 1    
    57   31   36 1    
    58   31   32 1    
    59   31   60 1    
    60   32   33 1    
    61   32   61 1    
    62   32   62 1    
    63   33   34 1    
    64   33   63 1    
    65   33   64 1    
    66   34   35 1    
    67   34   65 1    
    68   34   66 1    
    69   35   36 1    
    70   35   67 1    
    71   35   68 1    
    72   36   69 1    
    73   36   70 1    
@<TRIPOS>SUBSTRUCTURE
     1 UNK         1 GROUP             0       ****    0 ROOT    
