@<TRIPOS>MOLECULE
ZINC36213714_697
74   77    1
SMALL
USER_CHARGES


@<TRIPOS>ATOM
      1 C1          6.6825   56.0334   16.5570 C.3       1 UNK         0.0000 
      2 C2          6.0289   55.1601   17.6113 C.ar      1 UNK         0.0000 
      3 C3          6.5170   53.8793   17.8591 C.ar      1 UNK         0.0000 
      4 C4          5.9052   53.0817   18.8215 C.ar      1 UNK         0.0000 
      5 C5          4.7955   53.5237   19.5486 C.ar      1 UNK         0.0000 
      6 C6          4.3250   54.8145   19.2803 C.ar      1 UNK         0.0000 
      7 C7          4.9255   55.6268   18.3213 C.ar      1 UNK         0.0000 
      8 C8          4.1877   52.6253   20.6175 C.2       1 UNK         0.0000 
      9 O9          4.7045   51.5384   20.8834 O.2       1 UNK         0.0000 
     10 N10         3.1296   53.0943   21.3189 N.am      1 UNK         0.0000 
     11 C11         2.5470   52.4465   22.5177 C.3       1 UNK         0.0000 
     12 H12         3.1045   51.5497   22.7261 H         1 UNK         0.0000 
     13 C13         1.2045   51.6962   22.2425 C.3       1 UNK         0.0000 
     14 C14         0.0325   52.6394   22.0196 C.3       1 UNK         0.0000 
     15 C15        -1.2998   51.8646   21.8661 C.3       1 UNK         0.0000 
     16 N16        -1.1487   50.9803   20.6873 N.am      1 UNK         0.0000 
     17 C17        -0.0648   49.9768   20.8601 C.3       1 UNK         0.0000 
     18 C18         1.2563   50.7684   20.9981 C.3       1 UNK         0.0000 
     19 C19        -1.5580   51.4336   19.4652 C.2       1 UNK         0.0000 
     20 O20        -2.1717   52.4966   19.3306 O.2       1 UNK         0.0000 
     21 N21        -1.3531   50.5647   18.4483 N.am      1 UNK         0.0000 
     22 C22        -1.6618   50.6815   17.0800 C.ar      1 UNK         0.0000 
     23 C23        -1.5215   49.5143   16.3250 C.ar      1 UNK         0.0000 
     24 C24        -1.7958   49.5215   14.9604 C.ar      1 UNK         0.0000 
     25 C25        -2.2035   50.7018   14.3398 C.ar      1 UNK         0.0000 
     26 C26        -2.3404   51.8740   15.0844 C.ar      1 UNK         0.0000 
     27 C27        -2.0681   51.8693   16.4500 C.ar      1 UNK         0.0000 
     28 C28        -2.5142   50.7065   12.8552 C.3       1 UNK         0.0000 
     29 C29         2.7072   53.2064   23.8953 C.2       1 UNK         0.0000 
     30 O30         1.7987   53.0529   24.7142 O.2       1 UNK         0.0000 
     31 N31         3.8686   53.8607   24.2440 N.am      1 UNK         0.0000 
     32 C32         4.8935   54.3320   23.3034 C.3       1 UNK         0.0000 
     33 C33         6.1581   53.5176   23.4828 C.3       1 UNK         0.0000 
     34 C34         6.7020   53.6965   24.9132 C.3       1 UNK         0.0000 
     35 C35         5.6282   53.5222   26.0168 C.3       1 UNK         0.0000 
     36 C36         4.2293   54.1058   25.6774 C.3       1 UNK         0.0000 
     37 H37         3.4932   53.6315   26.3312 H         1 UNK         0.0000 
     38 C38         4.3105   55.5590   26.0811 C.3       1 UNK         0.0000 
     39 H39         5.9519   56.6980   16.0932 H         1 UNK         0.0000 
     40 H40         7.4766   56.6376   16.9973 H         1 UNK         0.0000 
     41 H41         7.1074   55.4273   15.7557 H         1 UNK         0.0000 
     42 H42         7.3683   53.4979   17.3139 H         1 UNK         0.0000 
     43 H43         6.3041   52.0967   18.9979 H         1 UNK         0.0000 
     44 H44         3.5044   55.2229   19.8245 H         1 UNK         0.0000 
     45 H45         4.5369   56.6196   18.1409 H         1 UNK         0.0000 
     46 H46         2.6567   53.9271   20.9948 H         1 UNK         0.0000 
     47 H47         0.9929   51.0786   23.1196 H         1 UNK         0.0000 
     48 H48        -0.0392   53.2965   22.8835 H         1 UNK         0.0000 
     49 H49         0.2749   53.2961   21.1812 H         1 UNK         0.0000 
     50 H50        -1.4649   51.2248   22.7336 H         1 UNK         0.0000 
     51 H51        -2.1924   52.4895   21.8212 H         1 UNK         0.0000 
     52 H52        -0.2736   49.4335   21.7839 H         1 UNK         0.0000 
     53 H53        -0.0559   49.1962   20.1001 H         1 UNK         0.0000 
     54 H54         1.4979   51.3157   20.0849 H         1 UNK         0.0000 
     55 H55         2.0932   50.0762   21.1020 H         1 UNK         0.0000 
     56 H56        -0.9060   49.6970   18.6980 H         1 UNK         0.0000 
     57 H57        -1.2029   48.5911   16.7882 H         1 UNK         0.0000 
     58 H58        -1.6861   48.6111   14.3886 H         1 UNK         0.0000 
     59 H59        -2.6537   52.7913   14.6071 H         1 UNK         0.0000 
     60 H60        -2.1675   52.7992   16.9852 H         1 UNK         0.0000 
     61 H61        -2.8937   49.7371   12.5328 H         1 UNK         0.0000 
     62 H62        -3.2886   51.4394   12.6181 H         1 UNK         0.0000 
     63 H63        -1.6198   50.9427   12.2785 H         1 UNK         0.0000 
     64 H64         5.1626   55.2968   23.6794 H         1 UNK         0.0000 
     65 H65         4.5871   54.6235   22.3046 H         1 UNK         0.0000 
     66 H66         6.9123   53.8441   22.7683 H         1 UNK         0.0000 
     67 H67         5.9130   52.4966   23.2255 H         1 UNK         0.0000 
     68 H68         7.1508   54.6870   24.9989 H         1 UNK         0.0000 
     69 H69         7.5044   52.9856   25.0837 H         1 UNK         0.0000 
     70 H70         6.0229   53.9667   26.9329 H         1 UNK         0.0000 
     71 H71         5.5035   52.4967   26.3306 H         1 UNK         0.0000 
     72 H72         4.3486   55.6210   27.1657 H         1 UNK         0.0000 
     73 H73         3.4824   56.0966   25.6824 H         1 UNK         0.0000 
     74 H74         5.2035   56.0542   25.6957 H         1 UNK         0.0000 
@<TRIPOS>BOND
     1    1    2 1    
     2    1   39 1    
     3    1   40 1    
     4    1   41 1    
     5    2    7 ar   
     6    2    3 ar   
     7    3    4 ar   
     8    3   42 1    
     9    4    5 ar   
    10    4   43 1    
    11    5    6 ar   
    12    5    8 1    
    13    6    7 ar   
    14    6   44 1    
    15    7   45 1    
    16    8    9 2    
    17    8   10 am   BACKBONE|DICT|INTERRES
    18   10   11 1    
    19   10   46 1    
    20   11   12 1    
    21   11   13 1    
    22   11   29 1    
    23   13   18 1    
    24   13   14 1    
    25   13   47 1    
    26   14   15 1    
    27   14   48 1    
    28   14   49 1    
    29   15   16 1    
    30   15   50 1    
    31   15   51 1    
    32   16   17 1    
    33   16   19 am   BACKBONE|DICT|INTERRES
    34   17   18 1    
    35   17   52 1    
    36   17   53 1    
    37   18   54 1    
    38   18   55 1    
    39   19   20 2    
    40   19   21 am   BACKBONE|DICT|INTERRES
    41   21   22 1    
    42   21   56 1    
    43   22   27 ar   
    44   22   23 ar   
    45   23   24 ar   
    46   23   57 1    
    47   24   25 ar   
    48   24   58 1    
    49   25   26 ar   
    50   25   28 1    
    51   26   27 ar   
    52   26   59 1    
    53   27   60 1    
    54   28   61 1    
    55   28   62 1    
    56   28   63 1    
    57   29   30 2    
    58   29   31 am   BACKBONE|DICT|INTERRES
    59   31   36 1    
    60   31   32 1    
    61   32   33 1    
    62   32   64 1    
    63   32   65 1    
    64   33   34 1    
    65   33   66 1    
    66   33   67 1    
    67   34   35 1    
    68   34   68 1    
    69   34   69 1    
    70   35   36 1    
    71   35   70 1    
    72   35   71 1    
    73   36   37 1    
    74   36   38 1    
    75   38   72 1    
    76   38   73 1    
    77   38   74 1    
@<TRIPOS>SUBSTRUCTURE
     1 UNK         1 GROUP             0       ****    0 ROOT    
