@<TRIPOS>MOLECULE
ZINC08708095_153
49   51    1
SMALL
USER_CHARGES


@<TRIPOS>ATOM
      1 C1         -3.5505   51.2292   23.8045 C.ar      1 UNK         0.0000 
      2 C2         -4.5574   52.0967   24.2194 C.ar      1 UNK         0.0000 
      3 C3         -4.3503   52.9252   25.3192 C.ar      1 UNK         0.0000 
      4 C4         -3.1534   52.8685   26.0258 C.ar      1 UNK         0.0000 
      5 C5         -2.1510   51.9906   25.6255 C.ar      1 UNK         0.0000 
      6 C6         -2.3400   51.1701   24.5039 C.ar      1 UNK         0.0000 
      7 C7         -1.2439   50.1932   24.0363 C.3       1 UNK         0.0000 
      8 H8         -1.6401   49.5857   23.2204 H         1 UNK         0.0000 
      9 C9         -0.8247   49.2524   25.1913 C.2       1 UNK         0.0000 
     10 O10         0.3044   49.2967   25.6763 O.2       1 UNK         0.0000 
     11 N11        -1.7550   48.4386   25.6817 N.am      1 UNK         0.0000 
     12 C12         0.7114   49.9416   22.4046 C.3       1 UNK         0.0000 
     13 C13         2.0044   50.5776   21.8608 C.3       1 UNK         0.0000 
     14 N14         1.8577   51.9779   21.4395 N.pl3     1 UNK         0.0000 
     15 C15         1.2218   52.8294   22.4484 C.3       1 UNK         0.0000 
     16 C16        -0.1430   52.2753   22.8889 C.3       1 UNK         0.0000 
     17 C17         2.7058   52.4967   20.4762 C.ar      1 UNK         0.0000 
     18 C18         3.7694   53.3042   20.8903 C.ar      1 UNK         0.0000 
     19 C19         4.6848   53.8196   19.9786 C.ar      1 UNK         0.0000 
     20 C20         4.5678   53.5058   18.6168 C.ar      1 UNK         0.0000 
     21 C21         3.5044   52.6924   18.2026 C.ar      1 UNK         0.0000 
     22 C22         2.5653   52.1751   19.1076 C.ar      1 UNK         0.0000 
     23 N23         1.4021   51.4126   18.5717 N.pl3     1 UNK         0.0000 
     24 O24         1.5053   50.8967   17.4637 O.co2     1 UNK         0.0000 
     25 O25         0.3527   51.3685   19.2092 O.co2     1 UNK         0.0000 
     26 C26         5.5783   54.0326   17.5926 C.3       1 UNK         0.0000 
     27 F27         5.5497   55.3657   17.5805 F         1 UNK         0.0000 
     28 F28         6.8079   53.6324   17.9181 F         1 UNK         0.0000 
     29 F29         5.3236   53.6080   16.3534 F         1 UNK         0.0000 
     30 Cl30        5.9407   54.8472   20.5838 Cl        1 UNK         0.0000 
     31 Cl31       -5.5788   54.0349   25.8083 Cl        1 UNK         0.0000 
     32 H32        -3.7229   50.5997   22.9431 H         1 UNK         0.0000 
     33 H33        -5.4943   52.1354   23.6817 H         1 UNK         0.0000 
     34 H34        -3.0021   53.5057   26.8817 H         1 UNK         0.0000 
     35 H35        -1.2273   51.9513   26.1862 H         1 UNK         0.0000 
     36 H36        -1.5534   48.0368   26.6016 H         1 UNK         0.0000 
     37 H37        -2.7095   48.4717   25.3636 H         1 UNK         0.0000 
     38 H38         0.9530   49.0084   22.9183 H         1 UNK         0.0000 
     39 H39        -0.0171   49.7649   21.6103 H         1 UNK         0.0000 
     40 H40         2.7222   50.6135   22.6811 H         1 UNK         0.0000 
     41 H41         2.4481   49.9621   21.0753 H         1 UNK         0.0000 
     42 H42         1.1248   53.8522   22.0817 H         1 UNK         0.0000 
     43 H43         1.8960   52.8635   23.3065 H         1 UNK         0.0000 
     44 H44        -0.8698   52.2158   22.0761 H         1 UNK         0.0000 
     45 H45        -0.5253   52.9025   23.6936 H         1 UNK         0.0000 
     46 H46         3.8861   53.5429   21.9369 H         1 UNK         0.0000 
     47 H47         3.4085   52.4443   17.1540 H         1 UNK         0.0000 
     48 N48         0.0503   50.8569   23.4653 N.4       1 UNK         0.0000 
     49 H49         0.6915   50.9431   24.2452 H         1 UNK         0.0000 
@<TRIPOS>BOND
     1    1    6 ar   
     2    1    2 ar   
     3    1   32 1    
     4    2    3 ar   
     5    2   33 1    
     6    3    4 ar   
     7    3   31 1    
     8    4    5 ar   
     9    4   34 1    
    10    5    6 ar   
    11    5   35 1    
    12    6    7 1    
    13    7    8 1    
    14    7    9 1    
    15    7   48 1    
    16    9   10 2    
    17    9   11 am   BACKBONE|DICT|INTERRES
    18   11   36 1    
    19   11   37 1    
    20   12   13 1    
    21   12   38 1    
    22   12   39 1    
    23   12   48 1    
    24   13   14 1    
    25   13   40 1    
    26   13   41 1    
    27   14   15 1    
    28   14   17 1    
    29   15   16 1    
    30   15   42 1    
    31   15   43 1    
    32   16   44 1    
    33   16   45 1    
    34   16   48 1    
    35   17   22 ar   
    36   17   18 ar   
    37   18   19 ar   
    38   18   46 1    
    39   19   20 ar   
    40   19   30 1    
    41   20   21 ar   
    42   20   26 1    
    43   21   22 ar   
    44   21   47 1    
    45   22   23 1    
    46   23   24 2    
    47   23   25 1    
    48   26   27 1    
    49   26   28 1    
    50   26   29 1    
    51   48   49 1    
@<TRIPOS>SUBSTRUCTURE
     1 UNK         1 GROUP             0       ****    0 ROOT    
