@<TRIPOS>MOLECULE
ZINC24831406_5161
65   71    1
SMALL
USER_CHARGES


@<TRIPOS>ATOM
      1 C1          3.2473   53.8066   22.7674 C.ar      1 UNK         0.0000 
      2 C2          2.0759   53.5495   23.4624 C.ar      1 UNK         0.0000 
      3 C3          1.1905   52.5891   22.9880 C.ar      1 UNK         0.0000 
      4 C4          1.4206   51.8853   21.7892 C.ar      1 UNK         0.0000 
      5 C5          2.6168   52.1731   21.0769 C.ar      1 UNK         0.0000 
      6 C6          3.5112   53.1204   21.5908 C.ar      1 UNK         0.0000 
      7 C7          2.9471   51.5080   19.7404 C.3       1 UNK         0.0000 
      8 C8          2.1480   50.2211   19.4807 C.3       1 UNK         0.0000 
      9 C9          0.6644   50.4644   19.7767 C.3       1 UNK         0.0000 
     10 C10         0.4538   50.7748   21.2859 C.3       1 UNK         0.0000 
     11 C11        -1.0196   51.1156   21.5080 C.2       1 UNK         0.0000 
     12 O12        -1.6213   52.0965   21.0688 O.2       1 UNK         0.0000 
     13 N13        -1.5288   50.1039   22.2409 N.am      1 UNK         0.0000 
     14 C14        -0.6199   49.1538   22.5795 C.2       1 UNK         0.0000 
     15 O15        -0.7944   48.1655   23.2865 O.2       1 UNK         0.0000 
     16 N16         0.5479   49.5824   22.0896 N.am      1 UNK         0.0000 
     17 C17        -2.8808   50.1702   22.8545 C.3       1 UNK         0.0000 
     18 C18        -2.8920   50.7380   24.2978 C.2       1 UNK         0.0000 
     19 O19        -3.9812   50.8311   24.8597 O.2       1 UNK         0.0000 
     20 N20        -1.7165   51.1037   24.8517 N.am      1 UNK         0.0000 
     21 C21        -1.4438   51.4655   26.1579 C.2       1 UNK         0.0000 
     22 N22        -0.2529   51.8923   26.4809 N.2       1 UNK         0.0000 
     23 C23        -0.1153   52.1050   27.7779 C.2       1 UNK         0.0000 
     24 C24        -1.2130   51.6971   28.5422 C.2       1 UNK         0.0000 
     25 S25        -2.5396   51.2930   27.4975 S.3       1 UNK         0.0000 
     26 C26         1.1891   52.7517   28.2742 C.3       1 UNK         0.0000 
     27 C27         0.8828   53.7395   29.4419 C.3       1 UNK         0.0000 
     28 C28         2.1748   54.4040   29.9792 C.3       1 UNK         0.0000 
     29 C29         3.1382   53.2955   30.4819 C.3       1 UNK         0.0000 
     30 C30         3.4852   52.3278   29.3308 C.3       1 UNK         0.0000 
     31 C31         2.1691   51.6770   28.8136 C.3       1 UNK         0.0000 
     32 C32         4.1840   53.1384   28.2060 C.3       1 UNK         0.0000 
     33 C33         3.2277   54.2383   27.6915 C.3       1 UNK         0.0000 
     34 C34         2.8595   55.2027   28.8467 C.3       1 UNK         0.0000 
     35 C35         1.9400   53.5610   27.1596 C.3       1 UNK         0.0000 
     36 H36         3.9461   54.5431   23.1351 H         1 UNK         0.0000 
     37 H37         1.8574   54.0928   24.3692 H         1 UNK         0.0000 
     38 H38         0.3000   52.4059   23.5673 H         1 UNK         0.0000 
     39 H39         4.4180   53.3458   21.0481 H         1 UNK         0.0000 
     40 H40         2.7337   52.2257   18.9456 H         1 UNK         0.0000 
     41 H41         4.0146   51.2959   19.6830 H         1 UNK         0.0000 
     42 H42         2.2877   49.9143   18.4430 H         1 UNK         0.0000 
     43 H43         2.5366   49.4033   20.0929 H         1 UNK         0.0000 
     44 H44         0.3489   51.3121   19.1610 H         1 UNK         0.0000 
     45 H45         0.0860   49.5956   19.4585 H         1 UNK         0.0000 
     46 H46         1.3080   48.9441   21.9134 H         1 UNK         0.0000 
     47 H47        -3.5424   50.7876   22.2431 H         1 UNK         0.0000 
     48 H48        -3.3183   49.1712   22.8836 H         1 UNK         0.0000 
     49 H49        -0.9126   51.0777   24.2517 H         1 UNK         0.0000 
     50 H50        -1.3369   51.7017   29.6148 H         1 UNK         0.0000 
     51 H51         0.1798   54.4994   29.1063 H         1 UNK         0.0000 
     52 H52         0.3840   53.2214   30.2630 H         1 UNK         0.0000 
     53 H53         1.9041   55.0888   30.7848 H         1 UNK         0.0000 
     54 H54         2.6762   52.7400   31.3011 H         1 UNK         0.0000 
     55 H55         4.0535   53.7291   30.8804 H         1 UNK         0.0000 
     56 H56         4.1625   51.5541   29.6932 H         1 UNK         0.0000 
     57 H57         1.6867   51.1301   29.6220 H         1 UNK         0.0000 
     58 H58         2.3680   50.9355   28.0434 H         1 UNK         0.0000 
     59 H59         5.1051   53.5867   28.5778 H         1 UNK         0.0000 
     60 H60         4.4809   52.4969   27.3782 H         1 UNK         0.0000 
     61 H61         3.7076   54.7974   26.8877 H         1 UNK         0.0000 
     62 H62         2.2069   55.9996   28.4893 H         1 UNK         0.0000 
     63 H63         3.7561   55.6932   29.2323 H         1 UNK         0.0000 
     64 H64         2.2073   52.8996   26.3340 H         1 UNK         0.0000 
     65 H65         1.2814   54.3171   26.7440 H         1 UNK         0.0000 
@<TRIPOS>BOND
     1    1    6 ar   
     2    1    2 ar   
     3    1   36 1    
     4    2    3 ar   
     5    2   37 1    
     6    3    4 ar   
     7    3   38 1    
     8    4   10 1    
     9    4    5 ar   
    10    5    6 ar   
    11    5    7 1    
    12    6   39 1    
    13    7    8 1    
    14    7   40 1    
    15    7   41 1    
    16    8    9 1    
    17    8   42 1    
    18    8   43 1    
    19    9   10 1    
    20    9   44 1    
    21    9   45 1    
    22   10   16 1    
    23   10   11 1    
    24   11   12 2    
    25   11   13 am   BACKBONE|DICT|INTERRES
    26   13   14 am   BACKBONE|DICT|INTERRES
    27   13   17 1    
    28   14   15 2    
    29   14   16 am   BACKBONE|DICT|INTERRES
    30   16   46 1    
    31   17   18 1    
    32   17   47 1    
    33   17   48 1    
    34   18   19 2    
    35   18   20 am   BACKBONE|DICT|INTERRES
    36   20   21 am   BACKBONE|DICT|INTERRES
    37   20   49 1    
    38   21   25 1    
    39   21   22 2    
    40   22   23 1    
    41   23   24 2    
    42   23   26 1    
    43   24   25 1    
    44   24   50 1    
    45   26   31 1    
    46   26   35 1    
    47   26   27 1    
    48   27   28 1    
    49   27   51 1    
    50   27   52 1    
    51   28   34 1    
    52   28   29 1    
    53   28   53 1    
    54   29   30 1    
    55   29   54 1    
    56   29   55 1    
    57   30   31 1    
    58   30   32 1    
    59   30   56 1    
    60   31   57 1    
    61   31   58 1    
    62   32   33 1    
    63   32   59 1    
    64   32   60 1    
    65   33   34 1    
    66   33   35 1    
    67   33   61 1    
    68   34   62 1    
    69   34   63 1    
    70   35   64 1    
    71   35   65 1    
@<TRIPOS>SUBSTRUCTURE
     1 UNK         1 GROUP             0       ****    0 ROOT    
