@<TRIPOS>MOLECULE
ZINC20720128_2193
61   66    1
SMALL
USER_CHARGES


@<TRIPOS>ATOM
      1 C1          5.9090   58.3892   15.0360 C.3       1 UNK         0.0000 
      2 N2          5.6695   58.1102   16.5349 N.4       1 UNK         0.0000 
      3 C3          7.0016   58.1954   17.3126 C.3       1 UNK         0.0000 
      4 C4          6.7297   57.9608   18.8143 C.3       1 UNK         0.0000 
      5 N5          5.9130   56.7369   19.0673 N.pl3     1 UNK         0.0000 
      6 C6          4.6759   56.5831   18.2518 C.3       1 UNK         0.0000 
      7 C7          4.9533   56.7545   16.7455 C.3       1 UNK         0.0000 
      8 S8          6.6902   55.2778   19.7349 S.o2      1 UNK         0.0000 
      9 O9          6.4948   54.1959   18.7644 O.2       1 UNK         0.0000 
     10 O10         8.0409   55.6408   20.1806 O.2       1 UNK         0.0000 
     11 C11         5.7694   54.8019   21.2115 C.ar      1 UNK         0.0000 
     12 C12         6.3618   54.8974   22.4734 C.ar      1 UNK         0.0000 
     13 C13         5.6606   54.4968   23.6094 C.ar      1 UNK         0.0000 
     14 C14         4.3638   53.9929   23.4959 C.ar      1 UNK         0.0000 
     15 C15         3.7488   53.8724   22.2391 C.ar      1 UNK         0.0000 
     16 C16         4.4773   54.2759   21.1074 C.ar      1 UNK         0.0000 
     17 C17         2.3339   53.3069   22.1049 C.3       1 UNK         0.0000 
     18 H18         1.7286   54.0960   21.6855 H         1 UNK         0.0000 
     19 C19         2.2760   52.0525   21.2556 C.2       1 UNK         0.0000 
     20 C20         1.9054   50.9804   21.9694 C.2       1 UNK         0.0000 
     21 C21         1.6042   51.3408   23.4048 C.3       1 UNK         0.0000 
     22 C22         1.6716   52.8779   23.4260 C.3       1 UNK         0.0000 
     23 H23         0.6303   53.2011   23.3543 H         1 UNK         0.0000 
     24 C24         2.2120   53.5943   24.7041 C.3       1 UNK         0.0000 
     25 H25         1.8715   54.6277   24.6432 H         1 UNK         0.0000 
     26 N26         3.6709   53.6958   24.6812 N.pl3     1 UNK         0.0000 
     27 C27         1.6892   53.0280   26.0355 C.ar      1 UNK         0.0000 
     28 C28         0.5144   52.3162   26.2429 C.ar      1 UNK         0.0000 
     29 N29         0.3999   51.9149   27.5474 N.pl3     1 UNK         0.0000 
     30 H30        -0.3684   51.3486   27.8827 H         1 UNK         0.0000 
     31 C31         1.4682   52.3899   28.2700 C.ar      1 UNK         0.0000 
     32 C32         2.2928   53.1205   27.3546 C.ar      1 UNK         0.0000 
     33 C33         3.4547   53.7298   27.8673 C.ar      1 UNK         0.0000 
     34 C34         3.7768   53.5749   29.2143 C.ar      1 UNK         0.0000 
     35 C35         2.9628   52.8410   30.0692 C.ar      1 UNK         0.0000 
     36 C36         1.7823   52.2476   29.6267 C.ar      1 UNK         0.0000 
     37 H37         6.5652   57.6088   14.6406 H         1 UNK         0.0000 
     38 H38         4.9358   58.3840   14.5398 H         1 UNK         0.0000 
     39 H39         6.3678   59.3785   14.9602 H         1 UNK         0.0000 
     40 H40         7.3731   59.2115   17.1586 H         1 UNK         0.0000 
     41 H41         7.7044   57.4709   16.8927 H         1 UNK         0.0000 
     42 H42         7.6994   57.8201   19.2824 H         1 UNK         0.0000 
     43 H43         6.2736   58.8317   19.2825 H         1 UNK         0.0000 
     44 H44         3.9250   57.2966   18.5826 H         1 UNK         0.0000 
     45 H45         4.2740   55.5851   18.4276 H         1 UNK         0.0000 
     46 H46         4.0104   56.8143   16.1948 H         1 UNK         0.0000 
     47 H47         5.5734   55.9530   16.3313 H         1 UNK         0.0000 
     48 H48         7.3687   55.2754   22.5828 H         1 UNK         0.0000 
     49 H49         6.1287   54.5932   24.5782 H         1 UNK         0.0000 
     50 H50         4.0234   54.1754   20.1325 H         1 UNK         0.0000 
     51 H51         2.5384   52.0576   20.2064 H         1 UNK         0.0000 
     52 H52         1.8136   49.9685   21.5983 H         1 UNK         0.0000 
     53 H53         2.3048   50.8688   24.0811 H         1 UNK         0.0000 
     54 H54         0.6109   50.9812   23.6722 H         1 UNK         0.0000 
     55 H55         4.0965   53.8375   25.5821 H         1 UNK         0.0000 
     56 H56        -0.2569   52.0274   25.5435 H         1 UNK         0.0000 
     57 H57         4.1074   54.3120   27.2352 H         1 UNK         0.0000 
     58 H58         4.6792   54.0308   29.5984 H         1 UNK         0.0000 
     59 H59         3.2504   52.7315   31.1035 H         1 UNK         0.0000 
     60 H60         1.1409   51.6984   30.3014 H         1 UNK         0.0000 
     61 H61         5.0662   58.8478   16.8891 H         1 UNK         0.0000 
@<TRIPOS>BOND
     1    1    2 1    
     2    1   37 1    
     3    1   38 1    
     4    1   39 1    
     5    2    7 1    
     6    2    3 1    
     7    2   61 1    
     8    3    4 1    
     9    3   40 1    
    10    3   41 1    
    11    4    5 1    
    12    4   42 1    
    13    4   43 1    
    14    5    6 1    
    15    5    8 1    
    16    6    7 1    
    17    6   44 1    
    18    6   45 1    
    19    7   46 1    
    20    7   47 1    
    21    8    9 2    
    22    8   10 2    
    23    8   11 1    
    24   11   16 ar   
    25   11   12 ar   
    26   12   13 ar   
    27   12   48 1    
    28   13   14 ar   
    29   13   49 1    
    30   14   26 1    
    31   14   15 ar   
    32   15   16 ar   
    33   15   17 1    
    34   16   50 1    
    35   17   18 1    
    36   17   22 1    
    37   17   19 1    
    38   19   20 2    
    39   19   51 1    
    40   20   21 1    
    41   20   52 1    
    42   21   22 1    
    43   21   53 1    
    44   21   54 1    
    45   22   23 1    
    46   22   24 1    
    47   24   25 1    
    48   24   26 1    
    49   24   27 1    
    50   26   55 1    
    51   27   32 ar   
    52   27   28 ar   
    53   28   29 ar   
    54   28   56 1    
    55   29   30 1    
    56   29   31 ar   
    57   31   36 ar   
    58   31   32 ar   
    59   32   33 ar   
    60   33   34 ar   
    61   33   57 1    
    62   34   35 ar   
    63   34   58 1    
    64   35   36 ar   
    65   35   59 1    
    66   36   60 1    
@<TRIPOS>SUBSTRUCTURE
     1 UNK         1 GROUP             0       ****    0 ROOT    
