@<TRIPOS>MOLECULE
ZINC39835139_991
55   59    1
SMALL
USER_CHARGES


@<TRIPOS>ATOM
      1 C1          1.7167   54.5501   14.7886 C.3       1 UNK         0.0000 
      2 C2          1.5075   53.6399   15.9849 C.ar      1 UNK         0.0000 
      3 C3          2.3494   52.5464   16.1789 C.ar      1 UNK         0.0000 
      4 C4          2.1711   51.7188   17.2839 C.ar      1 UNK         0.0000 
      5 C5          1.1503   51.9658   18.2152 C.ar      1 UNK         0.0000 
      6 C6          0.3215   53.0767   18.0092 C.ar      1 UNK         0.0000 
      7 C7          0.4963   53.9089   16.9062 C.ar      1 UNK         0.0000 
      8 C8          1.0094   51.0509   19.4053 C.2       1 UNK         0.0000 
      9 O9          1.6512   50.0014   19.4710 O.2       1 UNK         0.0000 
     10 C10         0.1754   51.3848   20.5684 C.2       1 UNK         0.0000 
     11 C11        -1.1296   51.6646   20.6757 C.2       1 UNK         0.0000 
     12 C12        -1.5460   51.8142   22.0599 C.2       1 UNK         0.0000 
     13 O13        -2.6718   52.0963   22.4816 O.2       1 UNK         0.0000 
     14 N14        -0.4390   51.5628   22.8094 N.am      1 UNK         0.0000 
     15 C15         0.7470   51.3561   21.9608 C.3       1 UNK         0.0000 
     16 H16         1.1464   50.3661   22.1901 H         1 UNK         0.0000 
     17 C17         1.9167   52.3459   22.1818 C.ar      1 UNK         0.0000 
     18 C18         3.1861   52.0264   21.6807 C.ar      1 UNK         0.0000 
     19 C19         4.2618   52.8901   21.8715 C.ar      1 UNK         0.0000 
     20 C20         4.0869   54.0582   22.6062 C.ar      1 UNK         0.0000 
     21 C21         2.8407   54.3769   23.1349 C.ar      1 UNK         0.0000 
     22 C22         1.7558   53.5357   22.9063 C.ar      1 UNK         0.0000 
     23 C23        -0.3766   51.4738   24.2095 C.2       1 UNK         0.0000 
     24 N24         0.7043   51.1208   24.8620 N.2       1 UNK         0.0000 
     25 N25         0.5484   51.1533   26.2395 N.2       1 UNK         0.0000 
     26 C26        -0.6510   51.5183   26.6162 C.2       1 UNK         0.0000 
     27 S27        -1.7117   51.8475   25.2831 S.3       1 UNK         0.0000 
     28 S28        -1.2127   51.6967   28.2716 S.3       1 UNK         0.0000 
     29 C29         0.3558   51.7926   29.1878 C.3       1 UNK         0.0000 
     30 C30         0.9339   53.2012   29.2135 C.ar      1 UNK         0.0000 
     31 C31         1.8501   53.6037   28.2383 C.ar      1 UNK         0.0000 
     32 C32         2.3824   54.8898   28.2724 C.ar      1 UNK         0.0000 
     33 C33         2.0011   55.7701   29.2818 C.ar      1 UNK         0.0000 
     34 C34         1.1044   55.3694   30.2687 C.ar      1 UNK         0.0000 
     35 C35         0.5717   54.0831   30.2370 C.ar      1 UNK         0.0000 
     36 O36        -2.0329   51.7708   19.7602 O.co2     1 UNK         0.0000 
     37 H37         2.7815   54.6846   14.5936 H         1 UNK         0.0000 
     38 H38         1.2586   54.1199   13.8982 H         1 UNK         0.0000 
     39 H39         1.2995   55.5425   14.9617 H         1 UNK         0.0000 
     40 H40         3.1462   52.3344   15.4802 H         1 UNK         0.0000 
     41 H41         2.8594   50.8965   17.4161 H         1 UNK         0.0000 
     42 H42        -0.4608   53.3186   18.7003 H         1 UNK         0.0000 
     43 H43        -0.1538   54.7615   16.7738 H         1 UNK         0.0000 
     44 H44         3.3432   51.1079   21.1318 H         1 UNK         0.0000 
     45 H45         5.2324   52.6431   21.4663 H         1 UNK         0.0000 
     46 H46         4.9262   54.7186   22.7678 H         1 UNK         0.0000 
     47 H47         2.7096   55.2826   23.7086 H         1 UNK         0.0000 
     48 H48         0.7944   53.8142   23.3102 H         1 UNK         0.0000 
     49 H49         0.1413   51.4703   30.2025 H         1 UNK         0.0000 
     50 H50         1.0828   51.0744   28.8075 H         1 UNK         0.0000 
     51 H51         2.1486   52.9286   27.4512 H         1 UNK         0.0000 
     52 H52         3.0869   55.2043   27.5150 H         1 UNK         0.0000 
     53 H53         2.4100   56.7703   29.3075 H         1 UNK         0.0000 
     54 H54         0.8218   56.0560   31.0549 H         1 UNK         0.0000 
     55 H55        -0.1209   53.7714   31.0059 H         1 UNK         0.0000 
@<TRIPOS>BOND
     1    1    2 1    
     2    1   37 1    
     3    1   38 1    
     4    1   39 1    
     5    2    7 ar   
     6    2    3 ar   
     7    3    4 ar   
     8    3   40 1    
     9    4    5 ar   
    10    4   41 1    
    11    5    6 ar   
    12    5    8 1    
    13    6    7 ar   
    14    6   42 1    
    15    7   43 1    
    16    8    9 2    
    17    8   10 1    
    18   10   15 1    
    19   10   11 2    
    20   11   12 1    
    21   11   36 1    
    22   12   13 2    
    23   12   14 am   BACKBONE|DICT|INTERRES
    24   14   15 1    
    25   14   23 am   BACKBONE|DICT|INTERRES
    26   15   16 1    
    27   15   17 1    
    28   17   22 ar   
    29   17   18 ar   
    30   18   19 ar   
    31   18   44 1    
    32   19   20 ar   
    33   19   45 1    
    34   20   21 ar   
    35   20   46 1    
    36   21   22 ar   
    37   21   47 1    
    38   22   48 1    
    39   23   27 1    
    40   23   24 2    
    41   24   25 1    
    42   25   26 2    
    43   26   27 1    
    44   26   28 1    
    45   28   29 1    
    46   29   30 1    
    47   29   49 1    
    48   29   50 1    
    49   30   35 ar   
    50   30   31 ar   
    51   31   32 ar   
    52   31   51 1    
    53   32   33 ar   
    54   32   52 1    
    55   33   34 ar   
    56   33   53 1    
    57   34   35 ar   
    58   34   54 1    
    59   35   55 1    
@<TRIPOS>SUBSTRUCTURE
     1 UNK         1 GROUP             0       ****    0 ROOT    
