@<TRIPOS>MOLECULE
ZINC35374418_3659
56   58    1
SMALL
USER_CHARGES


@<TRIPOS>ATOM
      1 C1         -1.8526   56.1471   17.7211 C.3       1 UNK         0.0000 
      2 C2         -0.5127   55.7357   17.0942 C.3       1 UNK         0.0000 
      3 C3         -0.6368   54.7500   15.9051 C.3       1 UNK         0.0000 
      4 H4         -1.3061   55.2109   15.1772 H         1 UNK         0.0000 
      5 C5          0.7213   54.5774   15.1918 C.3       1 UNK         0.0000 
      6 C6         -1.2695   53.3866   16.2828 C.3       1 UNK         0.0000 
      7 N7         -0.4642   52.6210   17.2400 N.am      1 UNK         0.0000 
      8 C8         -0.8475   52.2419   18.4731 C.2       1 UNK         0.0000 
      9 O9         -1.9589   52.4970   18.9442 O.2       1 UNK         0.0000 
     10 C10         0.1795   51.4874   19.3337 C.3       1 UNK         0.0000 
     11 H11        -0.2516   51.3068   20.3206 H         1 UNK         0.0000 
     12 C12         0.6927   50.1890   18.6812 C.3       1 UNK         0.0000 
     13 S13         2.2535   49.8171   19.5136 S.3       1 UNK         0.0000 
     14 C14         2.5551   51.4849   20.1615 C.3       1 UNK         0.0000 
     15 N15         1.4363   52.3446   19.5519 N.4       1 UNK         0.0000 
     16 C16         3.8995   52.0815   19.7421 C.3       1 UNK         0.0000 
     17 C17         4.1302   53.5018   20.2982 C.3       1 UNK         0.0000 
     18 N18         3.9639   53.4820   21.7780 N.am      1 UNK         0.0000 
     19 C19         2.7452   52.8571   22.3537 C.3       1 UNK         0.0000 
     20 C20         2.4687   51.4901   21.6937 C.3       1 UNK         0.0000 
     21 C21         4.8658   54.2019   22.5162 C.2       1 UNK         0.0000 
     22 O22         5.7779   54.8340   21.9738 O.2       1 UNK         0.0000 
     23 C23         4.8040   54.2580   24.0384 C.ar      1 UNK         0.0000 
     24 C24         3.6014   54.4964   24.7273 C.ar      1 UNK         0.0000 
     25 C25         3.5559   54.4971   26.1225 C.ar      1 UNK         0.0000 
     26 C26         4.7233   54.3287   26.8587 C.ar      1 UNK         0.0000 
     27 C27         5.9336   54.1407   26.1999 C.ar      1 UNK         0.0000 
     28 C28         5.9796   54.0955   24.8065 C.ar      1 UNK         0.0000 
     29 Cl29        7.5044   53.6968   24.0860 Cl        1 UNK         0.0000 
     30 Cl30        4.6723   54.3505   28.5850 Cl        1 UNK         0.0000 
     31 H31        -1.6975   56.9065   18.4873 H         1 UNK         0.0000 
     32 H32        -2.3510   55.3004   18.1917 H         1 UNK         0.0000 
     33 H33        -2.5258   56.5673   16.9735 H         1 UNK         0.0000 
     34 H34        -0.0037   56.6413   16.7600 H         1 UNK         0.0000 
     35 H35         0.1292   55.3082   17.8646 H         1 UNK         0.0000 
     36 H36         1.4811   54.1671   15.8593 H         1 UNK         0.0000 
     37 H37         0.6401   53.9117   14.3329 H         1 UNK         0.0000 
     38 H38         1.0912   55.5331   14.8197 H         1 UNK         0.0000 
     39 H39        -2.2877   53.5375   16.6459 H         1 UNK         0.0000 
     40 H40        -1.3748   52.7695   15.3880 H         1 UNK         0.0000 
     41 H41         0.4227   52.2952   16.8818 H         1 UNK         0.0000 
     42 H42         0.0054   49.3506   18.8060 H         1 UNK         0.0000 
     43 H43         0.9240   50.2907   17.6191 H         1 UNK         0.0000 
     44 H44         1.7743   52.6654   18.6580 H         1 UNK         0.0000 
     45 H45         4.7076   51.4317   20.0811 H         1 UNK         0.0000 
     46 H46         3.9899   52.0969   18.6535 H         1 UNK         0.0000 
     47 H47         5.1446   53.7649   19.9892 H         1 UNK         0.0000 
     48 H48         3.4249   54.2058   19.8613 H         1 UNK         0.0000 
     49 H49         2.8752   52.5893   23.3990 H         1 UNK         0.0000 
     50 H50         1.8982   53.5270   22.2100 H         1 UNK         0.0000 
     51 H51         1.5059   51.1080   22.0351 H         1 UNK         0.0000 
     52 H52         3.1987   50.7724   22.0790 H         1 UNK         0.0000 
     53 H53         2.6817   54.6874   24.1931 H         1 UNK         0.0000 
     54 H54         2.6184   54.6315   26.6419 H         1 UNK         0.0000 
     55 H55         6.8375   53.9845   26.7722 H         1 UNK         0.0000 
     56 H56         1.2675   53.1833   20.0930 H         1 UNK         0.0000 
@<TRIPOS>BOND
     1    1    2 1    
     2    1   31 1    
     3    1   32 1    
     4    1   33 1    
     5    2    3 1    
     6    2   34 1    
     7    2   35 1    
     8    3    4 1    
     9    3    5 1    
    10    3    6 1    
    11    5   36 1    
    12    5   37 1    
    13    5   38 1    
    14    6    7 1    
    15    6   39 1    
    16    6   40 1    
    17    7    8 am   BACKBONE|DICT|INTERRES
    18    7   41 1    
    19    8    9 2    
    20    8   10 1    
    21   10   11 1    
    22   10   15 1    
    23   10   12 1    
    24   12   13 1    
    25   12   42 1    
    26   12   43 1    
    27   13   14 1    
    28   14   20 1    
    29   14   15 1    
    30   14   16 1    
    31   15   44 1    
    32   15   56 1    
    33   16   17 1    
    34   16   45 1    
    35   16   46 1    
    36   17   18 1    
    37   17   47 1    
    38   17   48 1    
    39   18   19 1    
    40   18   21 am   BACKBONE|DICT|INTERRES
    41   19   20 1    
    42   19   49 1    
    43   19   50 1    
    44   20   51 1    
    45   20   52 1    
    46   21   22 2    
    47   21   23 1    
    48   23   28 ar   
    49   23   24 ar   
    50   24   25 ar   
    51   24   53 1    
    52   25   26 ar   
    53   25   54 1    
    54   26   27 ar   
    55   26   30 1    
    56   27   28 ar   
    57   27   55 1    
    58   28   29 1    
@<TRIPOS>SUBSTRUCTURE
     1 UNK         1 GROUP             0       ****    0 ROOT    
