ZINC54201117_3187
                    3D
 Schrodinger Suite 2024-2.
 51 53  0  0  1  0            999 V2000
    6.0440   54.0412   25.1163 C   0  0  0  0  0  0
    5.8011   55.1720   26.1248 C   0  0  0  0  0  0
    5.7468   54.7157   27.6002 C   0  0  0  0  0  0
    4.4650   54.0157   28.0418 C   0  0  0  0  0  0
    4.3057   53.5955   29.2764 N   0  0  0  0  0  0
    3.0957   52.9609   29.5180 N   0  0  0  0  0  0
    2.3432   52.9079   28.4519 C   0  0  0  0  0  0
    3.0575   53.6937   27.0573 S   0  0  0  0  0  0
    1.0909   52.3139   28.4995 N   0  0  0  0  0  0
    0.2604   52.0429   27.4730 C   0  0  0  0  0  0
    0.5136   52.2526   26.2855 O   0  0  0  0  0  0
   -1.0871   51.4404   27.8952 C   0  0  0  0  0  0
   -2.1109   51.2110   26.7526 C   0  0  2  0  0  0
   -1.9941   52.0017   26.0078 H   0  0  0  0  0  0
   -3.5641   51.2548   27.2257 C   0  0  0  0  0  0
   -4.4838   52.0607   26.5469 C   0  0  0  0  0  0
   -5.8092   52.1155   26.9691 C   0  0  0  0  0  0
   -6.2145   51.3684   28.0732 C   0  0  0  0  0  0
   -5.3088   50.5579   28.7524 C   0  0  0  0  0  0
   -3.9859   50.4967   28.3260 C   0  0  0  0  0  0
   -1.8434   49.9244   26.0816 N   0  0  0  0  0  0
   -1.9943   49.7381   24.3417 S   0  0  0  0  0  0
   -2.0041   48.2988   24.0585 O   0  0  0  0  0  0
   -3.0885   50.6017   23.8802 O   0  0  0  0  0  0
   -0.4693   50.3820   23.6530 C   0  0  0  0  0  0
    0.7040   49.6377   23.7816 C   0  0  0  0  0  0
    1.8792   50.0969   23.1951 C   0  0  0  0  0  0
    1.8831   51.3026   22.4975 C   0  0  0  0  0  0
    0.7198   52.0614   22.3889 C   0  0  0  0  0  0
   -0.4613   51.6014   22.9685 C   0  0  0  0  0  0
    3.4906   51.9145   21.6816 Br  0  0  0  0  0  0
    6.1012   54.4301   24.0974 H   0  0  0  0  0  0
    5.2427   53.3042   25.1375 H   0  0  0  0  0  0
    6.9825   53.5223   25.3204 H   0  0  0  0  0  0
    6.6039   55.9003   26.0128 H   0  0  0  0  0  0
    4.8856   55.7016   25.8629 H   0  0  0  0  0  0
    6.6065   54.0752   27.8071 H   0  0  0  0  0  0
    5.9043   55.5887   28.2324 H   0  0  0  0  0  0
    0.7913   52.0067   29.4134 H   0  0  0  0  0  0
   -0.8942   50.4996   28.4120 H   0  0  0  0  0  0
   -1.5205   52.0970   28.6482 H   0  0  0  0  0  0
   -4.1777   52.6353   25.6847 H   0  0  0  0  0  0
   -6.5215   52.7337   26.4434 H   0  0  0  0  0  0
   -7.2422   51.4079   28.4001 H   0  0  0  0  0  0
   -5.6280   49.9707   29.6015 H   0  0  0  0  0  0
   -3.2948   49.8537   28.8515 H   0  0  0  0  0  0
   -1.6951   49.0949   26.6746 H   0  0  0  0  0  0
    0.7055   48.6998   24.3207 H   0  0  0  0  0  0
    2.7859   49.5166   23.2802 H   0  0  0  0  0  0
    0.7337   52.9964   21.8486 H   0  0  0  0  0  0
   -1.3649   52.1853   22.8746 H   0  0  0  0  0  0
  1  2  1  0  0  0
  1 32  1  0  0  0
  1 33  1  0  0  0
  1 34  1  0  0  0
  2  3  1  0  0  0
  2 35  1  0  0  0
  2 36  1  0  0  0
  3  4  1  0  0  0
  3 37  1  0  0  0
  3 38  1  0  0  0
  4  8  1  0  0  0
  4  5  2  0  0  0
  5  6  1  0  0  0
  6  7  2  0  0  0
  7  8  1  0  0  0
  7  9  1  0  0  0
  9 10  1  0  0  0
  9 39  1  0  0  0
 10 11  2  0  0  0
 10 12  1  0  0  0
 12 13  1  0  0  0
 12 40  1  0  0  0
 12 41  1  0  0  0
 13 14  1  0  0  0
 13 15  1  0  0  0
 13 21  1  0  0  0
 15 20  2  0  0  0
 15 16  1  0  0  0
 16 17  2  0  0  0
 16 42  1  0  0  0
 17 18  1  0  0  0
 17 43  1  0  0  0
 18 19  2  0  0  0
 18 44  1  0  0  0
 19 20  1  0  0  0
 19 45  1  0  0  0
 20 46  1  0  0  0
 21 22  1  0  0  0
 21 47  1  0  0  0
 22 23  2  0  0  0
 22 24  2  0  0  0
 22 25  1  0  0  0
 25 30  2  0  0  0
 25 26  1  0  0  0
 26 27  2  0  0  0
 26 48  1  0  0  0
 27 28  1  0  0  0
 27 49  1  0  0  0
 28 29  2  0  0  0
 28 31  1  0  0  0
 29 30  1  0  0  0
 29 50  1  0  0  0
 30 51  1  0  0  0
M  END
> <i_i_glide_confnum>
34

> <i_i_glide_lignum>
3188

> <i_i_glide_posenum>
136

> <i_i_glide_rotatable_bonds>
10

> <i_m_Source_File_Index>
865

> <b_m_subgroup_collapsed>
0

> <r_i_docking_score>
-4.001

> <r_i_glide_ecoul>
-4.73198

> <r_i_glide_eff_state_penalty>
0

> <r_i_glide_einternal>
6.54842

> <r_i_glide_emodel>
-52.3678

> <r_i_glide_energy>
-44.3829

> <r_i_glide_erotb>
0.552379

> <r_i_glide_esite>
-0.134206

> <r_i_glide_evdw>
-39.6509

> <r_i_glide_gscore>
-4.001

> <r_i_glide_hbond>
-0.158802

> <r_i_glide_ligand_efficiency>
-0.133367

> <r_i_glide_ligand_efficiency_ln>
-0.90907

> <r_i_glide_ligand_efficiency_sa>
-0.414401

> <r_i_glide_lipo>
-1.67942

> <r_i_glide_metal>
0

> <r_i_glide_rewards>
0.111387

> <s_i_glide_gridfile>
wee1_glide-grid

> <s_m_Source_File>
wee1_decoys_glide_SP.sdf

> <s_m_Source_Path>
/Users/zhangxujun/Desktop

> <s_m_entry_id>
1140

> <s_m_entry_name>
wee1_decoys_glide_SP.865

> <s_m_subgroup_title>
wee1_decoys_glide_SP

> <s_m_subgroupid>
wee1_decoys_glide_SP


$$$$
