ZINC22264597_498
                    3D
 Schrodinger Suite 2024-2.
 45 47  0  0  1  0            999 V2000
    1.2728   54.6269   30.3638 C   0  0  0  0  0  0
    2.0255   53.4724   29.9932 O   0  0  0  0  0  0
    2.8203   53.6545   28.8893 C   0  0  0  0  0  0
    4.0643   54.2583   29.0639 C   0  0  0  0  0  0
    4.8935   54.4957   27.9737 C   0  0  0  0  0  0
    4.4858   54.1602   26.6760 C   0  0  0  0  0  0
    3.2378   53.5265   26.5084 C   0  0  0  0  0  0
    2.4215   53.2335   27.6106 C   0  0  0  0  0  0
    0.8613   52.3432   27.4123 S   0  0  0  0  0  0
    1.1347   50.9293   27.6816 O   0  0  0  0  0  0
   -0.1395   53.0680   28.1993 O   0  0  0  0  0  0
    0.2932   52.4970   25.7352 N   0  0  0  0  0  0
    0.7092   51.7188   24.6531 C   0  0  0  0  0  0
    1.0333   52.3670   23.4599 C   0  0  0  0  0  0
    1.3780   51.6226   22.3353 C   0  0  0  0  0  0
    1.4051   50.2339   22.4091 C   0  0  0  0  0  0
    1.0637   49.5842   23.5917 C   0  0  0  0  0  0
    0.7043   50.3239   24.7133 C   0  0  0  0  0  0
    1.9033   49.2172   20.8814 Br  0  0  0  0  0  0
    5.3918   54.4965   25.5085 C   0  0  0  0  0  0
    6.4572   55.0986   25.6779 O   0  0  0  0  0  0
    4.9425   54.1049   24.1594 N   0  0  0  0  0  0
    5.5474   54.4627   22.9048 C   0  0  0  0  0  0
    4.9305   54.1351   21.6826 C   0  0  0  0  0  0
    5.5024   54.5578   20.4769 C   0  0  0  0  0  0
    6.6885   55.2964   20.4906 C   0  0  0  0  0  0
    7.2913   55.5776   21.7161 C   0  0  0  0  0  0
    6.7049   55.1582   22.8573 N   0  3  0  0  0  0
    3.8485   53.4754   21.6541 O   0  5  0  0  0  0
    0.5592   54.3589   31.1444 H   0  0  0  0  0  0
    1.9096   55.4217   30.7537 H   0  0  0  0  0  0
    0.7102   55.0440   29.5273 H   0  0  0  0  0  0
    4.3898   54.5497   30.0514 H   0  0  0  0  0  0
    5.8486   54.9715   28.1522 H   0  0  0  0  0  0
    2.9057   53.2223   25.5282 H   0  0  0  0  0  0
    1.0182   53.4452   23.3913 H   0  0  0  0  0  0
    1.6288   52.1207   21.4104 H   0  0  0  0  0  0
    1.0799   48.5061   23.6436 H   0  0  0  0  0  0
    0.4152   49.8053   25.6158 H   0  0  0  0  0  0
    4.0885   53.5707   24.0935 H   0  0  0  0  0  0
    5.0254   54.3146   19.5380 H   0  0  0  0  0  0
    7.1423   55.6187   19.5646 H   0  0  0  0  0  0
    8.2312   56.0984   21.8361 H   0  0  0  0  0  0
    7.1614   55.3668   23.7368 H   0  0  0  0  0  0
   -0.1479   53.3773   25.5220 H   0  0  0  0  0  0
  1  2  1  0  0  0
  1 30  1  0  0  0
  1 31  1  0  0  0
  1 32  1  0  0  0
  2  3  1  0  0  0
  3  8  2  0  0  0
  3  4  1  0  0  0
  4  5  2  0  0  0
  4 33  1  0  0  0
  5  6  1  0  0  0
  5 34  1  0  0  0
  6  7  2  0  0  0
  6 20  1  0  0  0
  7  8  1  0  0  0
  7 35  1  0  0  0
  8  9  1  0  0  0
  9 10  2  0  0  0
  9 11  2  0  0  0
  9 12  1  0  0  0
 12 13  1  0  0  0
 12 45  1  0  0  0
 13 18  2  0  0  0
 13 14  1  0  0  0
 14 15  2  0  0  0
 14 36  1  0  0  0
 15 16  1  0  0  0
 15 37  1  0  0  0
 16 17  2  0  0  0
 16 19  1  0  0  0
 17 18  1  0  0  0
 17 38  1  0  0  0
 18 39  1  0  0  0
 20 21  2  0  0  0
 20 22  1  0  0  0
 22 40  1  0  0  0
 22 23  1  0  0  0
 23 24  2  0  0  0
 23 28  1  0  0  0
 24 29  1  0  0  0
 24 25  1  0  0  0
 25 26  2  0  0  0
 25 41  1  0  0  0
 26 27  1  0  0  0
 26 42  1  0  0  0
 27 28  2  0  0  0
 27 43  1  0  0  0
 28 44  1  0  0  0
M  CHG  2  28   1  29  -1
M  END
> <i_i_glide_confnum>
7

> <i_i_glide_lignum>
499

> <i_i_glide_posenum>
144

> <i_i_glide_rotatable_bonds>
7

> <i_m_Source_File_Index>
2358

> <b_m_subgroup_collapsed>
0

> <r_i_docking_score>
-4.90127

> <r_i_glide_ecoul>
-3.8205

> <r_i_glide_eff_state_penalty>
0

> <r_i_glide_einternal>
10.9424

> <r_i_glide_emodel>
-57.9955

> <r_i_glide_energy>
-48.3605

> <r_i_glide_erotb>
0.531416

> <r_i_glide_esite>
-0.0065188

> <r_i_glide_evdw>
-44.54

> <r_i_glide_gscore>
-4.90127

> <r_i_glide_hbond>
-0.190978

> <r_i_glide_ligand_efficiency>
-0.169009

> <r_i_glide_ligand_efficiency_ln>
-1.12227

> <r_i_glide_ligand_efficiency_sa>
-0.519251

> <r_i_glide_lipo>
-2.61055

> <r_i_glide_metal>
0

> <r_i_glide_rewards>
0.175436

> <s_i_glide_gridfile>
wee1_glide-grid

> <s_m_Source_File>
wee1_decoys_glide_SP.sdf

> <s_m_Source_Path>
/Users/zhangxujun/Desktop

> <s_m_entry_id>
2633

> <s_m_entry_name>
wee1_decoys_glide_SP.2358

> <s_m_subgroup_title>
wee1_decoys_glide_SP

> <s_m_subgroupid>
wee1_decoys_glide_SP


$$$$
