@<TRIPOS>MOLECULE
ZINC00823396_308
61   63    1
SMALL
USER_CHARGES


@<TRIPOS>ATOM
      1 C1          0.4556   54.2778   30.9093 C.3       1 UNK         0.0000 
      2 C2          1.1019   52.9549   30.4750 C.3       1 UNK         0.0000 
      3 O3          1.3148   52.9237   29.0659 O.3       1 UNK         0.0000 
      4 C4          2.4141   53.4708   28.4843 C.2       1 UNK         0.0000 
      5 O5          3.3392   53.9715   29.1232 O.2       1 UNK         0.0000 
      6 C6          2.3726   53.3969   27.0031 C.2       1 UNK         0.0000 
      7 C7          3.4548   53.8335   26.1401 C.ar      1 UNK         0.0000 
      8 C8          4.7370   54.3387   26.4708 C.ar      1 UNK         0.0000 
      9 C9          5.6631   54.6520   25.4791 C.ar      1 UNK         0.0000 
     10 C10         5.3591   54.4967   24.1345 C.ar      1 UNK         0.0000 
     11 C11         4.0988   54.0414   23.7471 C.ar      1 UNK         0.0000 
     12 C12         3.1594   53.7102   24.7461 C.ar      1 UNK         0.0000 
     13 S13         1.5497   53.0995   24.4847 S.3       1 UNK         0.0000 
     14 C14         1.3194   52.8968   26.2131 C.2       1 UNK         0.0000 
     15 N15         0.1720   52.2800   26.7112 N.am      1 UNK         0.0000 
     16 C16        -0.9653   51.9262   26.0785 C.2       1 UNK         0.0000 
     17 O17        -1.2351   52.1462   24.8990 O.2       1 UNK         0.0000 
     18 C18        -1.9971   51.2233   26.9546 C.3       1 UNK         0.0000 
     19 O19         3.7589   53.8614   22.4255 O.3       1 UNK         0.0000 
     20 C20         3.9374   52.5237   21.9594 C.3       1 UNK         0.0000 
     21 C21         3.7793   52.4189   20.4283 C.3       1 UNK         0.0000 
     22 H22         2.7879   52.7832   20.1514 H         1 UNK         0.0000 
     23 C23         4.8564   53.2433   19.6932 C.3       1 UNK         0.0000 
     24 C24         5.9790   53.6631   17.3869 C.3       1 UNK         0.0000 
     25 C25         6.0771   52.9691   16.0089 C.3       1 UNK         0.0000 
     26 C26         6.9976   53.7304   15.0314 C.3       1 UNK         0.0000 
     27 C27         6.5692   55.2024   14.8724 C.3       1 UNK         0.0000 
     28 C28         6.4451   55.9156   16.2335 C.3       1 UNK         0.0000 
     29 C29         5.5392   55.1397   17.2127 C.3       1 UNK         0.0000 
     30 O30         3.8775   51.0388   20.1120 O.3       1 UNK         0.0000 
     31 Br31        6.6920   54.8979   22.8299 Br        1 UNK         0.0000 
     32 H32         0.2454   54.2732   31.9789 H         1 UNK         0.0000 
     33 H33        -0.4900   54.4437   30.3940 H         1 UNK         0.0000 
     34 H34         1.1026   55.1311   30.7045 H         1 UNK         0.0000 
     35 H35         2.0301   52.7771   31.0219 H         1 UNK         0.0000 
     36 H36         0.4318   52.1329   30.7311 H         1 UNK         0.0000 
     37 H37         5.0333   54.4613   27.5013 H         1 UNK         0.0000 
     38 H38         6.6430   55.0120   25.7611 H         1 UNK         0.0000 
     39 H39         0.1943   52.1382   27.7118 H         1 UNK         0.0000 
     40 H40        -2.5400   51.9474   27.5609 H         1 UNK         0.0000 
     41 H41        -2.7199   50.6832   26.3401 H         1 UNK         0.0000 
     42 H42        -1.5240   50.4977   27.6193 H         1 UNK         0.0000 
     43 H43         4.9366   52.1674   22.2280 H         1 UNK         0.0000 
     44 H44         3.2177   51.8698   22.4589 H         1 UNK         0.0000 
     45 H45         4.6329   54.3101   19.7605 H         1 UNK         0.0000 
     46 H46         5.8555   53.0634   20.0791 H         1 UNK         0.0000 
     47 H47         6.9566   53.5934   17.8653 H         1 UNK         0.0000 
     48 H48         6.3791   51.9261   16.1189 H         1 UNK         0.0000 
     49 H49         5.0837   52.9148   15.5580 H         1 UNK         0.0000 
     50 H50         8.0268   53.6877   15.3938 H         1 UNK         0.0000 
     51 H51         7.0000   53.2354   14.0589 H         1 UNK         0.0000 
     52 H52         7.2810   55.7334   14.2384 H         1 UNK         0.0000 
     53 H53         5.6094   55.2478   14.3526 H         1 UNK         0.0000 
     54 H54         7.4374   56.0317   16.6746 H         1 UNK         0.0000 
     55 H55         6.0598   56.9269   16.0905 H         1 UNK         0.0000 
     56 H56         4.5204   55.1653   16.8214 H         1 UNK         0.0000 
     57 H57         5.4726   55.6536   18.1711 H         1 UNK         0.0000 
     58 H58         4.2577   50.8963   19.2267 H         1 UNK         0.0000 
     59 N59         4.9137   52.8972   18.1909 N.4       1 UNK         0.0000 
     60 H60         5.1044   51.8960   18.0796 H         1 UNK         0.0000 
     61 H61         4.0164   53.0524   17.7601 H         1 UNK         0.0000 
@<TRIPOS>BOND
     1    1    2 1    
     2    1   32 1    
     3    1   33 1    
     4    1   34 1    
     5    2    3 1    
     6    2   35 1    
     7    2   36 1    
     8    3    4 1    
     9    4    5 2    
    10    4    6 1    
    11    6   14 2    
    12    6    7 1    
    13    7   12 ar   
    14    7    8 ar   
    15    8    9 ar   
    16    8   37 1    
    17    9   10 ar   
    18    9   38 1    
    19   10   11 ar   
    20   10   31 1    
    21   11   12 ar   
    22   11   19 1    
    23   12   13 1    
    24   13   14 1    
    25   14   15 am   BACKBONE|DICT|INTERRES
    26   15   16 am   BACKBONE|DICT|INTERRES
    27   15   39 1    
    28   16   17 2    
    29   16   18 1    
    30   18   40 1    
    31   18   41 1    
    32   18   42 1    
    33   19   20 1    
    34   20   21 1    
    35   20   43 1    
    36   20   44 1    
    37   21   22 1    
    38   21   23 1    
    39   21   30 1    
    40   23   45 1    
    41   23   46 1    
    42   23   59 1    
    43   24   29 1    
    44   24   25 1    
    45   24   47 1    
    46   24   59 1    
    47   25   26 1    
    48   25   48 1    
    49   25   49 1    
    50   26   27 1    
    51   26   50 1    
    52   26   51 1    
    53   27   28 1    
    54   27   52 1    
    55   27   53 1    
    56   28   29 1    
    57   28   54 1    
    58   28   55 1    
    59   29   56 1    
    60   29   57 1    
    61   30   58 1    
    62   59   60 1    
    63   59   61 1    
@<TRIPOS>SUBSTRUCTURE
     1 UNK         1 GROUP             0       ****    0 ROOT    
