@<TRIPOS>MOLECULE
ZINC64774488_2026
56   58    1
SMALL
USER_CHARGES


@<TRIPOS>ATOM
      1 C1         -5.2956   44.2319   27.5478 C.3       1 UNK         0.0000 
      2 C2         -4.8256   45.1513   26.4432 C.ar      1 UNK         0.0000 
      3 C3         -5.1838   44.8798   25.1220 C.ar      1 UNK         0.0000 
      4 C4         -4.7427   45.7074   24.0893 C.ar      1 UNK         0.0000 
      5 C5         -3.9692   46.8295   24.3918 C.ar      1 UNK         0.0000 
      6 C6         -3.6343   47.1350   25.7225 C.ar      1 UNK         0.0000 
      7 C7         -4.0374   46.2683   26.7403 C.ar      1 UNK         0.0000 
      8 N8         -2.8967   48.2801   26.0817 N.am      1 UNK         0.0000 
      9 C9         -2.9663   49.4817   25.4657 C.2       1 UNK         0.0000 
     10 O10        -3.7838   49.7438   24.5786 O.2       1 UNK         0.0000 
     11 C11        -1.9844   50.5600   25.9401 C.3       1 UNK         0.0000 
     12 S12        -1.7772   51.9220   24.7314 S.3       1 UNK         0.0000 
     13 C13        -0.1468   52.5658   24.8915 C.ar      1 UNK         0.0000 
     14 N14         0.5053   52.3612   26.0537 N.ar      1 UNK         0.0000 
     15 C15         1.7448   52.8964   26.1382 C.ar      1 UNK         0.0000 
     16 O16         2.2970   52.6635   27.2563 O.co2     1 UNK         0.0000 
     17 C17         2.3328   53.6122   25.0654 C.ar      1 UNK         0.0000 
     18 N18         1.5544   53.8262   23.9646 N.ar      1 UNK         0.0000 
     19 N19         0.3262   53.2973   23.8570 N.ar      1 UNK         0.0000 
     20 C20         3.7839   54.0803   24.9872 C.ar      1 UNK         0.0000 
     21 C21         4.4655   54.3706   26.1842 C.ar      1 UNK         0.0000 
     22 C22         5.8266   54.6510   26.2277 C.ar      1 UNK         0.0000 
     23 C23         6.5305   54.7657   25.0385 C.ar      1 UNK         0.0000 
     24 C24         5.9005   54.5688   23.8135 C.ar      1 UNK         0.0000 
     25 C25         4.5387   54.1776   23.7757 C.ar      1 UNK         0.0000 
     26 N26         3.9148   53.9551   22.5277 N.am      1 UNK         0.0000 
     27 C27         4.1990   52.9772   21.6447 C.2       1 UNK         0.0000 
     28 O28         5.1056   52.1590   21.7711 O.2       1 UNK         0.0000 
     29 C29         3.3096   52.9111   20.4105 C.3       1 UNK         0.0000 
     30 C30         6.7451   54.8505   22.5741 C.3       1 UNK         0.0000 
     31 C31         6.5385   54.7674   27.5641 C.3       1 UNK         0.0000 
     32 C32        -5.1267   45.4118   22.6503 C.3       1 UNK         0.0000 
     33 H33        -6.3755   44.3050   27.6781 H         1 UNK         0.0000 
     34 H34        -4.7995   44.4831   28.4817 H         1 UNK         0.0000 
     35 H35        -5.0517   43.1944   27.3123 H         1 UNK         0.0000 
     36 H36        -5.8006   44.0205   24.8989 H         1 UNK         0.0000 
     37 H37        -3.6428   47.4706   23.5860 H         1 UNK         0.0000 
     38 H38        -3.7652   46.4817   27.7648 H         1 UNK         0.0000 
     39 H39        -2.3565   48.2251   26.9552 H         1 UNK         0.0000 
     40 H40        -2.3416   50.9734   26.8837 H         1 UNK         0.0000 
     41 H41        -1.0147   50.1010   26.1388 H         1 UNK         0.0000 
     42 H42         3.9570   54.3460   27.1330 H         1 UNK         0.0000 
     43 H43         7.5796   55.0181   25.0562 H         1 UNK         0.0000 
     44 H44         3.0777   54.4911   22.3515 H         1 UNK         0.0000 
     45 H45         2.2559   52.9047   20.6899 H         1 UNK         0.0000 
     46 H46         3.4997   53.7695   19.7654 H         1 UNK         0.0000 
     47 H47         3.5171   52.0059   19.8381 H         1 UNK         0.0000 
     48 H48         6.1773   54.9130   21.6473 H         1 UNK         0.0000 
     49 H49         7.2535   55.8097   22.6866 H         1 UNK         0.0000 
     50 H50         7.5251   54.0959   22.4823 H         1 UNK         0.0000 
     51 H51         7.6193   54.6826   27.4547 H         1 UNK         0.0000 
     52 H52         6.3024   55.6965   28.0808 H         1 UNK         0.0000 
     53 H53         6.2298   53.9526   28.2186 H         1 UNK         0.0000 
     54 H54        -5.3002   46.3382   22.1007 H         1 UNK         0.0000 
     55 H55        -4.3371   44.8550   22.1444 H         1 UNK         0.0000 
     56 H56        -6.0546   44.8396   22.5965 H         1 UNK         0.0000 
@<TRIPOS>BOND
     1    1    2 1    
     2    1   33 1    
     3    1   34 1    
     4    1   35 1    
     5    2    7 ar   
     6    2    3 ar   
     7    3    4 ar   
     8    3   36 1    
     9    4    5 ar   
    10    4   32 1    
    11    5    6 ar   
    12    5   37 1    
    13    6    7 ar   
    14    6    8 1    
    15    7   38 1    
    16    8    9 am   BACKBONE|DICT|INTERRES
    17    8   39 1    
    18    9   10 2    
    19    9   11 1    
    20   11   12 1    
    21   11   40 1    
    22   11   41 1    
    23   12   13 1    
    24   13   14 ar   
    25   13   19 ar   
    26   14   15 ar   
    27   15   16 1    
    28   15   17 ar   
    29   17   18 ar   
    30   17   20 1    
    31   18   19 ar   
    32   20   25 ar   
    33   20   21 ar   
    34   21   22 ar   
    35   21   42 1    
    36   22   23 ar   
    37   22   31 1    
    38   23   24 ar   
    39   23   43 1    
    40   24   25 ar   
    41   24   30 1    
    42   25   26 1    
    43   26   27 am   BACKBONE|DICT|INTERRES
    44   26   44 1    
    45   27   28 2    
    46   27   29 1    
    47   29   45 1    
    48   29   46 1    
    49   29   47 1    
    50   30   48 1    
    51   30   49 1    
    52   30   50 1    
    53   31   51 1    
    54   31   52 1    
    55   31   53 1    
    56   32   54 1    
    57   32   55 1    
    58   32   56 1    
@<TRIPOS>SUBSTRUCTURE
     1 UNK         1 GROUP             0       ****    0 ROOT    
