ZINC67254966_2585
                    3D
 Schrodinger Suite 2024-2.
 48 50  0  0  1  0            999 V2000
    1.9308   46.0403   16.3951 C   0  0  0  0  0  0
    1.9044   47.1306   17.3616 N   0  0  0  0  0  0
    1.1099   47.1873   18.4484 C   0  0  0  0  0  0
    0.3103   46.2926   18.7318 O   0  0  0  0  0  0
    1.2702   48.4009   19.3419 C   0  0  0  0  0  0
    2.1402   49.4416   18.9957 C   0  0  0  0  0  0
    2.3465   50.5155   19.8416 C   0  0  0  0  0  0
    1.7082   50.5705   21.0885 C   0  0  0  0  0  0
    0.7901   49.5716   21.4195 C   0  0  0  0  0  0
    0.5665   48.5008   20.5505 C   0  0  0  0  0  0
    1.9482   51.5838   22.0429 N   0  0  0  0  0  0
    2.9988   52.4323   22.0803 C   0  0  0  0  0  0
    3.9148   52.4424   21.2598 O   0  0  0  0  0  0
    2.9529   53.2982   23.1031 N   0  0  0  0  0  0
    3.7760   54.5114   23.1669 C   0  0  0  0  0  0
    5.1636   54.3592   23.8706 C   0  0  0  0  0  0
    6.2448   53.6631   23.0552 C   0  0  0  0  0  0
    6.2697   55.1518   23.1521 C   0  0  0  0  0  0
    5.1892   54.2830   25.4113 C   0  0  0  0  0  0
    6.4101   54.3450   26.0969 C   0  0  0  0  0  0
    6.4551   54.2778   27.4856 C   0  0  0  0  0  0
    5.2752   54.1557   28.2117 C   0  0  0  0  0  0
    4.0391   54.0966   27.5596 C   0  0  0  0  0  0
    4.0083   54.1508   26.1608 C   0  0  0  0  0  0
    2.7447   53.9816   28.3604 C   0  0  0  0  0  0
    1.8673   53.1898   27.7387 F   0  0  0  0  0  0
    2.9589   53.4939   29.5848 F   0  0  0  0  0  0
    2.2079   55.1959   28.4843 F   0  0  0  0  0  0
    2.8599   46.0776   15.8275 H   0  0  0  0  0  0
    1.0972   46.1310   15.6967 H   0  0  0  0  0  0
    1.8731   45.0666   16.8816 H   0  0  0  0  0  0
    2.5547   47.8914   17.1898 H   0  0  0  0  0  0
    2.7042   49.4388   18.0814 H   0  0  0  0  0  0
    3.0285   51.2707   19.4926 H   0  0  0  0  0  0
    0.2690   49.5991   22.3672 H   0  0  0  0  0  0
   -0.1291   47.7318   20.8443 H   0  0  0  0  0  0
    1.3102   51.6015   22.8222 H   0  0  0  0  0  0
    2.2788   53.1557   23.8390 H   0  0  0  0  0  0
    3.9095   54.8766   22.1440 H   0  0  0  0  0  0
    3.2016   55.2958   23.6550 H   0  0  0  0  0  0
    7.0377   53.1094   23.5530 H   0  0  0  0  0  0
    5.9539   53.2062   22.1154 H   0  0  0  0  0  0
    6.0670   55.6949   22.2282 H   0  0  0  0  0  0
    7.0544   55.6447   23.7259 H   0  0  0  0  0  0
    7.3394   54.4298   25.5548 H   0  0  0  0  0  0
    7.3994   54.3306   28.0044 H   0  0  0  0  0  0
    5.3353   54.1193   29.2863 H   0  0  0  0  0  0
    3.0501   54.0994   25.6678 H   0  0  0  0  0  0
  1  2  1  0  0  0
  1 29  1  0  0  0
  1 30  1  0  0  0
  1 31  1  0  0  0
  2  3  1  0  0  0
  2 32  1  0  0  0
  3  4  2  0  0  0
  3  5  1  0  0  0
  5 10  2  0  0  0
  5  6  1  0  0  0
  6  7  2  0  0  0
  6 33  1  0  0  0
  7  8  1  0  0  0
  7 34  1  0  0  0
  8  9  2  0  0  0
  8 11  1  0  0  0
  9 10  1  0  0  0
  9 35  1  0  0  0
 10 36  1  0  0  0
 11 12  1  0  0  0
 11 37  1  0  0  0
 12 13  2  0  0  0
 12 14  1  0  0  0
 14 15  1  0  0  0
 14 38  1  0  0  0
 15 16  1  0  0  0
 15 39  1  0  0  0
 15 40  1  0  0  0
 16 18  1  0  0  0
 16 17  1  0  0  0
 16 19  1  0  0  0
 17 18  1  0  0  0
 17 41  1  0  0  0
 17 42  1  0  0  0
 18 43  1  0  0  0
 18 44  1  0  0  0
 19 24  2  0  0  0
 19 20  1  0  0  0
 20 21  2  0  0  0
 20 45  1  0  0  0
 21 22  1  0  0  0
 21 46  1  0  0  0
 22 23  2  0  0  0
 22 47  1  0  0  0
 23 24  1  0  0  0
 23 25  1  0  0  0
 24 48  1  0  0  0
 25 26  1  0  0  0
 25 27  1  0  0  0
 25 28  1  0  0  0
M  END
> <i_i_glide_confnum>
29

> <i_i_glide_lignum>
2586

> <i_i_glide_posenum>
105

> <i_i_glide_rotatable_bonds>
9

> <i_m_Source_File_Index>
1130

> <b_m_subgroup_collapsed>
0

> <r_i_docking_score>
-5.98295

> <r_i_glide_ecoul>
-2.61077

> <r_i_glide_eff_state_penalty>
0

> <r_i_glide_einternal>
6.11194

> <r_i_glide_emodel>
-52.3926

> <r_i_glide_energy>
-39.7172

> <r_i_glide_erotb>
0.891732

> <r_i_glide_esite>
-0.104938

> <r_i_glide_evdw>
-37.1064

> <r_i_glide_gscore>
-5.98295

> <r_i_glide_hbond>
-0.117023

> <r_i_glide_ligand_efficiency>
-0.213677

> <r_i_glide_ligand_efficiency_ln>
-1.38104

> <r_i_glide_ligand_efficiency_sa>
-0.648849

> <r_i_glide_lipo>
-2.76512

> <r_i_glide_metal>
0

> <r_i_glide_rewards>
-1.64067

> <s_i_glide_gridfile>
wee1_glide-grid

> <s_m_Source_File>
wee1_decoys_glide_SP.sdf

> <s_m_Source_Path>
/Users/zhangxujun/Desktop

> <s_m_entry_id>
1405

> <s_m_entry_name>
wee1_decoys_glide_SP.1130

> <s_m_subgroup_title>
wee1_decoys_glide_SP

> <s_m_subgroupid>
wee1_decoys_glide_SP


$$$$
