@<TRIPOS>MOLECULE
ZINC27771844_2260
47   49    1
SMALL
USER_CHARGES


@<TRIPOS>ATOM
      1 C1          6.4929   54.5701   22.9555 C.3       1 UNK         0.0000 
      2 C2          6.0057   54.8361   24.3835 C.2       1 UNK         0.0000 
      3 O3          6.7873   55.4932   25.0794 O.2       1 UNK         0.0000 
      4 N4          4.8202   54.3246   24.8793 N.am      1 UNK         0.0000 
      5 C5          4.6984   54.1915   26.3113 C.ar      1 UNK         0.0000 
      6 C6          3.5038   54.5288   26.9612 C.ar      1 UNK         0.0000 
      7 C7          3.3698   54.4270   28.3407 C.ar      1 UNK         0.0000 
      8 C8          4.4457   53.9832   29.0974 C.ar      1 UNK         0.0000 
      9 C9          5.6456   53.6372   28.4814 C.ar      1 UNK         0.0000 
     10 C10         5.7661   53.7235   27.1006 C.ar      1 UNK         0.0000 
     11 C11         3.7435   53.8431   24.0574 C.2       1 UNK         0.0000 
     12 N12         2.7035   53.1747   24.5262 N.2       1 UNK         0.0000 
     13 C13         1.8243   52.8049   23.6091 C.2       1 UNK         0.0000 
     14 C14         2.1287   53.1949   22.3162 C.2       1 UNK         0.0000 
     15 S15         3.6007   54.0966   22.3264 S.3       1 UNK         0.0000 
     16 C16         0.6594   52.0338   24.0114 C.2       1 UNK         0.0000 
     17 C17         0.1736   51.8413   25.2564 C.2       1 UNK         0.0000 
     18 C18        -1.0092   51.0497   25.5032 C.2       1 UNK         0.0000 
     19 O19        -1.4880   50.2800   24.6639 O.2       1 UNK         0.0000 
     20 N20        -1.5483   51.2961   26.7132 N.am      1 UNK         0.0000 
     21 N21        -2.6001   50.4970   27.1582 N.am      1 UNK         0.0000 
     22 C22        -3.8090   51.0822   27.3118 C.2       1 UNK         0.0000 
     23 O23        -4.0990   52.2031   26.8800 O.2       1 UNK         0.0000 
     24 C24        -4.8526   50.2560   28.0253 C.ar      1 UNK         0.0000 
     25 C25        -6.2035   50.3773   27.6725 C.ar      1 UNK         0.0000 
     26 C26        -7.1751   49.6358   28.3429 C.ar      1 UNK         0.0000 
     27 C27        -6.8019   48.7759   29.3739 C.ar      1 UNK         0.0000 
     28 C28        -5.4652   48.6548   29.7423 C.ar      1 UNK         0.0000 
     29 C29        -4.4951   49.3931   29.0724 C.ar      1 UNK         0.0000 
     30 Cl30       -8.0038   47.8573   30.2046 Cl        1 UNK         0.0000 
     31 H31         6.2626   53.5536   22.6376 H         1 UNK         0.0000 
     32 H32         6.0813   55.2951   22.2543 H         1 UNK         0.0000 
     33 H33         7.5732   54.6665   22.9028 H         1 UNK         0.0000 
     34 H34         2.6758   54.8965   26.3906 H         1 UNK         0.0000 
     35 H35         2.4402   54.7001   28.8185 H         1 UNK         0.0000 
     36 H36         4.3469   53.9093   30.1693 H         1 UNK         0.0000 
     37 H37         6.4896   53.3006   29.0608 H         1 UNK         0.0000 
     38 H38         6.7021   53.4274   26.6490 H         1 UNK         0.0000 
     39 H39         1.5827   53.0313   21.3979 H         1 UNK         0.0000 
     40 H40         0.1429   51.5911   23.1690 H         1 UNK         0.0000 
     41 H41         0.6551   52.2924   26.1133 H         1 UNK         0.0000 
     42 H42        -1.0328   51.7221   27.4686 H         1 UNK         0.0000 
     43 H43        -2.2656   49.7534   27.7664 H         1 UNK         0.0000 
     44 H44        -6.5074   51.0434   26.8765 H         1 UNK         0.0000 
     45 H45        -8.2146   49.7289   28.0642 H         1 UNK         0.0000 
     46 H46        -5.1740   47.9961   30.5473 H         1 UNK         0.0000 
     47 H47        -3.4652   49.2968   29.3888 H         1 UNK         0.0000 
@<TRIPOS>BOND
     1    1    2 1    
     2    1   31 1    
     3    1   32 1    
     4    1   33 1    
     5    2    3 2    
     6    2    4 am   BACKBONE|DICT|INTERRES
     7    4    5 1    
     8    4   11 am   BACKBONE|DICT|INTERRES
     9    5   10 ar   
    10    5    6 ar   
    11    6    7 ar   
    12    6   34 1    
    13    7    8 ar   
    14    7   35 1    
    15    8    9 ar   
    16    8   36 1    
    17    9   10 ar   
    18    9   37 1    
    19   10   38 1    
    20   11   15 1    
    21   11   12 2    
    22   12   13 1    
    23   13   14 2    
    24   13   16 1    
    25   14   15 1    
    26   14   39 1    
    27   16   17 2    
    28   16   40 1    
    29   17   18 1    
    30   17   41 1    
    31   18   19 2    
    32   18   20 am   BACKBONE|DICT|INTERRES
    33   20   21 1    
    34   20   42 1    
    35   21   22 am   BACKBONE|DICT|INTERRES
    36   21   43 1    
    37   22   23 2    
    38   22   24 1    
    39   24   29 ar   
    40   24   25 ar   
    41   25   26 ar   
    42   25   44 1    
    43   26   27 ar   
    44   26   45 1    
    45   27   28 ar   
    46   27   30 1    
    47   28   29 ar   
    48   28   46 1    
    49   29   47 1    
@<TRIPOS>SUBSTRUCTURE
     1 UNK         1 GROUP             0       ****    0 ROOT    
