ZINC08444961_3505
                    3D
 Schrodinger Suite 2024-2.
 40 42  0  0  1  0            999 V2000
    6.7135   54.1608   27.6826 C   0  0  0  0  0  0
    5.3823   54.0438   26.9790 C   0  0  0  0  0  0
    5.2662   54.2431   25.6087 C   0  0  0  0  0  0
    4.0039   54.0365   25.0369 C   0  0  0  0  0  0
    2.9229   53.6970   25.7883 N   0  0  0  0  0  0
    3.1185   53.5364   27.1326 C   0  0  0  0  0  0
    4.3234   53.6960   27.7524 N   0  0  0  0  0  0
    1.9437   53.0837   27.9682 C   0  0  0  0  0  0
    0.8309   52.4960   27.3371 C   0  0  0  0  0  0
   -0.2717   52.0449   28.0566 C   0  0  0  0  0  0
   -0.2865   52.1476   29.4423 C   0  0  0  0  0  0
    0.7856   52.7397   30.1027 C   0  0  0  0  0  0
    1.8922   53.2091   29.3798 C   0  0  0  0  0  0
    2.9157   53.7970   30.0811 O   0  0  0  0  0  0
    0.7051   52.8963   32.0025 Br  0  0  0  0  0  0
   -1.7654   51.2971   27.1465 Br  0  0  0  0  0  0
    3.8024   54.0979   23.6530 N   0  0  0  0  0  0
    4.8362   54.3853   22.7510 N   0  0  0  0  0  0
    4.6018   54.3844   21.5066 C   0  0  0  0  0  0
    5.6010   54.7999   20.4957 C   0  0  0  0  0  0
    5.2530   54.6532   19.1458 C   0  0  0  0  0  0
    6.1363   55.0092   18.1273 C   0  0  0  0  0  0
    7.3905   55.5244   18.4394 C   0  0  0  0  0  0
    7.7594   55.6898   19.7717 C   0  0  0  0  0  0
    6.8793   55.3370   20.7953 C   0  0  0  0  0  0
    7.3184   55.5454   22.0808 O   0  0  0  0  0  0
    7.5053   54.4902   27.0091 H   0  0  0  0  0  0
    6.6257   54.8933   28.4812 H   0  0  0  0  0  0
    7.0095   53.2043   28.1136 H   0  0  0  0  0  0
    6.1224   54.4975   25.0036 H   0  0  0  0  0  0
    0.8095   52.3768   26.2652 H   0  0  0  0  0  0
   -1.1314   51.7800   30.0085 H   0  0  0  0  0  0
    3.6548   53.9855   29.4926 H   0  0  0  0  0  0
    2.8946   53.9127   23.2508 H   0  0  0  0  0  0
    3.6318   54.0908   21.1121 H   0  0  0  0  0  0
    4.2878   54.2496   18.8626 H   0  0  0  0  0  0
    5.8489   54.8790   17.0928 H   0  0  0  0  0  0
    8.0762   55.7936   17.6516 H   0  0  0  0  0  0
    8.7379   56.0916   20.0013 H   0  0  0  0  0  0
    8.2629   55.6982   22.1758 H   0  0  0  0  0  0
  1  2  1  0  0  0
  1 27  1  0  0  0
  1 28  1  0  0  0
  1 29  1  0  0  0
  2  7  2  0  0  0
  2  3  1  0  0  0
  3  4  2  0  0  0
  3 30  1  0  0  0
  4  5  1  0  0  0
  4 17  1  0  0  0
  5  6  2  0  0  0
  6  7  1  0  0  0
  6  8  1  0  0  0
  8 13  2  0  0  0
  8  9  1  0  0  0
  9 10  2  0  0  0
  9 31  1  0  0  0
 10 11  1  0  0  0
 10 16  1  0  0  0
 11 12  2  0  0  0
 11 32  1  0  0  0
 12 13  1  0  0  0
 12 15  1  0  0  0
 13 14  1  0  0  0
 14 33  1  0  0  0
 17 18  1  0  0  0
 17 34  1  0  0  0
 18 19  2  0  0  0
 19 20  1  0  0  0
 19 35  1  0  0  0
 20 25  2  0  0  0
 20 21  1  0  0  0
 21 22  2  0  0  0
 21 36  1  0  0  0
 22 23  1  0  0  0
 22 37  1  0  0  0
 23 24  2  0  0  0
 23 38  1  0  0  0
 24 25  1  0  0  0
 24 39  1  0  0  0
 25 26  1  0  0  0
 26 40  1  0  0  0
M  END
> <i_i_glide_confnum>
18

> <i_i_glide_lignum>
3506

> <i_i_glide_posenum>
94

> <i_i_glide_rotatable_bonds>
6

> <i_m_Source_File_Index>
2024

> <b_m_subgroup_collapsed>
0

> <r_i_docking_score>
-5.72419

> <r_i_glide_ecoul>
-5.66026

> <r_i_glide_eff_state_penalty>
0

> <r_i_glide_einternal>
3.66625

> <r_i_glide_emodel>
-62.5861

> <r_i_glide_energy>
-48.1632

> <r_i_glide_erotb>
0.354521

> <r_i_glide_esite>
0

> <r_i_glide_evdw>
-42.503

> <r_i_glide_gscore>
-5.72419

> <r_i_glide_hbond>
-0.469552

> <r_i_glide_ligand_efficiency>
-0.220161

> <r_i_glide_ligand_efficiency_ln>
-1.34431

> <r_i_glide_ligand_efficiency_sa>
-0.652227

> <r_i_glide_lipo>
-2.11738

> <r_i_glide_metal>
0

> <r_i_glide_rewards>
-0.5176

> <s_i_glide_gridfile>
wee1_glide-grid

> <s_m_Source_File>
wee1_decoys_glide_SP.sdf

> <s_m_Source_Path>
/Users/zhangxujun/Desktop

> <s_m_entry_id>
2299

> <s_m_entry_name>
wee1_decoys_glide_SP.2024

> <s_m_subgroup_title>
wee1_decoys_glide_SP

> <s_m_subgroupid>
wee1_decoys_glide_SP


$$$$
