@<TRIPOS>MOLECULE
ZINC62626023_3651
53   56    1
SMALL
USER_CHARGES


@<TRIPOS>ATOM
      1 C1          2.8959   54.3579   27.3604 C.ar      1 UNK         0.0000 
      2 C2          3.9785   54.6160   26.5322 C.ar      1 UNK         0.0000 
      3 C3          5.2237   54.0958   26.8551 C.ar      1 UNK         0.0000 
      4 C4          5.3872   53.2968   27.9841 C.ar      1 UNK         0.0000 
      5 C5          4.2896   53.0093   28.7952 C.ar      1 UNK         0.0000 
      6 C6          3.0275   53.5416   28.4901 C.ar      1 UNK         0.0000 
      7 C7          1.7863   53.3079   29.3791 C.3       1 UNK         0.0000 
      8 C8          1.9677   52.4329   30.6477 C.3       1 UNK         0.0000 
      9 C9          0.8037   52.7934   31.5848 C.3       1 UNK         0.0000 
     10 C10         0.3517   54.1953   31.1553 C.3       1 UNK         0.0000 
     11 C11         1.3121   54.6295   30.0429 C.3       1 UNK         0.0000 
     12 C12         0.6469   52.6956   28.4845 C.2       1 UNK         0.0000 
     13 O13        -0.2656   53.4197   28.0828 O.2       1 UNK         0.0000 
     14 N14         0.7105   51.3830   28.1773 N.am      1 UNK         0.0000 
     15 N15        -0.1990   50.7969   27.2684 N.pl3     1 UNK         0.0000 
     16 C16         0.1783   50.6857   25.9260 C.ar      1 UNK         0.0000 
     17 C17         0.0206   49.4553   25.2888 C.ar      1 UNK         0.0000 
     18 C18         0.4264   49.2976   23.9671 C.ar      1 UNK         0.0000 
     19 C19         0.9911   50.3741   23.2826 C.ar      1 UNK         0.0000 
     20 C20         1.1203   51.6169   23.9019 C.ar      1 UNK         0.0000 
     21 C21         0.7069   51.7718   25.2195 C.ar      1 UNK         0.0000 
     22 S22         1.5521   50.1538   21.6027 S.o2      1 UNK         0.0000 
     23 O23         2.1635   51.4116   21.1593 O.2       1 UNK         0.0000 
     24 O24         2.3045   48.8969   21.5765 O.2       1 UNK         0.0000 
     25 N25         0.0898   49.8925   20.6681 N.pl3     1 UNK         0.0000 
     26 C26        -0.7383   51.0382   20.2599 C.3       1 UNK         0.0000 
     27 C27        -2.2368   50.8302   20.2835 C.3       1 UNK         0.0000 
     28 C28        -1.5840   51.6710   21.3459 C.3       1 UNK         0.0000 
     29 Br29        6.7028   54.4965   25.7339 Br        1 UNK         0.0000 
     30 H30         1.9346   54.7874   27.1291 H         1 UNK         0.0000 
     31 H31         3.8584   55.2365   25.6568 H         1 UNK         0.0000 
     32 H32         6.3612   52.8965   28.2229 H         1 UNK         0.0000 
     33 H33         4.4446   52.3765   29.6546 H         1 UNK         0.0000 
     34 H34         2.0201   51.3671   30.4404 H         1 UNK         0.0000 
     35 H35         2.8941   52.6883   31.1627 H         1 UNK         0.0000 
     36 H36        -0.0182   52.0848   31.4669 H         1 UNK         0.0000 
     37 H37         1.1041   52.7614   32.6326 H         1 UNK         0.0000 
     38 H38        -0.6313   54.1319   30.7072 H         1 UNK         0.0000 
     39 H39         0.3059   54.8968   31.9872 H         1 UNK         0.0000 
     40 H40         2.1595   55.1588   30.4817 H         1 UNK         0.0000 
     41 H41         0.8542   55.3352   29.3472 H         1 UNK         0.0000 
     42 H42         1.4895   50.7909   28.4237 H         1 UNK         0.0000 
     43 H43        -0.5894   49.9464   27.6803 H         1 UNK         0.0000 
     44 H44        -0.3902   48.6110   25.8268 H         1 UNK         0.0000 
     45 H45         0.3255   48.3358   23.4877 H         1 UNK         0.0000 
     46 H46         1.5457   52.4586   23.3742 H         1 UNK         0.0000 
     47 H47         0.8142   52.7363   25.6908 H         1 UNK         0.0000 
     48 H48         0.0452   49.0375   20.1094 H         1 UNK         0.0000 
     49 H49        -0.3007   51.6839   19.4956 H         1 UNK         0.0000 
     50 H50        -2.8316   51.3108   19.5070 H         1 UNK         0.0000 
     51 H51        -2.6260   49.8461   20.5496 H         1 UNK         0.0000 
     52 H52        -1.5285   51.2798   22.3625 H         1 UNK         0.0000 
     53 H53        -1.7023   52.7524   21.3331 H         1 UNK         0.0000 
@<TRIPOS>BOND
     1    1    6 ar   
     2    1    2 ar   
     3    1   30 1    
     4    2    3 ar   
     5    2   31 1    
     6    3    4 ar   
     7    3   29 1    
     8    4    5 ar   
     9    4   32 1    
    10    5    6 ar   
    11    5   33 1    
    12    6    7 1    
    13    7   11 1    
    14    7    8 1    
    15    7   12 1    
    16    8    9 1    
    17    8   34 1    
    18    8   35 1    
    19    9   10 1    
    20    9   36 1    
    21    9   37 1    
    22   10   11 1    
    23   10   38 1    
    24   10   39 1    
    25   11   40 1    
    26   11   41 1    
    27   12   13 2    
    28   12   14 am   BACKBONE|DICT|INTERRES
    29   14   15 1    
    30   14   42 1    
    31   15   16 1    
    32   15   43 1    
    33   16   21 ar   
    34   16   17 ar   
    35   17   18 ar   
    36   17   44 1    
    37   18   19 ar   
    38   18   45 1    
    39   19   20 ar   
    40   19   22 1    
    41   20   21 ar   
    42   20   46 1    
    43   21   47 1    
    44   22   23 2    
    45   22   24 2    
    46   22   25 1    
    47   25   26 1    
    48   25   48 1    
    49   26   28 1    
    50   26   27 1    
    51   26   49 1    
    52   27   28 1    
    53   27   50 1    
    54   27   51 1    
    55   28   52 1    
    56   28   53 1    
@<TRIPOS>SUBSTRUCTURE
     1 UNK         1 GROUP             0       ****    0 ROOT    
