@<TRIPOS>MOLECULE
ZINC14248819_2091
52   55    1
SMALL
USER_CHARGES


@<TRIPOS>ATOM
      1 C1          2.4086   54.2309   27.8464 C.3       1 UNK         0.0000 
      2 C2          3.7398   54.2246   27.1103 C.2       1 UNK         0.0000 
      3 C3          4.9497   54.3837   27.7729 C.2       1 UNK         0.0000 
      4 S4          6.3224   54.4961   26.7012 S.3       1 UNK         0.0000 
      5 C5          5.2860   54.3127   25.3208 C.ar      1 UNK         0.0000 
      6 C6          3.9184   54.0983   25.6780 C.ar      1 UNK         0.0000 
      7 C7          3.0456   53.8869   24.5659 C.ar      1 UNK         0.0000 
      8 N8          3.5105   54.0239   23.2908 N.ar      1 UNK         0.0000 
      9 C9          4.8280   54.2714   23.1096 C.ar      1 UNK         0.0000 
     10 N10         5.7667   54.3824   24.0796 N.ar      1 UNK         0.0000 
     11 C11         5.2723   54.4366   21.6561 C.3       1 UNK         0.0000 
     12 S12         6.7042   55.5565   21.4183 S.3       1 UNK         0.0000 
     13 C13         7.3385   55.2961   19.7873 C.ar      1 UNK         0.0000 
     14 C14         8.6400   55.7083   19.5053 C.ar      1 UNK         0.0000 
     15 C15         9.1877   55.4641   18.2494 C.ar      1 UNK         0.0000 
     16 C16         8.4314   54.8091   17.2790 C.ar      1 UNK         0.0000 
     17 C17         7.1256   54.4043   17.5535 C.ar      1 UNK         0.0000 
     18 C18         6.5756   54.6515   18.8082 C.ar      1 UNK         0.0000 
     19 Cl19        9.1185   54.4933   15.7287 Cl        1 UNK         0.0000 
     20 N20         1.6947   53.5537   24.6981 N.pl3     1 UNK         0.0000 
     21 C21         0.7221   53.7272   23.5912 C.3       1 UNK         0.0000 
     22 C22         0.4102   52.4059   22.8595 C.3       1 UNK         0.0000 
     23 N23        -0.1641   51.4603   23.8265 N.pl3     1 UNK         0.0000 
     24 C24         0.8218   51.1672   24.8794 C.3       1 UNK         0.0000 
     25 C25         1.2649   52.4633   25.6116 C.3       1 UNK         0.0000 
     26 S26        -1.8651   51.6650   24.2884 S.o2      1 UNK         0.0000 
     27 O27        -1.9326   52.4964   25.4941 O.2       1 UNK         0.0000 
     28 O28        -2.6207   52.0211   23.0843 O.2       1 UNK         0.0000 
     29 N29        -2.3361   50.0499   24.7451 N.pl3     1 UNK         0.0000 
     30 C30         5.1773   54.4991   29.2547 C.3       1 UNK         0.0000 
     31 H31         2.4545   54.8368   28.7515 H         1 UNK         0.0000 
     32 H32         1.5900   54.6517   27.2664 H         1 UNK         0.0000 
     33 H33         2.1118   53.2348   28.1754 H         1 UNK         0.0000 
     34 H34         5.5017   53.4497   21.2538 H         1 UNK         0.0000 
     35 H35         4.4479   54.8478   21.0701 H         1 UNK         0.0000 
     36 H36         9.2384   56.1947   20.2623 H         1 UNK         0.0000 
     37 H37        10.2030   55.7672   18.0384 H         1 UNK         0.0000 
     38 H38         6.5443   53.8976   16.7956 H         1 UNK         0.0000 
     39 H39         5.5645   54.3283   19.0040 H         1 UNK         0.0000 
     40 H40         1.0655   54.4835   22.8826 H         1 UNK         0.0000 
     41 H41        -0.1831   54.1021   24.0712 H         1 UNK         0.0000 
     42 H42        -0.2844   52.5030   22.0262 H         1 UNK         0.0000 
     43 H43         1.3225   51.9877   22.4330 H         1 UNK         0.0000 
     44 H44         0.4200   50.3986   25.5415 H         1 UNK         0.0000 
     45 H45         1.6880   50.7147   24.3957 H         1 UNK         0.0000 
     46 H46         0.4204   52.8951   26.1490 H         1 UNK         0.0000 
     47 H47         2.0517   52.1913   26.3094 H         1 UNK         0.0000 
     48 H48        -2.3619   49.8905   25.7583 H         1 UNK         0.0000 
     49 H49        -3.1848   49.7272   24.2760 H         1 UNK         0.0000 
     50 H50         4.7685   55.4237   29.6578 H         1 UNK         0.0000 
     51 H51         4.7041   53.6749   29.7889 H         1 UNK         0.0000 
     52 H52         6.2405   54.4970   29.4917 H         1 UNK         0.0000 
@<TRIPOS>BOND
     1    1    2 1    
     2    1   31 1    
     3    1   32 1    
     4    1   33 1    
     5    2    6 1    
     6    2    3 2    
     7    3    4 1    
     8    3   30 1    
     9    4    5 1    
    10    5   10 ar   
    11    5    6 ar   
    12    6    7 ar   
    13    7    8 ar   
    14    7   20 1    
    15    8    9 ar   
    16    9   10 ar   
    17    9   11 1    
    18   11   12 1    
    19   11   34 1    
    20   11   35 1    
    21   12   13 1    
    22   13   18 ar   
    23   13   14 ar   
    24   14   15 ar   
    25   14   36 1    
    26   15   16 ar   
    27   15   37 1    
    28   16   17 ar   
    29   16   19 1    
    30   17   18 ar   
    31   17   38 1    
    32   18   39 1    
    33   20   25 1    
    34   20   21 1    
    35   21   22 1    
    36   21   40 1    
    37   21   41 1    
    38   22   23 1    
    39   22   42 1    
    40   22   43 1    
    41   23   24 1    
    42   23   26 1    
    43   24   25 1    
    44   24   44 1    
    45   24   45 1    
    46   25   46 1    
    47   25   47 1    
    48   26   27 2    
    49   26   28 2    
    50   26   29 1    
    51   29   48 1    
    52   29   49 1    
    53   30   50 1    
    54   30   51 1    
    55   30   52 1    
@<TRIPOS>SUBSTRUCTURE
     1 UNK         1 GROUP             0       ****    0 ROOT    
