ZINC35239606_2915
                    3D
 Schrodinger Suite 2024-2.
 74 77  0  0  1  0            999 V2000
   14.6524   61.4675   24.4647 C   0  0  0  0  0  0
   14.3260   60.6994   23.1757 C   0  0  0  0  0  0
   14.8537   61.4129   21.9123 C   0  0  0  0  0  0
   14.5762   60.6837   20.5811 C   0  0  0  0  0  0
   13.0829   60.5633   20.2300 C   0  0  0  0  0  0
   12.8243   59.7453   18.9464 C   0  0  0  0  0  0
   11.3318   59.6737   18.6045 C   0  0  0  0  0  0
   10.7028   60.7233   18.4814 O   0  0  0  0  0  0
   10.8044   58.4386   18.4968 N   0  0  0  0  0  0
    9.4706   58.0633   18.2580 C   0  0  0  0  0  0
    8.4674   58.9028   17.7438 C   0  0  0  0  0  0
    7.1709   58.4183   17.5678 C   0  0  0  0  0  0
    6.8667   57.0937   17.8885 C   0  0  0  0  0  0
    7.8558   56.2475   18.4063 C   0  0  0  0  0  0
    9.1491   56.7430   18.5758 C   0  0  0  0  0  0
    7.5577   54.7936   18.7949 C   0  0  1  0  0  0
    8.3408   54.4965   19.4953 H   0  0  0  0  0  0
    6.2076   54.5850   19.5177 C   0  0  0  0  0  0
    5.2052   53.8842   18.9184 C   0  0  0  0  0  0
    5.4395   53.2969   17.6996 N   0  3  0  0  0  0
    6.6216   53.2549   17.0805 C   0  0  0  0  0  0
    7.6791   53.8704   17.6369 N   0  0  0  0  0  0
    9.0716   53.4770   17.3309 C   0  0  0  0  0  0
    9.2308   53.0624   15.8537 C   0  0  0  0  0  0
    8.2836   51.9500   15.3871 C   0  0  0  0  0  0
    6.5680   52.4975   15.5265 S   0  0  0  0  0  0
    3.7800   53.6699   19.4147 C   0  0  0  0  0  0
    6.1425   55.1119   20.8816 C   0  0  0  0  0  0
    6.7017   56.1619   21.2089 O   0  0  0  0  0  0
    5.5099   54.3019   21.7595 N   0  0  0  0  0  0
    5.3827   54.4499   23.1505 C   0  0  0  0  0  0
    6.4475   54.8978   23.9456 C   0  0  0  0  0  0
    6.2905   55.0122   25.3244 C   0  0  0  0  0  0
    5.0805   54.6686   25.9199 C   0  0  0  0  0  0
    4.0211   54.2129   25.1370 C   0  0  0  0  0  0
    4.1570   54.0968   23.7419 C   0  0  0  0  0  0
    3.1438   53.6543   22.9069 O   0  0  0  0  0  0
    1.8616   53.3653   23.4510 C   0  0  0  0  0  0
   14.2621   60.9456   25.3393 H   0  0  0  0  0  0
   14.2138   62.4661   24.4555 H   0  0  0  0  0  0
   15.7299   61.5752   24.5993 H   0  0  0  0  0  0
   14.7497   59.6978   23.2458 H   0  0  0  0  0  0
   13.2457   60.5721   23.1187 H   0  0  0  0  0  0
   14.4309   62.4179   21.8610 H   0  0  0  0  0  0
   15.9316   61.5523   22.0097 H   0  0  0  0  0  0
   15.0777   61.2282   19.7799 H   0  0  0  0  0  0
   15.0400   59.6984   20.5883 H   0  0  0  0  0  0
   12.5458   60.0967   21.0550 H   0  0  0  0  0  0
   12.6721   61.5695   20.1265 H   0  0  0  0  0  0
   13.3344   60.2063   18.1000 H   0  0  0  0  0  0
   13.2425   58.7434   19.0533 H   0  0  0  0  0  0
   11.4195   57.6654   18.7082 H   0  0  0  0  0  0
    8.6632   59.9283   17.4711 H   0  0  0  0  0  0
    6.4016   59.0768   17.1836 H   0  0  0  0  0  0
    5.8590   56.7317   17.7444 H   0  0  0  0  0  0
    9.9046   56.0923   18.9845 H   0  0  0  0  0  0
    9.7497   54.2978   17.5603 H   0  0  0  0  0  0
    9.3301   52.6506   17.9928 H   0  0  0  0  0  0
    9.1005   53.9387   15.2155 H   0  0  0  0  0  0
   10.2601   52.7389   15.6918 H   0  0  0  0  0  0
    8.4659   51.6661   14.3508 H   0  0  0  0  0  0
    8.3903   51.0580   16.0058 H   0  0  0  0  0  0
    3.6535   52.6612   19.8134 H   0  0  0  0  0  0
    3.5042   54.3878   20.1871 H   0  0  0  0  0  0
    3.0568   53.8103   18.6081 H   0  0  0  0  0  0
    4.9321   53.5763   21.3612 H   0  0  0  0  0  0
    7.3990   55.1560   23.5003 H   0  0  0  0  0  0
    7.1041   55.3698   25.9350 H   0  0  0  0  0  0
    4.9627   54.7562   26.9899 H   0  0  0  0  0  0
    3.0993   53.9508   25.6338 H   0  0  0  0  0  0
    1.1902   53.0720   22.6435 H   0  0  0  0  0  0
    1.9051   52.5397   24.1625 H   0  0  0  0  0  0
    1.4261   54.2391   23.9373 H   0  0  0  0  0  0
    4.7079   52.7363   17.2853 H   0  0  0  0  0  0
  1  2  1  0  0  0
  1 39  1  0  0  0
  1 40  1  0  0  0
  1 41  1  0  0  0
  2  3  1  0  0  0
  2 42  1  0  0  0
  2 43  1  0  0  0
  3  4  1  0  0  0
  3 44  1  0  0  0
  3 45  1  0  0  0
  4  5  1  0  0  0
  4 46  1  0  0  0
  4 47  1  0  0  0
  5  6  1  0  0  0
  5 48  1  0  0  0
  5 49  1  0  0  0
  6  7  1  0  0  0
  6 50  1  0  0  0
  6 51  1  0  0  0
  7  8  2  0  0  0
  7  9  1  0  0  0
  9 10  1  0  0  0
  9 52  1  0  0  0
 10 15  2  0  0  0
 10 11  1  0  0  0
 11 12  2  0  0  0
 11 53  1  0  0  0
 12 13  1  0  0  0
 12 54  1  0  0  0
 13 14  2  0  0  0
 13 55  1  0  0  0
 14 15  1  0  0  0
 14 16  1  0  0  0
 15 56  1  0  0  0
 16 17  1  0  0  0
 16 22  1  0  0  0
 16 18  1  0  0  0
 18 19  2  0  0  0
 18 28  1  0  0  0
 19 20  1  0  0  0
 19 27  1  0  0  0
 20 21  2  0  0  0
 20 74  1  0  0  0
 21 26  1  0  0  0
 21 22  1  0  0  0
 22 23  1  0  0  0
 23 24  1  0  0  0
 23 57  1  0  0  0
 23 58  1  0  0  0
 24 25  1  0  0  0
 24 59  1  0  0  0
 24 60  1  0  0  0
 25 26  1  0  0  0
 25 61  1  0  0  0
 25 62  1  0  0  0
 27 63  1  0  0  0
 27 64  1  0  0  0
 27 65  1  0  0  0
 28 29  2  0  0  0
 28 30  1  0  0  0
 30 31  1  0  0  0
 30 66  1  0  0  0
 31 36  2  0  0  0
 31 32  1  0  0  0
 32 33  2  0  0  0
 32 67  1  0  0  0
 33 34  1  0  0  0
 33 68  1  0  0  0
 34 35  2  0  0  0
 34 69  1  0  0  0
 35 36  1  0  0  0
 35 70  1  0  0  0
 36 37  1  0  0  0
 37 38  1  0  0  0
 38 71  1  0  0  0
 38 72  1  0  0  0
 38 73  1  0  0  0
M  CHG  1  20   1
M  END
> <i_i_glide_confnum>
328

> <i_i_glide_lignum>
2916

> <i_i_glide_posenum>
300

> <i_i_glide_rotatable_bonds>
12

> <i_m_Source_File_Index>
4696

> <b_m_subgroup_collapsed>
0

> <r_i_docking_score>
-5.37984

> <r_i_glide_ecoul>
-8.52834

> <r_i_glide_eff_state_penalty>
0

> <r_i_glide_einternal>
6.43951

> <r_i_glide_emodel>
-64.4222

> <r_i_glide_energy>
-48.4448

> <r_i_glide_erotb>
0.755391

> <r_i_glide_esite>
-0.180686

> <r_i_glide_evdw>
-39.9164

> <r_i_glide_gscore>
-5.37984

> <r_i_glide_hbond>
-0.112457

> <r_i_glide_ligand_efficiency>
-0.145401

> <r_i_glide_ligand_efficiency_ln>
-1.16676

> <r_i_glide_ligand_efficiency_sa>
-0.484509

> <r_i_glide_lipo>
-2.16639

> <r_i_glide_metal>
0

> <r_i_glide_rewards>
-0.40063

> <s_i_glide_gridfile>
wee1_glide-grid

> <s_m_Source_File>
wee1_decoys_glide_SP.sdf

> <s_m_Source_Path>
/Users/zhangxujun/Desktop

> <s_m_entry_id>
4971

> <s_m_entry_name>
wee1_decoys_glide_SP.4696

> <s_m_subgroup_title>
wee1_decoys_glide_SP

> <s_m_subgroupid>
wee1_decoys_glide_SP


$$$$
