@<TRIPOS>MOLECULE
ZINC09113433_2109
53   55    1
SMALL
USER_CHARGES


@<TRIPOS>ATOM
      1 C1          2.4859   55.2964   28.9087 C.3       1 UNK         0.0000 
      2 C2          3.2538   54.0071   28.5491 C.3       1 UNK         0.0000 
      3 C3          4.3749   54.2753   27.5100 C.3       1 UNK         0.0000 
      4 C4          3.8988   53.4170   29.8132 C.3       1 UNK         0.0000 
      5 O5          2.3052   53.0097   28.1442 O.3       1 UNK         0.0000 
      6 C6          1.5957   53.0164   26.9723 C.2       1 UNK         0.0000 
      7 O7          1.9052   53.6962   25.9922 O.2       1 UNK         0.0000 
      8 N8          0.4775   52.1683   27.0417 N.am      1 UNK         0.0000 
      9 C9          0.0862   51.4984   28.2959 C.3       1 UNK         0.0000 
     10 C10        -1.4255   51.2991   28.3030 C.2       1 UNK         0.0000 
     11 C11        -2.2687   51.5178   27.2694 C.2       1 UNK         0.0000 
     12 C12        -1.6993   52.0219   25.9333 C.3       1 UNK         0.0000 
     13 H13        -1.8324   53.1035   25.9541 H         1 UNK         0.0000 
     14 C14        -0.1768   51.7563   25.7926 C.3       1 UNK         0.0000 
     15 C15        -2.5307   51.4581   24.7478 C.3       1 UNK         0.0000 
     16 H16        -2.2231   52.0529   23.8831 H         1 UNK         0.0000 
     17 C17        -4.0609   51.7412   24.9212 C.3       1 UNK         0.0000 
     18 C18        -4.5506   51.3661   26.3304 C.2       1 UNK         0.0000 
     19 C19        -3.7144   51.2921   27.3946 C.2       1 UNK         0.0000 
     20 C20        -4.2819   51.0303   28.6841 C.1       1 UNK         0.0000 
     21 N21        -4.8035   50.8796   29.7061 N.1       1 UNK         0.0000 
     22 N22        -5.9167   51.2149   26.4490 N.pl3     1 UNK         0.0000 
     23 C23        -4.8331   51.0382   23.8764 C.1       1 UNK         0.0000 
     24 N24        -5.4412   50.4897   23.0598 N.1       1 UNK         0.0000 
     25 C25        -4.3051   53.1890   24.7733 C.1       1 UNK         0.0000 
     26 N26        -4.4960   54.3246   24.6601 N.1       1 UNK         0.0000 
     27 C27        -2.1841   50.0000   24.3605 C.ar      1 UNK         0.0000 
     28 C28        -2.4083   48.9292   25.2444 C.ar      1 UNK         0.0000 
     29 C29        -2.1020   47.6205   24.8719 C.ar      1 UNK         0.0000 
     30 C30        -1.5472   47.3652   23.6198 C.ar      1 UNK         0.0000 
     31 C31        -1.3103   48.4147   22.7345 C.ar      1 UNK         0.0000 
     32 C32        -1.6296   49.7211   23.0975 C.ar      1 UNK         0.0000 
     33 F33        -1.3965   50.7139   22.2045 F         1 UNK         0.0000 
     34 Br34       -2.4492   46.1756   26.0608 Br        1 UNK         0.0000 
     35 H35         3.1508   56.0745   29.2821 H         1 UNK         0.0000 
     36 H36         1.7360   55.1070   29.6768 H         1 UNK         0.0000 
     37 H37         1.9608   55.7093   28.0491 H         1 UNK         0.0000 
     38 H38         4.7925   53.3410   27.1268 H         1 UNK         0.0000 
     39 H39         4.0158   54.8437   26.6535 H         1 UNK         0.0000 
     40 H40         5.1930   54.8459   27.9498 H         1 UNK         0.0000 
     41 H41         4.4725   52.5167   29.5896 H         1 UNK         0.0000 
     42 H42         4.5708   54.1356   30.2766 H         1 UNK         0.0000 
     43 H43         3.1475   53.1396   30.5539 H         1 UNK         0.0000 
     44 H44         0.5877   50.5370   28.3777 H         1 UNK         0.0000 
     45 H45         0.3597   52.0799   29.1775 H         1 UNK         0.0000 
     46 H46        -1.8396   50.9097   29.2224 H         1 UNK         0.0000 
     47 H47         0.2159   52.2834   24.9208 H         1 UNK         0.0000 
     48 H48         0.0441   50.6985   25.6290 H         1 UNK         0.0000 
     49 H49        -6.5346   51.2857   25.6520 H         1 UNK         0.0000 
     50 H50        -6.3365   50.9861   27.3392 H         1 UNK         0.0000 
     51 H51        -2.8148   49.0854   26.2337 H         1 UNK         0.0000 
     52 H52        -1.2977   46.3565   23.3290 H         1 UNK         0.0000 
     53 H53        -0.8848   48.2174   21.7615 H         1 UNK         0.0000 
@<TRIPOS>BOND
     1    1    2 1    
     2    1   35 1    
     3    1   36 1    
     4    1   37 1    
     5    2    3 1    
     6    2    4 1    
     7    2    5 1    
     8    3   38 1    
     9    3   39 1    
    10    3   40 1    
    11    4   41 1    
    12    4   42 1    
    13    4   43 1    
    14    5    6 1    
    15    6    7 2    
    16    6    8 am   BACKBONE|DICT|INTERRES
    17    8   14 1    
    18    8    9 1    
    19    9   10 1    
    20    9   44 1    
    21    9   45 1    
    22   10   11 2    
    23   10   46 1    
    24   11   19 1    
    25   11   12 1    
    26   12   13 1    
    27   12   14 1    
    28   12   15 1    
    29   14   47 1    
    30   14   48 1    
    31   15   16 1    
    32   15   17 1    
    33   15   27 1    
    34   17   18 1    
    35   17   23 1    
    36   17   25 1    
    37   18   19 2    
    38   18   22 1    
    39   19   20 1    
    40   20   21 3    
    41   22   49 1    
    42   22   50 1    
    43   23   24 3    
    44   25   26 3    
    45   27   32 ar   
    46   27   28 ar   
    47   28   29 ar   
    48   28   51 1    
    49   29   30 ar   
    50   29   34 1    
    51   30   31 ar   
    52   30   52 1    
    53   31   32 ar   
    54   31   53 1    
    55   32   33 1    
@<TRIPOS>SUBSTRUCTURE
     1 UNK         1 GROUP             0       ****    0 ROOT    
