@<TRIPOS>MOLECULE
ZINC48844186_4740
42   43    1
SMALL
USER_CHARGES


@<TRIPOS>ATOM
      1 C1          2.0870   54.2899   24.6302 C.3       1 UNK         0.0000 
      2 N2          2.3302   53.6967   25.9651 N.am      1 UNK         0.0000 
      3 C3          3.5772   54.0161   26.5897 C.ar      1 UNK         0.0000 
      4 C4          4.7269   53.9234   25.7841 C.ar      1 UNK         0.0000 
      5 C5          6.0034   54.0967   26.3090 C.ar      1 UNK         0.0000 
      6 C6          6.1614   54.3584   27.6619 C.ar      1 UNK         0.0000 
      7 C7          5.0408   54.4967   28.4740 C.ar      1 UNK         0.0000 
      8 C8          3.7370   54.3818   27.9583 C.ar      1 UNK         0.0000 
      9 C9          2.5941   54.6985   28.8798 C.2       1 UNK         0.0000 
     10 O10         1.5995   55.2967   28.4109 O.co2     1 UNK         0.0000 
     11 O11         2.7256   54.3774   30.0817 O.co2     1 UNK         0.0000 
     12 C12         1.5044   52.7213   26.4703 C.2       1 UNK         0.0000 
     13 O13         1.7396   52.0967   27.5078 O.2       1 UNK         0.0000 
     14 N14         0.4075   52.4310   25.7371 N.am      1 UNK         0.0000 
     15 C15        -0.4806   51.2694   25.9016 C.3       1 UNK         0.0000 
     16 H16        -0.8421   51.3184   26.9331 H         1 UNK         0.0000 
     17 C17        -1.6993   51.3626   24.9506 C.3       1 UNK         0.0000 
     18 C18        -1.2895   51.1952   23.4694 C.3       1 UNK         0.0000 
     19 C19        -0.5073   49.8846   23.2305 C.3       1 UNK         0.0000 
     20 C20         0.6848   49.7134   24.2040 C.3       1 UNK         0.0000 
     21 C21         0.2783   49.9269   25.6838 C.3       1 UNK         0.0000 
     22 H22         1.1044   49.8256   26.3785 H         1 UNK         0.0000 
     23 N23        -0.6247   48.7545   26.0817 N.4       1 UNK         0.0000 
     24 H24         1.0501   54.5989   24.5018 H         1 UNK         0.0000 
     25 H25         2.7044   55.1754   24.4728 H         1 UNK         0.0000 
     26 H26         2.3264   53.5704   23.8462 H         1 UNK         0.0000 
     27 H27         4.6461   53.6658   24.7381 H         1 UNK         0.0000 
     28 H28         6.8682   53.9953   25.6699 H         1 UNK         0.0000 
     29 H29         7.1493   54.4785   28.0817 H         1 UNK         0.0000 
     30 H30         5.1974   54.7505   29.5138 H         1 UNK         0.0000 
     31 H31         0.2707   52.9682   24.8953 H         1 UNK         0.0000 
     32 H32        -2.4467   50.6143   25.2169 H         1 UNK         0.0000 
     33 H33        -2.1985   52.3239   25.0860 H         1 UNK         0.0000 
     34 H34        -0.6764   52.0428   23.1585 H         1 UNK         0.0000 
     35 H35        -2.1757   51.2189   22.8335 H         1 UNK         0.0000 
     36 H36        -0.1462   49.8547   22.2011 H         1 UNK         0.0000 
     37 H37        -1.1869   49.0367   23.3269 H         1 UNK         0.0000 
     38 H38         1.4519   50.4410   23.9333 H         1 UNK         0.0000 
     39 H39         1.1044   48.7181   24.0554 H         1 UNK         0.0000 
     40 H40        -1.4537   48.7230   25.5112 H         1 UNK         0.0000 
     41 H41        -0.1218   47.8807   25.9870 H         1 UNK         0.0000 
     42 H42        -0.9205   48.7817   27.0701 H         1 UNK         0.0000 
@<TRIPOS>BOND
     1    1    2 1    
     2    1   24 1    
     3    1   25 1    
     4    1   26 1    
     5    2    3 1    
     6    2   12 am   BACKBONE|DICT|INTERRES
     7    3    8 ar   
     8    3    4 ar   
     9    4    5 ar   
    10    4   27 1    
    11    5    6 ar   
    12    5   28 1    
    13    6    7 ar   
    14    6   29 1    
    15    7    8 ar   
    16    7   30 1    
    17    8    9 1    
    18    9   10 2    
    19    9   11 1    
    20   12   13 2    
    21   12   14 am   BACKBONE|DICT|INTERRES
    22   14   15 1    
    23   14   31 1    
    24   15   16 1    
    25   15   21 1    
    26   15   17 1    
    27   17   18 1    
    28   17   32 1    
    29   17   33 1    
    30   18   19 1    
    31   18   34 1    
    32   18   35 1    
    33   19   20 1    
    34   19   36 1    
    35   19   37 1    
    36   20   21 1    
    37   20   38 1    
    38   20   39 1    
    39   21   22 1    
    40   21   23 1    
    41   23   40 1    
    42   23   41 1    
    43   23   42 1    
@<TRIPOS>SUBSTRUCTURE
     1 UNK         1 GROUP             0       ****    0 ROOT    
