@<TRIPOS>MOLECULE
ZINC13205394_519
47   50    1
SMALL
USER_CHARGES


@<TRIPOS>ATOM
      1 C1          5.3581   54.5211   23.6871 C.3       1 UNK         0.0000 
      2 C2          5.3623   54.4450   25.2019 C.ar      1 UNK         0.0000 
      3 C3          6.5753   54.4258   25.8922 C.ar      1 UNK         0.0000 
      4 C4          6.5878   54.3241   27.2830 C.ar      1 UNK         0.0000 
      5 C5          5.3876   54.2506   27.9895 C.ar      1 UNK         0.0000 
      6 C6          4.1661   54.2851   27.3097 C.ar      1 UNK         0.0000 
      7 C7          4.1611   54.3896   25.9145 C.ar      1 UNK         0.0000 
      8 C8          2.8645   54.2570   28.0323 C.ar      1 UNK         0.0000 
      9 N9          2.0567   55.2828   28.0818 N.2       1 UNK         0.0000 
     10 N10         0.9354   54.8966   28.7945 N.2       1 UNK         0.0000 
     11 C11         1.1037   53.6599   29.1700 C.ar      1 UNK         0.0000 
     12 N12         2.3501   53.2157   28.7802 N.pl3     1 UNK         0.0000 
     13 C13         3.0191   51.9922   29.2080 C.3       1 UNK         0.0000 
     14 C14         3.6644   52.2570   30.5723 C.2       1 UNK         0.0000 
     15 O15         3.9044   51.2969   31.3217 O.co2     1 UNK         0.0000 
     16 S16        -0.0551   52.8076   30.1892 S.3       1 UNK         0.0000 
     17 C17        -0.5988   51.4086   29.1327 C.3       1 UNK         0.0000 
     18 C18        -0.7197   51.6230   27.6193 C.2       1 UNK         0.0000 
     19 O19        -0.8959   52.7463   27.1587 O.2       1 UNK         0.0000 
     20 N20        -0.6731   50.4966   26.8815 N.am      1 UNK         0.0000 
     21 C21        -0.6679   50.3505   25.4843 C.ar      1 UNK         0.0000 
     22 C22        -0.3129   51.3820   24.5830 C.ar      1 UNK         0.0000 
     23 C23        -0.3390   51.1651   23.1982 C.ar      1 UNK         0.0000 
     24 C24        -0.7198   49.9058   22.7497 C.ar      1 UNK         0.0000 
     25 C25        -1.0365   48.8983   23.6137 C.ar      1 UNK         0.0000 
     26 C26        -1.0127   49.0802   24.9927 C.ar      1 UNK         0.0000 
     27 O27        -1.3608   47.7831   22.9082 O.3       1 UNK         0.0000 
     28 C28        -1.3177   48.1435   21.5494 C.3       1 UNK         0.0000 
     29 O29        -0.8476   49.4650   21.4716 O.3       1 UNK         0.0000 
     30 F30        -0.4958   47.3307   20.8861 F         1 UNK         0.0000 
     31 F31        -2.5390   48.0631   21.0199 F         1 UNK         0.0000 
     32 H32         4.3753   54.7888   23.2968 H         1 UNK         0.0000 
     33 H33         6.0601   55.2854   23.3480 H         1 UNK         0.0000 
     34 H34         5.6682   53.5681   23.2576 H         1 UNK         0.0000 
     35 H35         7.5045   54.4790   25.3453 H         1 UNK         0.0000 
     36 H36         7.5230   54.3091   27.8218 H         1 UNK         0.0000 
     37 H37         5.4147   54.1966   29.0673 H         1 UNK         0.0000 
     38 H38         3.2190   54.4175   25.3855 H         1 UNK         0.0000 
     39 H39         2.2937   51.1845   29.2592 H         1 UNK         0.0000 
     40 H40         3.7880   51.7306   28.4868 H         1 UNK         0.0000 
     41 H41        -1.5581   51.0575   29.5135 H         1 UNK         0.0000 
     42 H42         0.1059   50.5969   29.2816 H         1 UNK         0.0000 
     43 H43        -0.7897   49.6222   27.3993 H         1 UNK         0.0000 
     44 H44        -0.0083   52.3544   24.9405 H         1 UNK         0.0000 
     45 H45        -0.0746   51.9567   22.5120 H         1 UNK         0.0000 
     46 H46        -1.2659   48.2745   25.6689 H         1 UNK         0.0000 
     47 O47         3.9045   53.4344   30.8817 O.co2     1 UNK         0.0000 
@<TRIPOS>BOND
     1    1    2 1    
     2    1   32 1    
     3    1   33 1    
     4    1   34 1    
     5    2    7 ar   
     6    2    3 ar   
     7    3    4 ar   
     8    3   35 1    
     9    4    5 ar   
    10    4   36 1    
    11    5    6 ar   
    12    5   37 1    
    13    6    7 ar   
    14    6    8 1    
    15    7   38 1    
    16    8   12 ar   
    17    8    9 ar   
    18    9   10 ar   
    19   10   11 ar   
    20   11   12 ar   
    21   11   16 1    
    22   12   13 1    
    23   13   14 1    
    24   13   39 1    
    25   13   40 1    
    26   14   15 2    
    27   14   47 1    
    28   16   17 1    
    29   17   18 1    
    30   17   41 1    
    31   17   42 1    
    32   18   19 2    
    33   18   20 am   BACKBONE|DICT|INTERRES
    34   20   21 1    
    35   20   43 1    
    36   21   26 ar   
    37   21   22 ar   
    38   22   23 ar   
    39   22   44 1    
    40   23   24 ar   
    41   23   45 1    
    42   24   29 1    
    43   24   25 ar   
    44   25   26 ar   
    45   25   27 1    
    46   26   46 1    
    47   27   28 1    
    48   28   29 1    
    49   28   30 1    
    50   28   31 1    
@<TRIPOS>SUBSTRUCTURE
     1 UNK         1 GROUP             0       ****    0 ROOT    
