ZINC10348987_1426
                    3D
 Schrodinger Suite 2024-2.
 51 54  0  0  1  0            999 V2000
    1.6965   52.2849   20.4501 C   0  0  0  0  0  0
    1.3974   50.8116   20.2113 C   0  0  0  0  0  0
    2.2477   50.0670   19.3865 C   0  0  0  0  0  0
    1.9972   48.7176   19.1429 C   0  0  0  0  0  0
    0.8897   48.0973   19.7186 C   0  0  0  0  0  0
    0.0297   48.8272   20.5402 C   0  0  0  0  0  0
    0.2778   50.1836   20.7856 C   0  0  0  0  0  0
   -0.6329   50.9071   21.5806 N   0  0  0  0  0  0
   -1.8098   51.4959   21.1716 C   0  0  0  0  0  0
   -2.4043   52.0969   22.1687 N   0  0  0  0  0  0
   -1.5932   51.9377   23.2831 N   0  0  0  0  0  0
   -0.5600   51.2105   22.9267 C   0  0  0  0  0  0
    0.7390   50.6838   24.0018 S   0  0  0  0  0  0
    0.4348   51.6743   25.5136 C   0  0  0  0  0  0
    1.3979   52.8713   25.6599 C   0  0  0  0  0  0
    1.7563   53.4589   24.6371 O   0  0  0  0  0  0
    1.8425   53.2059   26.9100 N   0  0  0  0  0  0
    0.8491   53.1605   28.0129 C   0  0  0  0  0  0
    1.5967   53.0320   29.3634 C   0  0  1  0  0  0
    2.0650   52.0498   29.4580 H   0  0  0  0  0  0
    2.5716   54.0745   29.5022 O   0  0  0  0  0  0
    3.4930   54.0845   28.4777 C   0  0  0  0  0  0
    3.1639   53.6961   27.1640 C   0  0  0  0  0  0
    4.2010   53.7113   26.2074 C   0  0  0  0  0  0
    5.4912   54.1146   26.5400 C   0  0  0  0  0  0
    5.7826   54.5027   27.8406 C   0  0  0  0  0  0
    4.7834   54.4961   28.8108 C   0  0  0  0  0  0
    0.5857   53.1844   30.5224 C   0  0  0  0  0  0
    0.4056   54.2586   31.0931 O   0  0  0  0  0  0
   -0.0957   52.0979   30.8817 N   0  0  0  0  0  0
   -2.3422   51.4602   19.7533 C   0  0  0  0  0  0
    2.5915   52.6191   19.9227 H   0  0  0  0  0  0
    0.8569   52.8957   20.1148 H   0  0  0  0  0  0
    1.8366   52.4786   21.5145 H   0  0  0  0  0  0
    3.1048   50.5289   18.9173 H   0  0  0  0  0  0
    2.6662   48.1623   18.4995 H   0  0  0  0  0  0
    0.6965   47.0522   19.5244 H   0  0  0  0  0  0
   -0.8320   48.3424   20.9744 H   0  0  0  0  0  0
    0.6187   50.9752   26.3283 H   0  0  0  0  0  0
   -0.5978   52.0034   25.6060 H   0  0  0  0  0  0
    0.1206   52.3559   27.9126 H   0  0  0  0  0  0
    0.2853   54.0947   27.9894 H   0  0  0  0  0  0
    4.0507   53.3786   25.1948 H   0  0  0  0  0  0
    6.2663   54.1108   25.7902 H   0  0  0  0  0  0
    6.7848   54.8193   28.0876 H   0  0  0  0  0  0
    5.0121   54.8064   29.8192 H   0  0  0  0  0  0
   -0.0574   51.2488   30.3391 H   0  0  0  0  0  0
   -0.6892   52.1038   31.7204 H   0  0  0  0  0  0
   -3.3053   51.9594   19.6568 H   0  0  0  0  0  0
   -1.6555   51.9445   19.0575 H   0  0  0  0  0  0
   -2.4794   50.4349   19.4053 H   0  0  0  0  0  0
  1  2  1  0  0  0
  1 32  1  0  0  0
  1 33  1  0  0  0
  1 34  1  0  0  0
  2  7  2  0  0  0
  2  3  1  0  0  0
  3  4  2  0  0  0
  3 35  1  0  0  0
  4  5  1  0  0  0
  4 36  1  0  0  0
  5  6  2  0  0  0
  5 37  1  0  0  0
  6  7  1  0  0  0
  6 38  1  0  0  0
  7  8  1  0  0  0
  8 12  1  0  0  0
  8  9  1  0  0  0
  9 10  2  0  0  0
  9 31  1  0  0  0
 10 11  1  0  0  0
 11 12  2  0  0  0
 12 13  1  0  0  0
 13 14  1  0  0  0
 14 15  1  0  0  0
 14 39  1  0  0  0
 14 40  1  0  0  0
 15 16  2  0  0  0
 15 17  1  0  0  0
 17 23  1  0  0  0
 17 18  1  0  0  0
 18 19  1  0  0  0
 18 41  1  0  0  0
 18 42  1  0  0  0
 19 20  1  0  0  0
 19 21  1  0  0  0
 19 28  1  0  0  0
 21 22  1  0  0  0
 22 27  2  0  0  0
 22 23  1  0  0  0
 23 24  2  0  0  0
 24 25  1  0  0  0
 24 43  1  0  0  0
 25 26  2  0  0  0
 25 44  1  0  0  0
 26 27  1  0  0  0
 26 45  1  0  0  0
 27 46  1  0  0  0
 28 29  2  0  0  0
 28 30  1  0  0  0
 30 47  1  0  0  0
 30 48  1  0  0  0
 31 49  1  0  0  0
 31 50  1  0  0  0
 31 51  1  0  0  0
M  END
> <i_i_glide_confnum>
393

> <i_i_glide_lignum>
1427

> <i_i_glide_posenum>
363

> <i_i_glide_rotatable_bonds>
6

> <i_m_Source_File_Index>
2504

> <b_m_subgroup_collapsed>
0

> <r_i_docking_score>
-4.86821

> <r_i_glide_ecoul>
-6.287

> <r_i_glide_eff_state_penalty>
0

> <r_i_glide_einternal>
5.30924

> <r_i_glide_emodel>
-56.3763

> <r_i_glide_energy>
-46.2939

> <r_i_glide_erotb>
0.552569

> <r_i_glide_esite>
-0.131532

> <r_i_glide_evdw>
-40.0069

> <r_i_glide_gscore>
-4.86821

> <r_i_glide_hbond>
-0.19873

> <r_i_glide_ligand_efficiency>
-0.162274

> <r_i_glide_ligand_efficiency_ln>
-1.10611

> <r_i_glide_ligand_efficiency_sa>
-0.504222

> <r_i_glide_lipo>
-1.77754

> <r_i_glide_metal>
0

> <r_i_glide_rewards>
-0.369577

> <s_i_glide_gridfile>
wee1_glide-grid

> <s_m_Source_File>
wee1_decoys_glide_SP.sdf

> <s_m_Source_Path>
/Users/zhangxujun/Desktop

> <s_m_entry_id>
2779

> <s_m_entry_name>
wee1_decoys_glide_SP.2504

> <s_m_subgroup_title>
wee1_decoys_glide_SP

> <s_m_subgroupid>
wee1_decoys_glide_SP


$$$$
