@<TRIPOS>MOLECULE
ZINC09813896_2038
42   45    1
SMALL
USER_CHARGES


@<TRIPOS>ATOM
      1 C1          4.9889   54.4661   27.1717 C.ar      1 UNK         0.0000 
      2 C2          4.6391   54.4967   28.5282 C.ar      1 UNK         0.0000 
      3 C3          3.3108   54.2578   28.8553 C.ar      1 UNK         0.0000 
      4 C4          2.3759   53.9844   27.8999 C.ar      1 UNK         0.0000 
      5 C5          2.6994   53.9255   26.5497 C.ar      1 UNK         0.0000 
      6 C6          4.0344   54.1834   26.1646 C.ar      1 UNK         0.0000 
      7 C7          4.4697   54.1476   24.7106 C.2       1 UNK         0.0000 
      8 O8          5.6126   54.5028   24.4122 O.2       1 UNK         0.0000 
      9 N9          3.5524   53.6967   23.8207 N.am      1 UNK         0.0000 
     10 C10         3.7164   53.4738   22.4552 C.2       1 UNK         0.0000 
     11 N11         2.8234   52.7989   21.7694 N.2       1 UNK         0.0000 
     12 C12         3.1980   52.5809   20.5148 C.2       1 UNK         0.0000 
     13 C13         4.4370   53.1168   20.1723 C.2       1 UNK         0.0000 
     14 S14         5.1052   53.9664   21.5263 S.3       1 UNK         0.0000 
     15 C15         2.2428   51.8517   19.5778 C.3       1 UNK         0.0000 
     16 C16         1.8819   50.3946   19.9210 C.2       1 UNK         0.0000 
     17 O17         1.9183   49.9875   21.0840 O.2       1 UNK         0.0000 
     18 N18         1.5080   49.6410   18.8662 N.am      1 UNK         0.0000 
     19 C19         1.0235   48.3240   18.9010 C.ar      1 UNK         0.0000 
     20 C20         1.5340   47.4276   17.9585 C.ar      1 UNK         0.0000 
     21 C21         1.0670   46.1160   17.9011 C.ar      1 UNK         0.0000 
     22 C22         0.0651   45.6939   18.7738 C.ar      1 UNK         0.0000 
     23 C23        -0.4897   46.5955   19.6819 C.ar      1 UNK         0.0000 
     24 C24        -0.0239   47.9105   19.7455 C.ar      1 UNK         0.0000 
     25 F25        -0.6184   48.7673   20.6081 F         1 UNK         0.0000 
     26 Br26       -0.5492   43.8928   18.7274 Br        1 UNK         0.0000 
     27 O27         1.1728   53.7670   28.4963 O.3       1 UNK         0.0000 
     28 C28         1.3472   54.1356   29.8376 C.3       1 UNK         0.0000 
     29 O29         2.7276   54.2095   30.0814 O.3       1 UNK         0.0000 
     30 H30         6.0206   54.6582   26.9093 H         1 UNK         0.0000 
     31 H31         5.3842   54.7103   29.2802 H         1 UNK         0.0000 
     32 H32         1.9230   53.6948   25.8341 H         1 UNK         0.0000 
     33 H33         2.6800   53.3646   24.1977 H         1 UNK         0.0000 
     34 H34         4.9469   53.0730   19.2199 H         1 UNK         0.0000 
     35 H35         2.6620   51.8690   18.5694 H         1 UNK         0.0000 
     36 H36         1.3042   52.4018   19.5150 H         1 UNK         0.0000 
     37 H37         1.8096   49.9699   17.9592 H         1 UNK         0.0000 
     38 H38         2.3026   47.7341   17.2665 H         1 UNK         0.0000 
     39 H39         1.4934   45.4303   17.1822 H         1 UNK         0.0000 
     40 H40        -1.2845   46.2788   20.3413 H         1 UNK         0.0000 
     41 H41         0.8724   53.4117   30.5017 H         1 UNK         0.0000 
     42 H42         0.9004   55.1179   29.9992 H         1 UNK         0.0000 
@<TRIPOS>BOND
     1    1    6 ar   
     2    1    2 ar   
     3    1   30 1    
     4    2    3 ar   
     5    2   31 1    
     6    3   29 1    
     7    3    4 ar   
     8    4    5 ar   
     9    4   27 1    
    10    5    6 ar   
    11    5   32 1    
    12    6    7 1    
    13    7    8 2    
    14    7    9 am   BACKBONE|DICT|INTERRES
    15    9   10 am   BACKBONE|DICT|INTERRES
    16    9   33 1    
    17   10   14 1    
    18   10   11 2    
    19   11   12 1    
    20   12   13 2    
    21   12   15 1    
    22   13   14 1    
    23   13   34 1    
    24   15   16 1    
    25   15   35 1    
    26   15   36 1    
    27   16   17 2    
    28   16   18 am   BACKBONE|DICT|INTERRES
    29   18   19 1    
    30   18   37 1    
    31   19   24 ar   
    32   19   20 ar   
    33   20   21 ar   
    34   20   38 1    
    35   21   22 ar   
    36   21   39 1    
    37   22   23 ar   
    38   22   26 1    
    39   23   24 ar   
    40   23   40 1    
    41   24   25 1    
    42   27   28 1    
    43   28   29 1    
    44   28   41 1    
    45   28   42 1    
@<TRIPOS>SUBSTRUCTURE
     1 UNK         1 GROUP             0       ****    0 ROOT    
