@<TRIPOS>MOLECULE
ZINC13540445_966
73   78    1
SMALL
USER_CHARGES


@<TRIPOS>ATOM
      1 C1          0.6188   52.5909   16.8344 C.3       1 UNK         0.0000 
      2 C2          1.6173   51.6655   17.5609 C.3       1 UNK         0.0000 
      3 C3          2.4954   52.4788   18.5270 C.3       1 UNK         0.0000 
      4 C4          0.9931   50.4392   18.2280 C.2       1 UNK         0.0000 
      5 C5         -0.3312   50.2063   18.3975 C.2       1 UNK         0.0000 
      6 C6         -0.7072   48.8585   19.0449 C.3       1 UNK         0.0000 
      7 C7         -2.2285   48.6023   19.0782 C.3       1 UNK         0.0000 
      8 C8         -2.5858   47.2231   19.6782 C.3       1 UNK         0.0000 
      9 C9         -1.5661   46.0648   19.3985 C.3       1 UNK         0.0000 
     10 H10        -0.8081   46.2339   20.1600 H         1 UNK         0.0000 
     11 C11        -0.6467   46.2838   18.1313 C.3       1 UNK         0.0000 
     12 C12        -0.0536   47.7706   18.1049 C.3       1 UNK         0.0000 
     13 H13        -0.3311   48.1314   17.1116 H         1 UNK         0.0000 
     14 C14         1.5040   48.0091   17.9914 C.3       1 UNK         0.0000 
     15 C15         1.9075   49.3109   18.7570 C.3       1 UNK         0.0000 
     16 H16         2.9692   49.5317   18.6323 H         1 UNK         0.0000 
     17 C17         1.5390   49.0391   20.2603 C.3       1 UNK         0.0000 
     18 H18         2.0331   48.1307   20.6116 H         1 UNK         0.0000 
     19 C19         0.0290   48.9009   20.4486 C.3       1 UNK         0.0000 
     20 H20        -0.1892   48.0082   21.0294 H         1 UNK         0.0000 
     21 C21        -0.3275   50.0400   21.4093 C.2       1 UNK         0.0000 
     22 O22        -1.4736   50.3439   21.7421 O.2       1 UNK         0.0000 
     23 N23         0.8317   50.5818   21.8748 N.am      1 UNK         0.0000 
     24 C24         1.9433   50.1243   21.2400 C.2       1 UNK         0.0000 
     25 O25         3.1046   50.4792   21.4356 O.2       1 UNK         0.0000 
     26 C26         0.9126   51.4972   22.9522 C.ar      1 UNK         0.0000 
     27 C27         1.5089   52.7489   22.7207 C.ar      1 UNK         0.0000 
     28 C28         1.7205   53.6428   23.7670 C.ar      1 UNK         0.0000 
     29 C29         1.3298   53.3004   25.0562 C.ar      1 UNK         0.0000 
     30 C30         0.6921   52.0862   25.2960 C.ar      1 UNK         0.0000 
     31 C31         0.4766   51.1685   24.2605 C.ar      1 UNK         0.0000 
     32 N32        -0.1842   49.8858   24.5925 N.pl3     1 UNK         0.0000 
     33 O33        -1.1969   49.9364   25.2826 O.co2     1 UNK         0.0000 
     34 O34         0.3051   48.8412   24.1780 O.co2     1 UNK         0.0000 
     35 C35         0.4810   45.2151   18.1877 C.3       1 UNK         0.0000 
     36 C36        -0.0385   43.7689   18.2078 C.3       1 UNK         0.0000 
     37 C37        -0.9138   43.5139   19.4486 C.3       1 UNK         0.0000 
     38 C38        -2.0446   44.5759   19.7421 C.3       1 UNK         0.0000 
     39 C39        -3.3336   44.1785   18.9625 C.3       1 UNK         0.0000 
     40 C40        -2.3274   44.4131   21.2819 C.2       1 UNK         0.0000 
     41 O41        -2.7382   43.2969   21.6816 O.co2     1 UNK         0.0000 
     42 C42        -1.4504   46.0893   16.8048 C.3       1 UNK         0.0000 
     43 H43        -0.0934   53.0339   17.5328 H         1 UNK         0.0000 
     44 H44         1.1352   53.4075   16.3277 H         1 UNK         0.0000 
     45 H45         0.0558   52.0473   16.0737 H         1 UNK         0.0000 
     46 H46         2.2805   51.2645   16.7919 H         1 UNK         0.0000 
     47 H47         1.9123   52.8485   19.3699 H         1 UNK         0.0000 
     48 H48         3.3173   51.8808   18.9229 H         1 UNK         0.0000 
     49 H49         2.9405   53.3418   18.0314 H         1 UNK         0.0000 
     50 H50        -1.0811   50.9096   18.0722 H         1 UNK         0.0000 
     51 H51        -2.7413   49.3862   19.6361 H         1 UNK         0.0000 
     52 H52        -2.6247   48.6725   18.0644 H         1 UNK         0.0000 
     53 H53        -2.7910   47.3157   20.7441 H         1 UNK         0.0000 
     54 H54        -3.5418   46.9603   19.2272 H         1 UNK         0.0000 
     55 H55         2.0637   47.2358   18.5124 H         1 UNK         0.0000 
     56 H56         1.8561   47.9961   16.9589 H         1 UNK         0.0000 
     57 H57         1.8464   53.0203   21.7304 H         1 UNK         0.0000 
     58 H58         2.2008   54.5910   23.5796 H         1 UNK         0.0000 
     59 H59         1.5058   53.9879   25.8711 H         1 UNK         0.0000 
     60 H60         0.3799   51.8455   26.3034 H         1 UNK         0.0000 
     61 H61         1.1041   45.3719   19.0700 H         1 UNK         0.0000 
     62 H62         1.1415   45.3281   17.3270 H         1 UNK         0.0000 
     63 H63         0.8133   43.0881   18.2285 H         1 UNK         0.0000 
     64 H64        -0.5783   43.5139   17.2976 H         1 UNK         0.0000 
     65 H65        -0.1958   43.4887   20.2758 H         1 UNK         0.0000 
     66 H66        -1.3325   42.5063   19.3670 H         1 UNK         0.0000 
     67 H67        -4.1758   44.8288   19.2004 H         1 UNK         0.0000 
     68 H68        -3.2106   44.1926   17.8840 H         1 UNK         0.0000 
     69 H69        -3.6522   43.1634   19.2068 H         1 UNK         0.0000 
     70 H70        -1.8212   45.0859   16.6377 H         1 UNK         0.0000 
     71 H71        -2.3184   46.7481   16.7592 H         1 UNK         0.0000 
     72 H72        -0.8300   46.3116   15.9332 H         1 UNK         0.0000 
     73 O73        -2.0957   45.3493   22.0778 O.co2     1 UNK         0.0000 
@<TRIPOS>BOND
     1    1    2 1    
     2    1   43 1    
     3    1   44 1    
     4    1   45 1    
     5    2    3 1    
     6    2    4 1    
     7    2   46 1    
     8    3   47 1    
     9    3   48 1    
    10    3   49 1    
    11    4   15 1    
    12    4    5 2    
    13    5    6 1    
    14    5   50 1    
    15    6   12 1    
    16    6   19 1    
    17    6    7 1    
    18    7    8 1    
    19    7   51 1    
    20    7   52 1    
    21    8    9 1    
    22    8   53 1    
    23    8   54 1    
    24    9   10 1    
    25    9   38 1    
    26    9   11 1    
    27   11   12 1    
    28   11   35 1    
    29   11   42 1    
    30   12   13 1    
    31   12   14 1    
    32   14   15 1    
    33   14   55 1    
    34   14   56 1    
    35   15   16 1    
    36   15   17 1    
    37   17   18 1    
    38   17   24 1    
    39   17   19 1    
    40   19   20 1    
    41   19   21 1    
    42   21   22 2    
    43   21   23 am   BACKBONE|DICT|INTERRES
    44   23   24 am   BACKBONE|DICT|INTERRES
    45   23   26 1    
    46   24   25 2    
    47   26   31 ar   
    48   26   27 ar   
    49   27   28 ar   
    50   27   57 1    
    51   28   29 ar   
    52   28   58 1    
    53   29   30 ar   
    54   29   59 1    
    55   30   31 ar   
    56   30   60 1    
    57   31   32 1    
    58   32   33 2    
    59   32   34 1    
    60   35   36 1    
    61   35   61 1    
    62   35   62 1    
    63   36   37 1    
    64   36   63 1    
    65   36   64 1    
    66   37   38 1    
    67   37   65 1    
    68   37   66 1    
    69   38   39 1    
    70   38   40 1    
    71   39   67 1    
    72   39   68 1    
    73   39   69 1    
    74   40   41 2    
    75   40   73 1    
    76   42   70 1    
    77   42   71 1    
    78   42   72 1    
@<TRIPOS>SUBSTRUCTURE
     1 UNK         1 GROUP             0       ****    0 ROOT    
