@<TRIPOS>MOLECULE
ZINC39749575_3025
63   66    1
SMALL
USER_CHARGES


@<TRIPOS>ATOM
      1 C1          6.3207   55.2906   19.1117 C.3       1 UNK         0.0000 
      2 C2          6.0245   54.9960   20.5706 C.ar      1 UNK         0.0000 
      3 C3          6.9688   55.3077   21.5501 C.ar      1 UNK         0.0000 
      4 C4          6.7046   55.0263   22.8872 C.ar      1 UNK         0.0000 
      5 C5          5.4912   54.4278   23.2499 C.ar      1 UNK         0.0000 
      6 C6          4.5588   54.0969   22.2631 C.ar      1 UNK         0.0000 
      7 C7          4.8234   54.3819   20.9265 C.ar      1 UNK         0.0000 
      8 N8          5.1314   54.0965   24.5644 N.am      1 UNK         0.0000 
      9 C9          5.7351   54.3719   25.7385 C.2       1 UNK         0.0000 
     10 O10         6.7038   55.1246   25.8785 O.2       1 UNK         0.0000 
     11 C11         5.0977   53.6718   26.9581 C.3       1 UNK         0.0000 
     12 H12         4.8444   52.6562   26.6595 H         1 UNK         0.0000 
     13 C13         6.0719   53.5288   28.1441 C.3       1 UNK         0.0000 
     14 S14         3.5541   54.4968   27.4613 S.3       1 UNK         0.0000 
     15 C15         2.3025   53.4850   26.7214 C.ar      1 UNK         0.0000 
     16 N16         2.2398   53.1824   25.4490 N.2       1 UNK         0.0000 
     17 N17         1.1303   52.3633   25.2715 N.2       1 UNK         0.0000 
     18 C18         0.5703   52.1881   26.4463 C.ar      1 UNK         0.0000 
     19 N19         1.2460   52.9163   27.4112 N.pl3     1 UNK         0.0000 
     20 C20         0.8909   53.1736   28.7524 C.ar      1 UNK         0.0000 
     21 C21         0.7517   52.1435   29.6823 C.ar      1 UNK         0.0000 
     22 C22         0.4454   52.4620   31.0060 C.ar      1 UNK         0.0000 
     23 C23         0.3044   53.7845   31.4026 C.ar      1 UNK         0.0000 
     24 C24         0.4544   54.8108   30.4814 C.ar      1 UNK         0.0000 
     25 C25         0.7197   54.5007   29.1515 C.ar      1 UNK         0.0000 
     26 C26        -0.6625   51.3116   26.6940 C.3       1 UNK         0.0000 
     27 H27        -0.6277   50.9281   27.7130 H         1 UNK         0.0000 
     28 C28        -0.6656   50.0326   25.8071 C.3       1 UNK         0.0000 
     29 O29        -1.7868   49.2107   26.0817 O.3       1 UNK         0.0000 
     30 N30        -1.9287   52.0594   26.6416 N.am      1 UNK         0.0000 
     31 C31        -2.5795   52.4964   25.5460 C.2       1 UNK         0.0000 
     32 O32        -2.0499   52.6101   24.4401 O.2       1 UNK         0.0000 
     33 C33        -4.0590   52.7451   25.7363 C.ar      1 UNK         0.0000 
     34 C34        -4.7974   51.9688   26.6491 C.ar      1 UNK         0.0000 
     35 C35        -6.1693   52.1582   26.8062 C.ar      1 UNK         0.0000 
     36 C36        -6.8321   53.1142   26.0423 C.ar      1 UNK         0.0000 
     37 C37        -6.1192   53.8825   25.1258 C.ar      1 UNK         0.0000 
     38 C38        -4.7418   53.7118   24.9758 C.ar      1 UNK         0.0000 
     39 F39        -4.0955   54.4960   24.0816 F         1 UNK         0.0000 
     40 H40         5.9581   56.2819   18.8389 H         1 UNK         0.0000 
     41 H41         5.8477   54.5531   18.4613 H         1 UNK         0.0000 
     42 H42         7.3914   55.2389   18.9101 H         1 UNK         0.0000 
     43 H43         7.9129   55.7594   21.2814 H         1 UNK         0.0000 
     44 H44         7.4620   55.2720   23.6150 H         1 UNK         0.0000 
     45 H45         3.6193   53.6283   22.5213 H         1 UNK         0.0000 
     46 H46         4.0916   54.1299   20.1714 H         1 UNK         0.0000 
     47 H47         4.2785   53.5611   24.6354 H         1 UNK         0.0000 
     48 H48         6.9969   53.0283   27.8517 H         1 UNK         0.0000 
     49 H49         6.3362   54.4983   28.5712 H         1 UNK         0.0000 
     50 H50         5.6195   52.9311   28.9353 H         1 UNK         0.0000 
     51 H51         0.8871   51.1128   29.3893 H         1 UNK         0.0000 
     52 H52         0.3051   51.6967   31.7511 H         1 UNK         0.0000 
     53 H53         0.0698   54.0067   32.4340 H         1 UNK         0.0000 
     54 H54         0.3465   55.8403   30.7902 H         1 UNK         0.0000 
     55 H55         0.8256   55.3050   28.4364 H         1 UNK         0.0000 
     56 H56        -0.6963   50.2901   24.7475 H         1 UNK         0.0000 
     57 H57         0.2413   49.4478   25.9712 H         1 UNK         0.0000 
     58 H58        -1.6956   48.8604   27.0015 H         1 UNK         0.0000 
     59 H59        -2.4278   52.1153   27.5151 H         1 UNK         0.0000 
     60 H60        -4.3217   51.1918   27.2324 H         1 UNK         0.0000 
     61 H61        -6.7215   51.5485   27.5068 H         1 UNK         0.0000 
     62 H62        -7.8983   53.2495   26.1500 H         1 UNK         0.0000 
     63 H63        -6.6408   54.6043   24.5143 H         1 UNK         0.0000 
@<TRIPOS>BOND
     1    1    2 1    
     2    1   40 1    
     3    1   41 1    
     4    1   42 1    
     5    2    7 ar   
     6    2    3 ar   
     7    3    4 ar   
     8    3   43 1    
     9    4    5 ar   
    10    4   44 1    
    11    5    6 ar   
    12    5    8 1    
    13    6    7 ar   
    14    6   45 1    
    15    7   46 1    
    16    8    9 am   BACKBONE|DICT|INTERRES
    17    8   47 1    
    18    9   10 2    
    19    9   11 1    
    20   11   12 1    
    21   11   13 1    
    22   11   14 1    
    23   13   48 1    
    24   13   49 1    
    25   13   50 1    
    26   14   15 1    
    27   15   19 ar   
    28   15   16 ar   
    29   16   17 ar   
    30   17   18 ar   
    31   18   19 ar   
    32   18   26 1    
    33   19   20 1    
    34   20   25 ar   
    35   20   21 ar   
    36   21   22 ar   
    37   21   51 1    
    38   22   23 ar   
    39   22   52 1    
    40   23   24 ar   
    41   23   53 1    
    42   24   25 ar   
    43   24   54 1    
    44   25   55 1    
    45   26   27 1    
    46   26   28 1    
    47   26   30 1    
    48   28   29 1    
    49   28   56 1    
    50   28   57 1    
    51   29   58 1    
    52   30   31 am   BACKBONE|DICT|INTERRES
    53   30   59 1    
    54   31   32 2    
    55   31   33 1    
    56   33   38 ar   
    57   33   34 ar   
    58   34   35 ar   
    59   34   60 1    
    60   35   36 ar   
    61   35   61 1    
    62   36   37 ar   
    63   36   62 1    
    64   37   38 ar   
    65   37   63 1    
    66   38   39 1    
@<TRIPOS>SUBSTRUCTURE
     1 UNK         1 GROUP             0       ****    0 ROOT    
