ZINC40049562_3234
                    3D
 Schrodinger Suite 2024-2.
 59 63  0  0  1  0            999 V2000
   -2.1794   51.7975   26.9946 C   0  0  0  0  0  0
   -0.8247   51.0771   26.7590 C   0  0  1  0  0  0
   -0.9859   50.0040   26.8813 H   0  0  0  0  0  0
   -0.2029   51.3558   25.3890 C   0  0  2  0  0  0
    0.3590   50.4841   25.0499 H   0  0  0  0  0  0
    0.7953   52.4967   25.6238 C   0  0  0  0  0  0
    1.3522   53.1677   24.7504 O   0  0  0  0  0  0
    0.9013   52.5991   26.9735 N   0  0  0  0  0  0
    0.2844   51.4846   27.6103 N   0  0  0  0  0  0
   -0.0767   51.6812   29.0202 C   0  0  0  0  0  0
    1.8312   53.4245   27.6425 C   0  0  0  0  0  0
    3.2037   53.2849   27.3876 C   0  0  0  0  0  0
    4.1302   54.0126   28.1262 C   0  0  0  0  0  0
    3.6833   54.8964   29.1038 C   0  0  0  0  0  0
    2.3186   55.0952   29.3180 C   0  0  0  0  0  0
    1.3886   54.3599   28.5867 C   0  0  0  0  0  0
   -1.1366   51.7001   24.2873 N   0  0  0  0  0  0
   -1.4396   50.5576   22.9893 S   0  0  0  0  0  0
   -2.5661   51.0875   22.2122 O   0  0  0  0  0  0
   -1.4871   49.2077   23.5601 O   0  0  0  0  0  0
    0.0091   50.6606   21.9427 C   0  0  0  0  0  0
    1.1177   49.8400   22.1852 C   0  0  0  0  0  0
    2.2562   49.8754   21.3702 C   0  0  0  0  0  0
    2.2281   50.7730   20.2970 C   0  0  0  0  0  0
    1.1218   51.6231   20.0433 C   0  0  0  0  0  0
    0.0039   51.5716   20.8802 C   0  0  0  0  0  0
    1.3264   52.4063   18.9376 N   0  0  0  0  0  0
    2.5125   52.0548   18.5096 C   0  0  0  0  0  0
    3.1032   51.0853   19.2814 N   0  0  0  0  0  0
    4.0164   50.6923   19.0354 H   0  0  0  0  0  0
    3.2087   52.6537   17.3075 C   0  0  0  0  0  0
    4.0367   53.8807   17.6730 C   0  0  0  0  0  0
    5.2980   53.7120   18.2539 C   0  0  0  0  0  0
    6.0664   54.8246   18.6025 C   0  0  0  0  0  0
    5.5783   56.1124   18.3674 C   0  0  0  0  0  0
    4.3196   56.2842   17.7849 C   0  0  0  0  0  0
    3.5473   55.1740   17.4422 C   0  0  0  0  0  0
    2.3287   55.3654   16.8834 F   0  0  0  0  0  0
   -2.9310   51.4544   26.2837 H   0  0  0  0  0  0
   -2.5796   51.5964   27.9888 H   0  0  0  0  0  0
   -2.0885   52.8773   26.8793 H   0  0  0  0  0  0
   -0.6499   50.8396   29.4065 H   0  0  0  0  0  0
    0.8184   51.7846   29.6353 H   0  0  0  0  0  0
   -0.6889   52.5718   29.1589 H   0  0  0  0  0  0
    3.5555   52.5838   26.6448 H   0  0  0  0  0  0
    5.1885   53.8856   27.9474 H   0  0  0  0  0  0
    4.4104   55.4501   29.6805 H   0  0  0  0  0  0
    1.9851   55.8119   30.0556 H   0  0  0  0  0  0
    0.3297   54.5052   28.7723 H   0  0  0  0  0  0
   -1.0499   52.6668   23.9632 H   0  0  0  0  0  0
    1.0973   49.1522   23.0213 H   0  0  0  0  0  0
    3.1016   49.2290   21.5565 H   0  0  0  0  0  0
   -0.8467   52.2085   20.6932 H   0  0  0  0  0  0
    2.4832   52.9171   16.5388 H   0  0  0  0  0  0
    3.8592   51.9161   16.8358 H   0  0  0  0  0  0
    5.6845   52.7166   18.4343 H   0  0  0  0  0  0
    7.0399   54.6896   19.0499 H   0  0  0  0  0  0
    6.1718   56.9757   18.6301 H   0  0  0  0  0  0
    3.9400   57.2778   17.6024 H   0  0  0  0  0  0
  1  2  1  0  0  0
  1 39  1  0  0  0
  1 40  1  0  0  0
  1 41  1  0  0  0
  2  3  1  0  0  0
  2  9  1  0  0  0
  2  4  1  0  0  0
  4  5  1  0  0  0
  4  6  1  0  0  0
  4 17  1  0  0  0
  6  7  2  0  0  0
  6  8  1  0  0  0
  8  9  1  0  0  0
  8 11  1  0  0  0
  9 10  1  0  0  0
 10 42  1  0  0  0
 10 43  1  0  0  0
 10 44  1  0  0  0
 11 16  2  0  0  0
 11 12  1  0  0  0
 12 13  2  0  0  0
 12 45  1  0  0  0
 13 14  1  0  0  0
 13 46  1  0  0  0
 14 15  2  0  0  0
 14 47  1  0  0  0
 15 16  1  0  0  0
 15 48  1  0  0  0
 16 49  1  0  0  0
 17 18  1  0  0  0
 17 50  1  0  0  0
 18 19  2  0  0  0
 18 20  2  0  0  0
 18 21  1  0  0  0
 21 26  2  0  0  0
 21 22  1  0  0  0
 22 23  2  0  0  0
 22 51  1  0  0  0
 23 24  1  0  0  0
 23 52  1  0  0  0
 24 29  1  0  0  0
 24 25  2  0  0  0
 25 26  1  0  0  0
 25 27  1  0  0  0
 26 53  1  0  0  0
 27 28  2  0  0  0
 28 29  1  0  0  0
 28 31  1  0  0  0
 29 30  1  0  0  0
 31 32  1  0  0  0
 31 54  1  0  0  0
 31 55  1  0  0  0
 32 37  2  0  0  0
 32 33  1  0  0  0
 33 34  2  0  0  0
 33 56  1  0  0  0
 34 35  1  0  0  0
 34 57  1  0  0  0
 35 36  2  0  0  0
 35 58  1  0  0  0
 36 37  1  0  0  0
 36 59  1  0  0  0
 37 38  1  0  0  0
M  END
> <i_i_glide_confnum>
17

> <i_i_glide_lignum>
3235

> <i_i_glide_posenum>
374

> <i_i_glide_rotatable_bonds>
6

> <i_m_Source_File_Index>
4840

> <b_m_subgroup_collapsed>
0

> <r_i_docking_score>
-4.65892

> <r_i_glide_ecoul>
-4.75035

> <r_i_glide_eff_state_penalty>
0

> <r_i_glide_einternal>
4.95732

> <r_i_glide_emodel>
-54.7221

> <r_i_glide_energy>
-43.1329

> <r_i_glide_erotb>
0.50179

> <r_i_glide_esite>
-0.15611

> <r_i_glide_evdw>
-38.3825

> <r_i_glide_gscore>
-4.65892

> <r_i_glide_hbond>
-0.16

> <r_i_glide_ligand_efficiency>
-0.133112

> <r_i_glide_ligand_efficiency_ln>
-1.02274

> <r_i_glide_ligand_efficiency_sa>
-0.435418

> <r_i_glide_lipo>
-1.85443

> <r_i_glide_metal>
0

> <r_i_glide_rewards>
-0.358494

> <s_i_glide_gridfile>
wee1_glide-grid

> <s_m_Source_File>
wee1_decoys_glide_SP.sdf

> <s_m_Source_Path>
/Users/zhangxujun/Desktop

> <s_m_entry_id>
5115

> <s_m_entry_name>
wee1_decoys_glide_SP.4840

> <s_m_subgroup_title>
wee1_decoys_glide_SP

> <s_m_subgroupid>
wee1_decoys_glide_SP


$$$$
