@<TRIPOS>MOLECULE
ZINC44551576_4689
42   44    1
SMALL
USER_CHARGES


@<TRIPOS>ATOM
      1 C1          2.6267   53.9091   28.8859 C.ar      1 UNK         0.0000 
      2 C2          3.4032   54.0735   27.7462 C.ar      1 UNK         0.0000 
      3 C3          2.9267   53.6957   26.4848 C.ar      1 UNK         0.0000 
      4 C4          1.6676   53.0782   26.4267 C.ar      1 UNK         0.0000 
      5 C5          0.8908   52.9008   27.5715 C.ar      1 UNK         0.0000 
      6 C6          1.3449   53.3423   28.8232 C.ar      1 UNK         0.0000 
      7 C7          0.5166   53.2556   30.0516 C.2       1 UNK         0.0000 
      8 N8          0.6033   54.2182   30.8818 N.2       1 UNK         0.0000 
      9 O9         -0.0954   54.0350   32.0907 O.3       1 UNK         0.0000 
     10 N10        -0.2399   52.0967   30.1155 N.pl3     1 UNK         0.0000 
     11 N11         3.6881   53.9071   25.3281 N.pl3     1 UNK         0.0000 
     12 C12         5.1200   54.2616   25.3691 C.3       1 UNK         0.0000 
     13 C13         5.8804   54.6108   24.0614 C.3       1 UNK         0.0000 
     14 N14         5.2163   54.4953   22.7496 N.pl3     1 UNK         0.0000 
     15 C15         3.9394   53.7804   22.8352 C.3       1 UNK         0.0000 
     16 C16         3.0812   54.2242   24.0317 C.3       1 UNK         0.0000 
     17 C17         5.9043   54.7392   21.5548 C.ar      1 UNK         0.0000 
     18 C18         5.3900   54.3402   20.3086 C.ar      1 UNK         0.0000 
     19 C19         6.0760   54.6148   19.1257 C.ar      1 UNK         0.0000 
     20 C20         7.2906   55.2911   19.1719 C.ar      1 UNK         0.0000 
     21 C21         7.8205   55.6971   20.3902 C.ar      1 UNK         0.0000 
     22 C22         7.1253   55.4351   21.5679 C.ar      1 UNK         0.0000 
     23 F23         7.9588   55.5548   18.0274 F         1 UNK         0.0000 
     24 H24         3.0320   54.2520   29.8270 H         1 UNK         0.0000 
     25 H25         4.3718   54.5303   27.8737 H         1 UNK         0.0000 
     26 H26         1.2697   52.7189   25.4914 H         1 UNK         0.0000 
     27 H27        -0.0838   52.4437   27.4658 H         1 UNK         0.0000 
     28 H28        -0.4276   53.1298   32.0469 H         1 UNK         0.0000 
     29 H29        -0.8136   51.8626   30.9195 H         1 UNK         0.0000 
     30 H30        -0.1691   51.4032   29.3842 H         1 UNK         0.0000 
     31 H31         5.3941   54.9730   26.1483 H         1 UNK         0.0000 
     32 H32         5.5451   53.2969   25.6461 H         1 UNK         0.0000 
     33 H33         6.8979   54.2196   24.0758 H         1 UNK         0.0000 
     34 H34         5.9512   55.6966   24.1318 H         1 UNK         0.0000 
     35 H35         4.1079   52.7059   22.8787 H         1 UNK         0.0000 
     36 H36         3.3461   53.9804   21.9453 H         1 UNK         0.0000 
     37 H37         2.1019   53.7630   23.9271 H         1 UNK         0.0000 
     38 H38         2.9149   55.2970   23.9696 H         1 UNK         0.0000 
     39 H39         4.4607   53.8011   20.2255 H         1 UNK         0.0000 
     40 H40         5.6715   54.2944   18.1767 H         1 UNK         0.0000 
     41 H41         8.7719   56.2090   20.4190 H         1 UNK         0.0000 
     42 H42         7.5647   55.7737   22.4931 H         1 UNK         0.0000 
@<TRIPOS>BOND
     1    1    6 ar   
     2    1    2 ar   
     3    1   24 1    
     4    2    3 ar   
     5    2   25 1    
     6    3    4 ar   
     7    3   11 1    
     8    4    5 ar   
     9    4   26 1    
    10    5    6 ar   
    11    5   27 1    
    12    6    7 1    
    13    7    8 2    
    14    7   10 1    
    15    8    9 1    
    16    9   28 1    
    17   10   29 1    
    18   10   30 1    
    19   11   16 1    
    20   11   12 1    
    21   12   13 1    
    22   12   31 1    
    23   12   32 1    
    24   13   14 1    
    25   13   33 1    
    26   13   34 1    
    27   14   15 1    
    28   14   17 1    
    29   15   16 1    
    30   15   35 1    
    31   15   36 1    
    32   16   37 1    
    33   16   38 1    
    34   17   22 ar   
    35   17   18 ar   
    36   18   19 ar   
    37   18   39 1    
    38   19   20 ar   
    39   19   40 1    
    40   20   21 ar   
    41   20   23 1    
    42   21   22 ar   
    43   21   41 1    
    44   22   42 1    
@<TRIPOS>SUBSTRUCTURE
     1 UNK         1 GROUP             0       ****    0 ROOT    
