ZINC12245072_4976
                    3D
 Schrodinger Suite 2024-2.
 78 82  0  0  1  0            999 V2000
    9.3790   49.6939   14.2037 C   0  0  0  0  0  0
    9.7953   50.5691   15.4204 C   0  0  0  0  0  0
   10.6430   51.8429   15.0973 C   0  0  1  0  0  0
   11.7287   51.7380   15.1197 H   0  0  0  0  0  0
   10.1787   52.5932   13.7973 C   0  0  0  0  0  0
    8.6520   52.7755   13.8447 C   0  0  0  0  0  0
    7.9432   52.2846   14.8904 C   0  0  0  0  0  0
    8.7443   51.5763   16.0066 C   0  0  2  0  0  0
    8.1282   51.2462   16.8433 H   0  0  0  0  0  0
    9.9629   52.4839   16.3368 C   0  0  0  0  0  0
    6.4371   52.4572   15.0309 C   0  0  0  0  0  0
    6.0507   53.5141   16.0836 C   0  0  0  0  0  0
    4.8362   53.7981   18.3853 C   0  0  0  0  0  0
    3.9319   52.9605   19.3031 C   0  0  0  0  0  0
    3.7716   53.5296   20.7228 C   0  0  0  0  0  0
    5.0288   53.8928   21.4063 N   0  0  0  0  0  0
    5.8720   54.7419   20.5476 C   0  0  0  0  0  0
    6.1245   54.1341   19.1565 C   0  0  0  0  0  0
    5.0571   54.0441   22.7946 C   0  0  0  0  0  0
    3.8737   54.0968   23.5422 C   0  0  0  0  0  0
    3.9043   54.1464   24.9266 C   0  0  0  0  0  0
    5.1243   54.1472   25.6188 C   0  0  0  0  0  0
    6.3110   54.1434   24.8761 C   0  0  0  0  0  0
    6.2777   54.0970   23.4830 C   0  0  0  0  0  0
    5.1700   54.0965   27.1321 C   0  0  0  0  0  0
    6.2270   53.9224   27.7381 O   0  0  0  0  0  0
    3.9847   54.2508   27.7488 N   0  0  0  0  0  0
    3.6739   54.1765   29.1841 C   0  0  1  0  0  0
    4.5932   54.4152   29.7252 H   0  0  0  0  0  0
    2.6367   55.2593   29.5689 C   0  0  0  0  0  0
    1.3630   55.2635   28.7029 C   0  0  0  0  0  0
    0.5758   53.9350   28.6810 C   0  0  0  0  0  0
    1.3245   52.7163   28.0895 C   0  0  0  0  0  0
    2.3548   52.1318   28.9539 N   0  0  0  0  0  0
    3.3040   52.7537   29.6836 C   0  0  0  0  0  0
    3.7547   52.2677   30.7195 O   0  0  0  0  0  0
   10.4304   49.6179   16.4761 C   0  0  0  0  0  0
    8.7040   48.8988   14.5093 H   0  0  0  0  0  0
    8.8737   50.2302   13.4040 H   0  0  0  0  0  0
   10.2544   49.2255   13.7486 H   0  0  0  0  0  0
   10.4708   52.0358   12.9067 H   0  0  0  0  0  0
   10.6661   53.5653   13.7275 H   0  0  0  0  0  0
    8.1449   53.2965   13.0454 H   0  0  0  0  0  0
   10.4681   52.2913   17.2824 H   0  0  0  0  0  0
    9.8228   53.5672   16.2967 H   0  0  0  0  0  0
    6.0106   51.4788   15.2564 H   0  0  0  0  0  0
    6.0137   52.7413   14.0667 H   0  0  0  0  0  0
    5.4696   54.3393   15.6632 H   0  0  0  0  0  0
    6.9317   53.9115   16.5891 H   0  0  0  0  0  0
    4.2778   54.6952   18.1105 H   0  0  0  0  0  0
    4.3263   51.9499   19.4256 H   0  0  0  0  0  0
    2.9627   52.7907   18.8323 H   0  0  0  0  0  0
    3.2744   52.7560   21.3110 H   0  0  0  0  0  0
    3.1167   54.3973   20.7296 H   0  0  0  0  0  0
    5.3899   55.7158   20.4506 H   0  0  0  0  0  0
    6.8419   54.9260   21.0124 H   0  0  0  0  0  0
    6.7739   54.7881   18.5774 H   0  0  0  0  0  0
    6.7043   53.2227   19.2806 H   0  0  0  0  0  0
    2.9066   54.0856   23.0638 H   0  0  0  0  0  0
    2.9518   54.1606   25.4362 H   0  0  0  0  0  0
    7.2702   54.1413   25.3730 H   0  0  0  0  0  0
    7.2163   54.0514   22.9508 H   0  0  0  0  0  0
    3.1718   54.3480   27.1654 H   0  0  0  0  0  0
    3.1004   56.2435   29.5079 H   0  0  0  0  0  0
    2.3042   55.1415   30.5959 H   0  0  0  0  0  0
    0.7139   56.0607   29.0663 H   0  0  0  0  0  0
    1.6210   55.5461   27.6817 H   0  0  0  0  0  0
    0.2116   53.6930   29.6809 H   0  0  0  0  0  0
   -0.3224   54.0963   28.0817 H   0  0  0  0  0  0
    0.5965   51.9275   27.8870 H   0  0  0  0  0  0
    1.7514   52.9383   27.1111 H   0  0  0  0  0  0
    2.1507   51.2006   29.2810 H   0  0  0  0  0  0
    9.6986   48.8973   16.8387 H   0  0  0  0  0  0
   11.2645   49.0603   16.0494 H   0  0  0  0  0  0
   10.8182   50.1336   17.3529 H   0  0  0  0  0  0
    5.1465   52.8967   17.1718 N   0  3  0  0  0  0
    5.5516   52.0299   17.5306 H   0  0  0  0  0  0
    4.2728   52.5826   16.7709 H   0  0  0  0  0  0
  1  2  1  0  0  0
  1 38  1  0  0  0
  1 39  1  0  0  0
  1 40  1  0  0  0
  2  8  1  0  0  0
  2  3  1  0  0  0
  2 37  1  0  0  0
  3  4  1  0  0  0
  3 10  1  0  0  0
  3  5  1  0  0  0
  5  6  1  0  0  0
  5 41  1  0  0  0
  5 42  1  0  0  0
  6  7  2  0  0  0
  6 43  1  0  0  0
  7  8  1  0  0  0
  7 11  1  0  0  0
  8  9  1  0  0  0
  8 10  1  0  0  0
 10 44  1  0  0  0
 10 45  1  0  0  0
 11 12  1  0  0  0
 11 46  1  0  0  0
 11 47  1  0  0  0
 12 48  1  0  0  0
 12 49  1  0  0  0
 12 76  1  0  0  0
 13 18  1  0  0  0
 13 14  1  0  0  0
 13 50  1  0  0  0
 13 76  1  0  0  0
 14 15  1  0  0  0
 14 51  1  0  0  0
 14 52  1  0  0  0
 15 16  1  0  0  0
 15 53  1  0  0  0
 15 54  1  0  0  0
 16 17  1  0  0  0
 16 19  1  0  0  0
 17 18  1  0  0  0
 17 55  1  0  0  0
 17 56  1  0  0  0
 18 57  1  0  0  0
 18 58  1  0  0  0
 19 24  2  0  0  0
 19 20  1  0  0  0
 20 21  2  0  0  0
 20 59  1  0  0  0
 21 22  1  0  0  0
 21 60  1  0  0  0
 22 23  2  0  0  0
 22 25  1  0  0  0
 23 24  1  0  0  0
 23 61  1  0  0  0
 24 62  1  0  0  0
 25 26  2  0  0  0
 25 27  1  0  0  0
 27 28  1  0  0  0
 27 63  1  0  0  0
 28 29  1  0  0  0
 28 35  1  0  0  0
 28 30  1  0  0  0
 30 31  1  0  0  0
 30 64  1  0  0  0
 30 65  1  0  0  0
 31 32  1  0  0  0
 31 66  1  0  0  0
 31 67  1  0  0  0
 32 33  1  0  0  0
 32 68  1  0  0  0
 32 69  1  0  0  0
 33 34  1  0  0  0
 33 70  1  0  0  0
 33 71  1  0  0  0
 34 35  1  0  0  0
 34 72  1  0  0  0
 35 36  2  0  0  0
 37 73  1  0  0  0
 37 74  1  0  0  0
 37 75  1  0  0  0
 76 77  1  0  0  0
 76 78  1  0  0  0
M  CHG  1  76   1
M  END
> <i_i_glide_confnum>
108

> <i_i_glide_lignum>
4977

> <i_i_glide_posenum>
326

> <i_i_glide_rotatable_bonds>
8

> <i_m_Source_File_Index>
2478

> <b_m_subgroup_collapsed>
0

> <r_i_docking_score>
-6.99229

> <r_i_glide_ecoul>
-4.4104

> <r_i_glide_eff_state_penalty>
0

> <r_i_glide_einternal>
9.97504

> <r_i_glide_emodel>
-69.645

> <r_i_glide_energy>
-50.5366

> <r_i_glide_erotb>
0.704889

> <r_i_glide_esite>
-0.0946109

> <r_i_glide_evdw>
-46.1262

> <r_i_glide_gscore>
-6.99229

> <r_i_glide_hbond>
-0.297746

> <r_i_glide_ligand_efficiency>
-0.19978

> <r_i_glide_ligand_efficiency_ln>
-1.53496

> <r_i_glide_ligand_efficiency_sa>
-0.653492

> <r_i_glide_lipo>
-3.25663

> <r_i_glide_metal>
0

> <r_i_glide_rewards>
-1.08032

> <s_i_glide_gridfile>
wee1_glide-grid

> <s_m_Source_File>
wee1_decoys_glide_SP.sdf

> <s_m_Source_Path>
/Users/zhangxujun/Desktop

> <s_m_entry_id>
2753

> <s_m_entry_name>
wee1_decoys_glide_SP.2478

> <s_m_subgroup_title>
wee1_decoys_glide_SP

> <s_m_subgroupid>
wee1_decoys_glide_SP


$$$$
