@<TRIPOS>MOLECULE
ZINC17094941_2608
55   58    1
SMALL
USER_CHARGES


@<TRIPOS>ATOM
      1 C1          5.4251   53.7892   17.5869 C.3       1 UNK         0.0000 
      2 C2          5.3871   53.9129   19.0986 C.ar      1 UNK         0.0000 
      3 C3          6.0099   54.9912   19.7267 C.ar      1 UNK         0.0000 
      4 C4          5.9888   55.0905   21.1144 C.ar      1 UNK         0.0000 
      5 C5          5.3475   54.1131   21.8832 C.ar      1 UNK         0.0000 
      6 C6          4.7278   53.0318   21.2458 C.ar      1 UNK         0.0000 
      7 C7          4.7485   52.9325   19.8584 C.ar      1 UNK         0.0000 
      8 C8          5.3359   54.2435   23.3761 C.2       1 UNK         0.0000 
      9 C9          6.4904   54.5467   24.0987 C.2       1 UNK         0.0000 
     10 S10         6.2432   54.6568   25.8041 S.3       1 UNK         0.0000 
     11 C11         4.5509   54.2897   25.5938 C.2       1 UNK         0.0000 
     12 C12         4.2139   54.0967   24.2390 C.2       1 UNK         0.0000 
     13 C13         2.8728   53.8205   23.7637 C.2       1 UNK         0.0000 
     14 O14         2.3450   54.4967   22.8843 O.2       1 UNK         0.0000 
     15 N15         2.2902   52.7596   24.3457 N.am      1 UNK         0.0000 
     16 C16         1.0122   52.1794   23.9427 C.3       1 UNK         0.0000 
     17 C17        -0.0585   52.0263   24.9938 C.3       1 UNK         0.0000 
     18 C18        -0.2375   53.0304   23.8796 C.3       1 UNK         0.0000 
     19 N19         3.6610   54.1770   26.6533 N.am      1 UNK         0.0000 
     20 C20         3.8124   54.4631   27.9641 C.2       1 UNK         0.0000 
     21 O21         4.8447   54.8967   28.4713 O.2       1 UNK         0.0000 
     22 C22         2.5824   54.1753   28.8713 C.3       1 UNK         0.0000 
     23 H23         2.6717   54.8045   29.7582 H         1 UNK         0.0000 
     24 C24         1.2879   54.6486   28.1308 C.3       1 UNK         0.0000 
     25 C25        -0.0100   54.2007   28.8242 C.3       1 UNK         0.0000 
     26 C26        -0.0684   52.7058   29.1442 C.3       1 UNK         0.0000 
     27 C27         1.1458   52.3523   29.9938 C.3       1 UNK         0.0000 
     28 C28         2.4562   52.6570   29.2312 C.3       1 UNK         0.0000 
     29 H29         2.4487   52.0535   28.3193 H         1 UNK         0.0000 
     30 C30         3.6507   52.1601   30.0782 C.2       1 UNK         0.0000 
     31 O31         3.5337   52.0914   31.3219 O.co2     1 UNK         0.0000 
     32 H32         6.3341   54.2335   17.1790 H         1 UNK         0.0000 
     33 H33         5.4280   52.7413   17.2822 H         1 UNK         0.0000 
     34 H34         4.5610   54.2804   17.1390 H         1 UNK         0.0000 
     35 H35         6.5086   55.7515   19.1418 H         1 UNK         0.0000 
     36 H36         6.4691   55.9299   21.5940 H         1 UNK         0.0000 
     37 H37         4.2335   52.2616   21.8193 H         1 UNK         0.0000 
     38 H38         4.2779   52.0925   19.3678 H         1 UNK         0.0000 
     39 H39         7.4814   54.7062   23.6981 H         1 UNK         0.0000 
     40 H40         2.8691   52.1812   24.9367 H         1 UNK         0.0000 
     41 H41         1.1175   51.3864   23.2004 H         1 UNK         0.0000 
     42 H42         0.1431   52.3870   26.0009 H         1 UNK         0.0000 
     43 H43        -0.6552   51.1136   24.9928 H         1 UNK         0.0000 
     44 H44        -0.9615   52.8244   23.0914 H         1 UNK         0.0000 
     45 H45        -0.1418   54.0967   24.0820 H         1 UNK         0.0000 
     46 H46         2.7368   53.8744   26.3865 H         1 UNK         0.0000 
     47 H47         1.2530   55.7367   28.0810 H         1 UNK         0.0000 
     48 H48         1.1946   54.1913   27.1452 H         1 UNK         0.0000 
     49 H49        -0.8552   54.4726   28.1906 H         1 UNK         0.0000 
     50 H50        -0.0971   54.7546   29.7621 H         1 UNK         0.0000 
     51 H51        -0.0871   52.1081   28.2337 H         1 UNK         0.0000 
     52 H52        -0.9847   52.4709   29.6865 H         1 UNK         0.0000 
     53 H53         1.0905   51.2968   30.2117 H         1 UNK         0.0000 
     54 H54         1.0852   52.9073   30.9343 H         1 UNK         0.0000 
     55 O55         4.7044   51.9262   29.4630 O.co2     1 UNK         0.0000 
@<TRIPOS>BOND
     1    1    2 1    
     2    1   32 1    
     3    1   33 1    
     4    1   34 1    
     5    2    7 ar   
     6    2    3 ar   
     7    3    4 ar   
     8    3   35 1    
     9    4    5 ar   
    10    4   36 1    
    11    5    6 ar   
    12    5    8 1    
    13    6    7 ar   
    14    6   37 1    
    15    7   38 1    
    16    8   12 1    
    17    8    9 2    
    18    9   10 1    
    19    9   39 1    
    20   10   11 1    
    21   11   12 2    
    22   11   19 am   BACKBONE|DICT|INTERRES
    23   12   13 1    
    24   13   14 2    
    25   13   15 am   BACKBONE|DICT|INTERRES
    26   15   16 1    
    27   15   40 1    
    28   16   18 1    
    29   16   17 1    
    30   16   41 1    
    31   17   18 1    
    32   17   42 1    
    33   17   43 1    
    34   18   44 1    
    35   18   45 1    
    36   19   20 am   BACKBONE|DICT|INTERRES
    37   19   46 1    
    38   20   21 2    
    39   20   22 1    
    40   22   23 1    
    41   22   28 1    
    42   22   24 1    
    43   24   25 1    
    44   24   47 1    
    45   24   48 1    
    46   25   26 1    
    47   25   49 1    
    48   25   50 1    
    49   26   27 1    
    50   26   51 1    
    51   26   52 1    
    52   27   28 1    
    53   27   53 1    
    54   27   54 1    
    55   28   29 1    
    56   28   30 1    
    57   30   31 2    
    58   30   55 1    
@<TRIPOS>SUBSTRUCTURE
     1 UNK         1 GROUP             0       ****    0 ROOT    
