@<TRIPOS>MOLECULE
ZINC26326641_835
66   68    1
SMALL
USER_CHARGES


@<TRIPOS>ATOM
      1 C1         10.3506   58.1691   12.8559 C.3       1 UNK         0.0000 
      2 C2          9.7933   57.1847   13.8674 C.ar      1 UNK         0.0000 
      3 C3         10.1454   57.2838   15.2064 C.ar      1 UNK         0.0000 
      4 C4          9.6411   56.3924   16.1581 C.ar      1 UNK         0.0000 
      5 C5          8.7033   55.3935   15.7745 C.ar      1 UNK         0.0000 
      6 C6          8.4009   55.2688   14.3928 C.ar      1 UNK         0.0000 
      7 C7          8.9267   56.1761   13.4688 C.ar      1 UNK         0.0000 
      8 C8          7.4699   54.2070   13.8219 C.3       1 UNK         0.0000 
      9 S9          8.1501   54.1109   16.9669 S.o2      1 UNK         0.0000 
     10 O10         9.0841   54.0962   18.0945 O.2       1 UNK         0.0000 
     11 O11         7.9625   52.8483   16.2452 O.2       1 UNK         0.0000 
     12 N12         6.5668   54.6382   17.5925 N.pl3     1 UNK         0.0000 
     13 C13         5.3141   54.2634   16.8873 C.3       1 UNK         0.0000 
     14 C14         4.7991   55.6128   16.3990 C.3       1 UNK         0.0000 
     15 C15         5.0999   56.5461   17.5587 C.3       1 UNK         0.0000 
     16 C16         6.4253   56.0235   18.1537 C.3       1 UNK         0.0000 
     17 H17         7.2636   56.6520   17.8622 H         1 UNK         0.0000 
     18 C18         6.4097   56.0533   19.6983 C.2       1 UNK         0.0000 
     19 O19         6.7035   57.1073   20.2700 O.2       1 UNK         0.0000 
     20 N20         5.9040   54.9744   20.3392 N.am      1 UNK         0.0000 
     21 C21         5.7611   54.8071   21.7249 C.ar      1 UNK         0.0000 
     22 C22         4.6590   54.0967   22.2019 C.ar      1 UNK         0.0000 
     23 C23         4.4962   53.9087   23.5754 C.ar      1 UNK         0.0000 
     24 C24         5.4488   54.3906   24.4806 C.ar      1 UNK         0.0000 
     25 C25         6.5586   55.0931   23.9929 C.ar      1 UNK         0.0000 
     26 C26         6.7067   55.2965   22.6276 C.ar      1 UNK         0.0000 
     27 N27         5.2273   54.0982   25.8426 N.am      1 UNK         0.0000 
     28 C28         6.0159   54.3263   26.9172 C.2       1 UNK         0.0000 
     29 O29         7.1043   54.8965   26.8766 O.2       1 UNK         0.0000 
     30 C30         5.5405   53.7939   28.2811 C.3       1 UNK         0.0000 
     31 C31         4.0267   53.4858   28.4587 C.3       1 UNK         0.0000 
     32 C32         3.7817   52.7069   29.7648 C.3       1 UNK         0.0000 
     33 C33         3.1504   54.7557   28.4165 C.3       1 UNK         0.0000 
     34 C34        10.1533   56.5989   17.5829 C.3       1 UNK         0.0000 
     35 H35         9.7446   58.2008   11.9492 H         1 UNK         0.0000 
     36 H36        10.3546   59.1785   13.2680 H         1 UNK         0.0000 
     37 H37        11.3755   57.9062   12.5930 H         1 UNK         0.0000 
     38 H38        10.8384   58.0571   15.5057 H         1 UNK         0.0000 
     39 H39         8.6688   56.0915   12.4229 H         1 UNK         0.0000 
     40 H40         7.1010   54.4698   12.8292 H         1 UNK         0.0000 
     41 H41         7.9792   53.2442   13.7532 H         1 UNK         0.0000 
     42 H42         6.5857   54.0891   14.4389 H         1 UNK         0.0000 
     43 H43         4.6104   53.8654   17.6218 H         1 UNK         0.0000 
     44 H44         5.4187   53.4336   16.1873 H         1 UNK         0.0000 
     45 H45         3.7375   55.5858   16.1480 H         1 UNK         0.0000 
     46 H46         5.3374   55.9252   15.5023 H         1 UNK         0.0000 
     47 H47         4.2764   56.5274   18.2771 H         1 UNK         0.0000 
     48 H48         5.1935   57.5776   17.2140 H         1 UNK         0.0000 
     49 H49         5.5163   54.2475   19.7564 H         1 UNK         0.0000 
     50 H50         3.9187   53.7061   21.5179 H         1 UNK         0.0000 
     51 H51         3.6335   53.3617   23.9266 H         1 UNK         0.0000 
     52 H52         7.3309   55.4867   24.6313 H         1 UNK         0.0000 
     53 H53         7.5855   55.8216   22.2807 H         1 UNK         0.0000 
     54 H54         4.3791   53.5869   26.0290 H         1 UNK         0.0000 
     55 H55         5.8501   54.5083   29.0468 H         1 UNK         0.0000 
     56 H56         6.1247   52.8959   28.4818 H         1 UNK         0.0000 
     57 H57         3.7074   52.8218   27.6533 H         1 UNK         0.0000 
     58 H58         4.0730   53.2889   30.6389 H         1 UNK         0.0000 
     59 H59         4.3521   51.7770   29.7833 H         1 UNK         0.0000 
     60 H60         2.7295   52.4426   29.8775 H         1 UNK         0.0000 
     61 H61         3.4076   55.4435   29.2232 H         1 UNK         0.0000 
     62 H62         3.2593   55.2967   27.4765 H         1 UNK         0.0000 
     63 H63         2.0928   54.5097   28.5212 H         1 UNK         0.0000 
     64 H64        10.5894   57.5891   17.7233 H         1 UNK         0.0000 
     65 H65         9.3675   56.5258   18.3311 H         1 UNK         0.0000 
     66 H66        10.9164   55.8559   17.8191 H         1 UNK         0.0000 
@<TRIPOS>BOND
     1    1    2 1    
     2    1   35 1    
     3    1   36 1    
     4    1   37 1    
     5    2    7 ar   
     6    2    3 ar   
     7    3    4 ar   
     8    3   38 1    
     9    4    5 ar   
    10    4   34 1    
    11    5    6 ar   
    12    5    9 1    
    13    6    7 ar   
    14    6    8 1    
    15    7   39 1    
    16    8   40 1    
    17    8   41 1    
    18    8   42 1    
    19    9   10 2    
    20    9   11 2    
    21    9   12 1    
    22   12   16 1    
    23   12   13 1    
    24   13   14 1    
    25   13   43 1    
    26   13   44 1    
    27   14   15 1    
    28   14   45 1    
    29   14   46 1    
    30   15   16 1    
    31   15   47 1    
    32   15   48 1    
    33   16   17 1    
    34   16   18 1    
    35   18   19 2    
    36   18   20 am   BACKBONE|DICT|INTERRES
    37   20   21 1    
    38   20   49 1    
    39   21   26 ar   
    40   21   22 ar   
    41   22   23 ar   
    42   22   50 1    
    43   23   24 ar   
    44   23   51 1    
    45   24   25 ar   
    46   24   27 1    
    47   25   26 ar   
    48   25   52 1    
    49   26   53 1    
    50   27   28 am   BACKBONE|DICT|INTERRES
    51   27   54 1    
    52   28   29 2    
    53   28   30 1    
    54   30   31 1    
    55   30   55 1    
    56   30   56 1    
    57   31   32 1    
    58   31   33 1    
    59   31   57 1    
    60   32   58 1    
    61   32   59 1    
    62   32   60 1    
    63   33   61 1    
    64   33   62 1    
    65   33   63 1    
    66   34   64 1    
    67   34   65 1    
    68   34   66 1    
@<TRIPOS>SUBSTRUCTURE
     1 UNK         1 GROUP             0       ****    0 ROOT    
