@<TRIPOS>MOLECULE
ZINC64774544_560
57   60    1
SMALL
USER_CHARGES


@<TRIPOS>ATOM
      1 C1         -1.5608   45.2980   20.0516 C.3       1 UNK         0.0000 
      2 C2         -0.7562   46.2240   19.1581 C.ar      1 UNK         0.0000 
      3 C3         -0.5892   45.9392   17.8060 C.ar      1 UNK         0.0000 
      4 C4          0.1597   46.7840   16.9837 C.ar      1 UNK         0.0000 
      5 C5          0.7472   47.9523   17.5237 C.ar      1 UNK         0.0000 
      6 C6          0.6088   48.2287   18.9094 C.ar      1 UNK         0.0000 
      7 C7         -0.1565   47.3583   19.6981 C.ar      1 UNK         0.0000 
      8 C8          1.2822   49.3388   19.6287 C.ar      1 UNK         0.0000 
      9 C9          1.0658   50.7923   19.2572 C.ar      1 UNK         0.0000 
     10 O10         0.2147   51.0779   18.4155 O.2       1 UNK         0.0000 
     11 N11         1.8147   51.6963   19.9123 N.2       1 UNK         0.0000 
     12 C12         2.5801   51.3217   20.8786 C.ar      1 UNK         0.0000 
     13 N13         2.7147   50.0975   21.3069 N.ar      1 UNK         0.0000 
     14 N14         2.0837   49.0780   20.6313 N.ar      1 UNK         0.0000 
     15 S15         3.5900   52.5797   21.6820 S.3       1 UNK         0.0000 
     16 C16         2.4355   53.5413   22.7633 C.3       1 UNK         0.0000 
     17 H17         2.5167   54.5609   22.3870 H         1 UNK         0.0000 
     18 C18         0.9358   53.1701   22.6354 C.3       1 UNK         0.0000 
     19 C19         2.8547   53.6372   24.2695 C.2       1 UNK         0.0000 
     20 O20         2.0304   53.2604   25.1075 O.2       1 UNK         0.0000 
     21 N21         4.0625   54.1404   24.6702 N.am      1 UNK         0.0000 
     22 C22         5.1778   54.3591   23.7434 C.3       1 UNK         0.0000 
     23 C23         6.3723   54.7916   24.5824 C.3       1 UNK         0.0000 
     24 C24         5.9585   54.3846   25.9657 C.ar      1 UNK         0.0000 
     25 C25         4.5923   54.0927   25.9843 C.ar      1 UNK         0.0000 
     26 C26         3.9451   53.9049   27.2171 C.ar      1 UNK         0.0000 
     27 C27         4.6847   53.8840   28.3990 C.ar      1 UNK         0.0000 
     28 C28         6.0608   54.0973   28.3630 C.ar      1 UNK         0.0000 
     29 C29         6.6932   54.3801   27.1532 C.ar      1 UNK         0.0000 
     30 N30         1.5043   48.8027   16.6918 N.am      1 UNK         0.0000 
     31 C31         0.9786   49.5864   15.7281 C.2       1 UNK         0.0000 
     32 O32        -0.2130   49.6008   15.4132 O.2       1 UNK         0.0000 
     33 C33         1.9480   50.5153   15.0091 C.3       1 UNK         0.0000 
     34 C34         0.3506   46.3702   15.5268 C.3       1 UNK         0.0000 
     35 H35        -1.9245   44.4199   19.5156 H         1 UNK         0.0000 
     36 H36        -0.9449   44.9590   20.8863 H         1 UNK         0.0000 
     37 H37        -2.4158   45.8316   20.4703 H         1 UNK         0.0000 
     38 H38        -1.0393   45.0491   17.3899 H         1 UNK         0.0000 
     39 H39        -0.2803   47.5542   20.7548 H         1 UNK         0.0000 
     40 H40         0.3062   53.7841   23.2822 H         1 UNK         0.0000 
     41 H41         0.5901   53.2967   21.6123 H         1 UNK         0.0000 
     42 H42         0.7568   52.1309   22.9145 H         1 UNK         0.0000 
     43 H43         5.4431   53.3563   23.4061 H         1 UNK         0.0000 
     44 H44         4.9882   54.8985   22.8160 H         1 UNK         0.0000 
     45 H45         7.3040   54.3590   24.2147 H         1 UNK         0.0000 
     46 H46         6.4912   55.8741   24.5185 H         1 UNK         0.0000 
     47 H47         2.8816   53.7387   27.2859 H         1 UNK         0.0000 
     48 H48         4.1912   53.7026   29.3418 H         1 UNK         0.0000 
     49 H49         6.6338   54.0909   29.2806 H         1 UNK         0.0000 
     50 H50         7.7489   54.5929   27.1631 H         1 UNK         0.0000 
     51 H51         2.5034   48.9000   16.8818 H         1 UNK         0.0000 
     52 H52         2.9259   50.0526   14.8816 H         1 UNK         0.0000 
     53 H53         2.0762   51.4305   15.5882 H         1 UNK         0.0000 
     54 H54         1.5648   50.7817   14.0239 H         1 UNK         0.0000 
     55 H55         0.1318   45.3133   15.3703 H         1 UNK         0.0000 
     56 H56        -0.2879   46.9617   14.8720 H         1 UNK         0.0000 
     57 H57         1.3847   46.5212   15.2191 H         1 UNK         0.0000 
@<TRIPOS>BOND
     1    1    2 1    
     2    1   35 1    
     3    1   36 1    
     4    1   37 1    
     5    2    7 ar   
     6    2    3 ar   
     7    3    4 ar   
     8    3   38 1    
     9    4    5 ar   
    10    4   34 1    
    11    5    6 ar   
    12    5   30 1    
    13    6    7 ar   
    14    6    8 1    
    15    7   39 1    
    16    8   14 ar   
    17    8    9 ar   
    18    9   10 2    
    19    9   11 ar   
    20   11   12 ar   
    21   12   15 1    
    22   12   13 ar   
    23   13   14 ar   
    24   15   16 1    
    25   16   17 1    
    26   16   18 1    
    27   16   19 1    
    28   18   40 1    
    29   18   41 1    
    30   18   42 1    
    31   19   20 2    
    32   19   21 am   BACKBONE|DICT|INTERRES
    33   21   25 1    
    34   21   22 1    
    35   22   23 1    
    36   22   43 1    
    37   22   44 1    
    38   23   24 1    
    39   23   45 1    
    40   23   46 1    
    41   24   29 ar   
    42   24   25 ar   
    43   25   26 ar   
    44   26   27 ar   
    45   26   47 1    
    46   27   28 ar   
    47   27   48 1    
    48   28   29 ar   
    49   28   49 1    
    50   29   50 1    
    51   30   31 am   BACKBONE|DICT|INTERRES
    52   30   51 1    
    53   31   32 2    
    54   31   33 1    
    55   33   52 1    
    56   33   53 1    
    57   33   54 1    
    58   34   55 1    
    59   34   56 1    
    60   34   57 1    
@<TRIPOS>SUBSTRUCTURE
     1 UNK         1 GROUP             0       ****    0 ROOT    
