@<TRIPOS>MOLECULE
ZINC13266507_5939
47   50    1
SMALL
USER_CHARGES


@<TRIPOS>ATOM
      1 C1         -0.9997   51.9509   21.7131 C.ar      1 UNK         0.0000 
      2 C2         -1.2531   51.6970   20.3676 C.ar      1 UNK         0.0000 
      3 C3         -0.2432   51.1856   19.5568 C.ar      1 UNK         0.0000 
      4 C4          1.0179   50.9108   20.0800 C.ar      1 UNK         0.0000 
      5 C5          1.2716   51.1427   21.4293 C.ar      1 UNK         0.0000 
      6 C6          0.2628   51.6662   22.2524 C.ar      1 UNK         0.0000 
      7 N7          0.5130   51.8755   23.6360 N.pl3     1 UNK         0.0000 
      8 C8          1.3921   52.9026   23.9455 C.ar      1 UNK         0.0000 
      9 O9          1.8501   53.7049   23.1253 O.2       1 UNK         0.0000 
     10 C10         1.7487   52.9640   25.4130 C.ar      1 UNK         0.0000 
     11 C11         2.7042   53.8671   25.8837 C.ar      1 UNK         0.0000 
     12 C12         3.0178   53.8812   27.2418 C.ar      1 UNK         0.0000 
     13 C13         2.3930   53.0004   28.1408 C.ar      1 UNK         0.0000 
     14 C14         1.4174   52.1153   27.6485 C.ar      1 UNK         0.0000 
     15 C15         1.1041   52.0975   26.2908 C.ar      1 UNK         0.0000 
     16 N16         0.1505   51.1865   25.8351 N.2       1 UNK         0.0000 
     17 C17        -0.0985   51.0470   24.5811 C.ar      1 UNK         0.0000 
     18 S18        -1.2753   49.7365   24.0939 S.3       1 UNK         0.0000 
     19 C19        -1.9230   49.1096   25.6816 C.3       1 UNK         0.0000 
     20 C20        -3.2310   49.7811   26.1213 C.2       1 UNK         0.0000 
     21 O21        -4.1435   49.9464   25.3106 O.2       1 UNK         0.0000 
     22 N22        -3.2957   50.0967   27.4291 N.am      1 UNK         0.0000 
     23 C23        -4.3733   50.6196   28.1599 C.ar      1 UNK         0.0000 
     24 C24        -4.4952   50.1560   29.4749 C.ar      1 UNK         0.0000 
     25 C25        -5.4946   50.6548   30.3100 C.ar      1 UNK         0.0000 
     26 C26        -6.3797   51.6209   29.8369 C.ar      1 UNK         0.0000 
     27 C27        -6.2616   52.0965   28.5325 C.ar      1 UNK         0.0000 
     28 C28        -5.2491   51.6220   27.6963 C.ar      1 UNK         0.0000 
     29 F29        -5.1127   52.1845   26.4729 F         1 UNK         0.0000 
     30 F30        -7.3313   52.1245   30.6541 F         1 UNK         0.0000 
     31 C31         2.7761   53.0061   29.5898 C.2       1 UNK         0.0000 
     32 O32         3.1513   54.0964   30.0818 O.co2     1 UNK         0.0000 
     33 F33        -0.4946   50.9498   18.2497 F         1 UNK         0.0000 
     34 H34        -1.7859   52.3442   22.3416 H         1 UNK         0.0000 
     35 H35        -2.2279   51.8920   19.9479 H         1 UNK         0.0000 
     36 H36         1.7937   50.5142   19.4407 H         1 UNK         0.0000 
     37 H37         2.2490   50.9180   21.8322 H         1 UNK         0.0000 
     38 H38         3.2101   54.5489   25.2132 H         1 UNK         0.0000 
     39 H39         3.7657   54.5763   27.5990 H         1 UNK         0.0000 
     40 H40         0.9191   51.4245   28.3143 H         1 UNK         0.0000 
     41 H41        -1.1613   49.1563   26.4607 H         1 UNK         0.0000 
     42 H42        -2.1455   48.0517   25.5535 H         1 UNK         0.0000 
     43 H43        -2.5769   49.6317   27.9889 H         1 UNK         0.0000 
     44 H44        -3.8050   49.4148   29.8611 H         1 UNK         0.0000 
     45 H45        -5.5736   50.2990   31.3273 H         1 UNK         0.0000 
     46 H46        -6.9355   52.8614   28.1781 H         1 UNK         0.0000 
     47 O47         2.7106   51.9250   30.2211 O.co2     1 UNK         0.0000 
@<TRIPOS>BOND
     1    1    6 ar   
     2    1    2 ar   
     3    1   34 1    
     4    2    3 ar   
     5    2   35 1    
     6    3    4 ar   
     7    3   33 1    
     8    4    5 ar   
     9    4   36 1    
    10    5    6 ar   
    11    5   37 1    
    12    6    7 1    
    13    7   17 ar   
    14    7    8 ar   
    15    8    9 2    
    16    8   10 ar   
    17   10   15 ar   
    18   10   11 ar   
    19   11   12 ar   
    20   11   38 1    
    21   12   13 ar   
    22   12   39 1    
    23   13   14 ar   
    24   13   31 1    
    25   14   15 ar   
    26   14   40 1    
    27   15   16 ar   
    28   16   17 ar   
    29   17   18 1    
    30   18   19 1    
    31   19   20 1    
    32   19   41 1    
    33   19   42 1    
    34   20   21 2    
    35   20   22 am   BACKBONE|DICT|INTERRES
    36   22   23 1    
    37   22   43 1    
    38   23   28 ar   
    39   23   24 ar   
    40   24   25 ar   
    41   24   44 1    
    42   25   26 ar   
    43   25   45 1    
    44   26   27 ar   
    45   26   30 1    
    46   27   28 ar   
    47   27   46 1    
    48   28   29 1    
    49   31   32 2    
    50   31   47 1    
@<TRIPOS>SUBSTRUCTURE
     1 UNK         1 GROUP             0       ****    0 ROOT    
