ZINC12616555_930
                    3D
 Schrodinger Suite 2024-2.
 63 66  0  0  1  0            999 V2000
    2.4508   41.7728   18.7010 C   0  0  0  0  0  0
    1.0882   42.4473   18.8044 C   0  0  0  0  0  0
    0.3045   42.0968   19.6850 O   0  0  0  0  0  0
    0.7983   43.3804   17.8836 N   0  0  0  0  0  0
   -0.4795   44.0864   17.7382 C   0  0  0  0  0  0
   -0.9907   44.8039   18.9850 C   0  0  0  0  0  0
   -2.0297   44.2490   19.7367 C   0  0  0  0  0  0
   -2.5051   44.9113   20.8659 C   0  0  0  0  0  0
   -1.9555   46.1382   21.2511 C   0  0  0  0  0  0
   -0.9360   46.7041   20.4726 C   0  0  0  0  0  0
   -0.4599   46.0440   19.3424 C   0  0  0  0  0  0
   -2.4585   46.8346   22.4798 C   0  0  0  0  0  0
   -3.7456   46.7249   23.0189 C   0  0  0  0  0  0
   -3.9142   47.7627   24.4026 S   0  0  0  0  0  0
   -2.2602   48.2504   24.1563 C   0  0  0  0  0  0
   -1.6661   47.6588   23.1512 N   0  0  0  0  0  0
   -1.5773   49.1772   24.9334 N   0  0  0  0  0  0
   -2.0921   50.0976   25.7831 C   0  0  0  0  0  0
   -3.2947   50.2579   25.9996 O   0  0  0  0  0  0
   -1.0755   50.9954   26.4611 C   0  0  0  0  0  0
   -1.3937   51.6345   27.6679 C   0  0  0  0  0  0
   -0.4829   52.4955   28.2787 C   0  0  0  0  0  0
    0.7672   52.7286   27.6958 C   0  0  0  0  0  0
    1.0958   52.0733   26.5107 C   0  0  0  0  0  0
    0.1845   51.2273   25.8914 C   0  0  0  0  0  0
    1.9029   53.8893   28.4922 S   0  0  0  0  0  0
    1.3278   55.2257   28.3131 O   0  0  0  0  0  0
    2.1049   53.3744   29.8537 O   0  0  0  0  0  0
    3.4946   53.8770   27.6607 N   0  0  0  0  0  0
    4.6696   54.0821   28.5488 C   0  0  0  0  0  0
    5.9962   53.5210   28.0274 C   0  0  0  0  0  0
    6.7067   54.4452   27.0303 C   0  0  0  0  0  0
    6.0589   54.5450   25.6479 C   0  0  0  0  0  0
    4.6249   55.0998   25.6414 C   0  0  0  0  0  0
    3.5273   54.1654   26.1912 C   0  0  0  0  0  0
    3.2348   42.4954   18.4658 H   0  0  0  0  0  0
    2.4387   41.0148   17.9173 H   0  0  0  0  0  0
    2.7151   41.2870   19.6446 H   0  0  0  0  0  0
    1.4913   43.5747   17.1762 H   0  0  0  0  0  0
   -0.3647   44.8268   16.9448 H   0  0  0  0  0  0
   -1.2339   43.3914   17.3640 H   0  0  0  0  0  0
   -2.4597   43.2999   19.4541 H   0  0  0  0  0  0
   -3.2991   44.4612   21.4420 H   0  0  0  0  0  0
   -0.5082   47.6590   20.7395 H   0  0  0  0  0  0
    0.3303   46.4893   18.7544 H   0  0  0  0  0  0
   -4.5827   46.1413   22.6641 H   0  0  0  0  0  0
   -0.5803   49.2060   24.7968 H   0  0  0  0  0  0
   -2.3491   51.4596   28.1437 H   0  0  0  0  0  0
   -0.7442   52.9731   29.2126 H   0  0  0  0  0  0
    2.0487   52.1910   26.0377 H   0  0  0  0  0  0
    0.4784   50.7628   24.9612 H   0  0  0  0  0  0
    4.7499   55.1410   28.7971 H   0  0  0  0  0  0
    4.4647   53.5766   29.4920 H   0  0  0  0  0  0
    6.6650   53.4012   28.8807 H   0  0  0  0  0  0
    5.8601   52.5206   27.6166 H   0  0  0  0  0  0
    6.7901   55.4438   27.4599 H   0  0  0  0  0  0
    7.7315   54.0950   26.9041 H   0  0  0  0  0  0
    6.0774   53.5702   25.1624 H   0  0  0  0  0  0
    6.6850   55.1882   25.0260 H   0  0  0  0  0  0
    4.3790   55.2811   24.5938 H   0  0  0  0  0  0
    4.5862   56.0911   26.0817 H   0  0  0  0  0  0
    3.7688   53.2217   25.7039 H   0  0  0  0  0  0
    2.5372   54.4801   25.8575 H   0  0  0  0  0  0
  1  2  1  0  0  0
  1 36  1  0  0  0
  1 37  1  0  0  0
  1 38  1  0  0  0
  2  3  2  0  0  0
  2  4  1  0  0  0
  4  5  1  0  0  0
  4 39  1  0  0  0
  5  6  1  0  0  0
  5 40  1  0  0  0
  5 41  1  0  0  0
  6 11  2  0  0  0
  6  7  1  0  0  0
  7  8  2  0  0  0
  7 42  1  0  0  0
  8  9  1  0  0  0
  8 43  1  0  0  0
  9 10  2  0  0  0
  9 12  1  0  0  0
 10 11  1  0  0  0
 10 44  1  0  0  0
 11 45  1  0  0  0
 12 16  1  0  0  0
 12 13  2  0  0  0
 13 14  1  0  0  0
 13 46  1  0  0  0
 14 15  1  0  0  0
 15 16  2  0  0  0
 15 17  1  0  0  0
 17 18  1  0  0  0
 17 47  1  0  0  0
 18 19  2  0  0  0
 18 20  1  0  0  0
 20 25  2  0  0  0
 20 21  1  0  0  0
 21 22  2  0  0  0
 21 48  1  0  0  0
 22 23  1  0  0  0
 22 49  1  0  0  0
 23 24  2  0  0  0
 23 26  1  0  0  0
 24 25  1  0  0  0
 24 50  1  0  0  0
 25 51  1  0  0  0
 26 27  2  0  0  0
 26 28  2  0  0  0
 26 29  1  0  0  0
 29 35  1  0  0  0
 29 30  1  0  0  0
 30 31  1  0  0  0
 30 52  1  0  0  0
 30 53  1  0  0  0
 31 32  1  0  0  0
 31 54  1  0  0  0
 31 55  1  0  0  0
 32 33  1  0  0  0
 32 56  1  0  0  0
 32 57  1  0  0  0
 33 34  1  0  0  0
 33 58  1  0  0  0
 33 59  1  0  0  0
 34 35  1  0  0  0
 34 60  1  0  0  0
 34 61  1  0  0  0
 35 62  1  0  0  0
 35 63  1  0  0  0
M  END
> <i_i_glide_confnum>
174

> <i_i_glide_lignum>
931

> <i_i_glide_posenum>
177

> <i_i_glide_rotatable_bonds>
9

> <i_m_Source_File_Index>
1518

> <b_m_subgroup_collapsed>
0

> <r_i_docking_score>
-2.53645

> <r_i_glide_ecoul>
-6.65727

> <r_i_glide_eff_state_penalty>
0

> <r_i_glide_einternal>
6.98132

> <r_i_glide_emodel>
-45.9331

> <r_i_glide_energy>
-49.2289

> <r_i_glide_erotb>
0.624063

> <r_i_glide_esite>
-0.191131

> <r_i_glide_evdw>
-42.5716

> <r_i_glide_gscore>
-2.53645

> <r_i_glide_hbond>
-0.251713

> <r_i_glide_ligand_efficiency>
-0.07247

> <r_i_glide_ligand_efficiency_ln>
-0.556807

> <r_i_glide_ligand_efficiency_sa>
-0.237054

> <r_i_glide_lipo>
-2.03527

> <r_i_glide_metal>
0

> <r_i_glide_rewards>
2.44477

> <s_i_glide_gridfile>
wee1_glide-grid

> <s_m_Source_File>
wee1_decoys_glide_SP.sdf

> <s_m_Source_Path>
/Users/zhangxujun/Desktop

> <s_m_entry_id>
1793

> <s_m_entry_name>
wee1_decoys_glide_SP.1518

> <s_m_subgroup_title>
wee1_decoys_glide_SP

> <s_m_subgroupid>
wee1_decoys_glide_SP


$$$$
