@<TRIPOS>MOLECULE
ZINC01062035_1396
43   45    1
SMALL
USER_CHARGES


@<TRIPOS>ATOM
      1 C1          1.4810   53.9719   23.1248 C.3       1 UNK         0.0000 
      2 O2          2.6525   54.4830   23.7409 O.3       1 UNK         0.0000 
      3 C3          2.9419   54.0969   25.0342 C.ar      1 UNK         0.0000 
      4 C4          2.0517   53.3771   25.8511 C.ar      1 UNK         0.0000 
      5 C5          2.4176   52.9306   27.1268 C.ar      1 UNK         0.0000 
      6 C6          3.6902   53.2969   27.5827 C.ar      1 UNK         0.0000 
      7 C7          4.5917   54.0415   26.8094 C.ar      1 UNK         0.0000 
      8 C8          4.2093   54.4267   25.5264 C.ar      1 UNK         0.0000 
      9 O9          5.1044   55.1132   24.7407 O.3       1 UNK         0.0000 
     10 C10         5.9847   54.2816   23.9963 C.3       1 UNK         0.0000 
     11 O11         5.8749   54.3793   27.2051 O.3       1 UNK         0.0000 
     12 C12         6.3870   53.8745   28.4293 C.3       1 UNK         0.0000 
     13 C13         1.5478   51.9126   27.9177 C.3       1 UNK         0.0000 
     14 H14         2.2089   51.0453   27.9205 H         1 UNK         0.0000 
     15 C15         1.2168   52.2214   29.3952 C.ar      1 UNK         0.0000 
     16 C16         1.9177   52.2871   30.6215 C.ar      1 UNK         0.0000 
     17 N17         1.1310   52.4968   31.6584 N.2       1 UNK         0.0000 
     18 N18        -0.0956   52.4967   31.1674 N.pl3     1 UNK         0.0000 
     19 H19        -0.9031   52.4038   31.7901 H         1 UNK         0.0000 
     20 C20        -0.0915   52.3163   29.8178 C.ar      1 UNK         0.0000 
     21 O21        -1.2298   52.0966   29.0934 O.3       1 UNK         0.0000 
     22 C22        -0.9901   51.6057   27.8452 C.2       1 UNK         0.0000 
     23 C23         0.2238   51.4486   27.2531 C.2       1 UNK         0.0000 
     24 C24         0.2872   50.8014   25.9798 C.1       1 UNK         0.0000 
     25 N25         0.3046   50.3147   24.9301 N.1       1 UNK         0.0000 
     26 N26        -2.2000   51.2438   27.3225 N.pl3     1 UNK         0.0000 
     27 C27         3.3843   52.1504   30.8648 C.3       1 UNK         0.0000 
     28 F28         3.6773   51.6967   32.0817 F         1 UNK         0.0000 
     29 F29         3.9480   53.3361   30.7222 F         1 UNK         0.0000 
     30 F30         3.9045   51.3021   29.9904 F         1 UNK         0.0000 
     31 H31         1.4771   54.2684   22.0817 H         1 UNK         0.0000 
     32 H32         1.4499   52.8811   23.1495 H         1 UNK         0.0000 
     33 H33         0.5832   54.3688   23.6001 H         1 UNK         0.0000 
     34 H34         1.0777   53.1264   25.4684 H         1 UNK         0.0000 
     35 H35         4.0293   52.9406   28.5211 H         1 UNK         0.0000 
     36 H36         6.6245   54.9022   23.3687 H         1 UNK         0.0000 
     37 H37         6.6318   53.6966   24.6520 H         1 UNK         0.0000 
     38 H38         5.4386   53.5980   23.3432 H         1 UNK         0.0000 
     39 H39         7.4510   54.0966   28.5009 H         1 UNK         0.0000 
     40 H40         5.8874   54.3394   29.2789 H         1 UNK         0.0000 
     41 H41         6.2844   52.7912   28.4816 H         1 UNK         0.0000 
     42 H42        -2.2128   50.7608   26.4362 H         1 UNK         0.0000 
     43 H43        -2.9266   50.9717   27.9682 H         1 UNK         0.0000 
@<TRIPOS>BOND
     1    1    2 1    
     2    1   31 1    
     3    1   32 1    
     4    1   33 1    
     5    2    3 1    
     6    3    8 ar   
     7    3    4 ar   
     8    4    5 ar   
     9    4   34 1    
    10    5    6 ar   
    11    5   13 1    
    12    6    7 ar   
    13    6   35 1    
    14    7    8 ar   
    15    7   11 1    
    16    8    9 1    
    17    9   10 1    
    18   10   36 1    
    19   10   37 1    
    20   10   38 1    
    21   11   12 1    
    22   12   39 1    
    23   12   40 1    
    24   12   41 1    
    25   13   14 1    
    26   13   23 1    
    27   13   15 1    
    28   15   20 ar   
    29   15   16 ar   
    30   16   17 ar   
    31   16   27 1    
    32   17   18 ar   
    33   18   19 1    
    34   18   20 ar   
    35   20   21 1    
    36   21   22 1    
    37   22   23 2    
    38   22   26 1    
    39   23   24 1    
    40   24   25 3    
    41   26   42 1    
    42   26   43 1    
    43   27   28 1    
    44   27   29 1    
    45   27   30 1    
@<TRIPOS>SUBSTRUCTURE
     1 UNK         1 GROUP             0       ****    0 ROOT    
