ZINC37289433_1629
                    3D
 Schrodinger Suite 2024-2.
 40 41  0  0  1  0            999 V2000
    3.4691   53.4319   21.7225 C   0  0  0  0  0  0
    3.1288   53.3922   23.2198 C   0  0  2  0  0  0
    3.5044   52.4967   23.6574 H   0  0  0  0  0  0
    1.6119   53.4089   23.4885 C   0  0  0  0  0  0
    1.0865   54.4967   23.6817 O   0  0  0  0  0  0
    0.9454   52.2394   23.7021 N   0  0  0  0  0  0
    1.3856   50.9447   23.1433 C   0  0  0  0  0  0
    0.5688   50.6989   21.8535 C   0  0  0  0  0  0
   -0.9511   50.7515   22.1128 C   0  0  0  0  0  0
   -1.3467   52.0289   22.8817 C   0  0  0  0  0  0
   -0.4669   52.2507   24.1339 C   0  0  0  0  0  0
    3.7916   54.5191   23.8080 O   0  0  0  0  0  0
    4.4049   54.3586   25.0390 C   0  0  0  0  0  0
    3.6523   54.0967   26.1929 C   0  0  0  0  0  0
    4.2638   53.9855   27.4548 C   0  0  0  0  0  0
    5.6559   54.1341   27.5367 C   0  0  0  0  0  0
    6.4146   54.3937   26.3955 C   0  0  0  0  0  0
    5.7970   54.5147   25.1503 C   0  0  0  0  0  0
    6.5789   54.7860   24.0230 N   0  0  0  0  0  0
    3.4507   53.7154   28.6875 C   0  0  0  0  0  0
    3.9039   54.0967   29.7942 O   0  0  0  0  0  0
    2.3593   53.1195   28.5428 O   0  5  0  0  0  0
    2.9932   52.6226   21.1684 H   0  0  0  0  0  0
    3.1497   54.3757   21.2809 H   0  0  0  0  0  0
    4.5447   53.3456   21.5675 H   0  0  0  0  0  0
    1.1398   50.1852   23.8875 H   0  0  0  0  0  0
    2.4612   50.8344   23.0191 H   0  0  0  0  0  0
    0.8362   49.7282   21.4349 H   0  0  0  0  0  0
    0.8458   51.4323   21.0947 H   0  0  0  0  0  0
   -1.4978   50.6916   21.1709 H   0  0  0  0  0  0
   -1.2462   49.8765   22.6943 H   0  0  0  0  0  0
   -1.2761   52.8967   22.2269 H   0  0  0  0  0  0
   -2.3941   51.9708   23.1794 H   0  0  0  0  0  0
   -0.5904   51.4185   24.8290 H   0  0  0  0  0  0
   -0.7230   53.1311   24.7262 H   0  0  0  0  0  0
    2.5793   53.9984   26.1090 H   0  0  0  0  0  0
    6.1581   54.0538   28.4914 H   0  0  0  0  0  0
    7.4844   54.4966   26.4910 H   0  0  0  0  0  0
    7.5854   54.8840   24.0835 H   0  0  0  0  0  0
    6.1002   54.8851   23.1390 H   0  0  0  0  0  0
  1  2  1  0  0  0
  1 23  1  0  0  0
  1 24  1  0  0  0
  1 25  1  0  0  0
  2  3  1  0  0  0
  2  4  1  0  0  0
  2 12  1  0  0  0
  4  5  2  0  0  0
  4  6  1  0  0  0
  6 11  1  0  0  0
  6  7  1  0  0  0
  7  8  1  0  0  0
  7 26  1  0  0  0
  7 27  1  0  0  0
  8  9  1  0  0  0
  8 28  1  0  0  0
  8 29  1  0  0  0
  9 10  1  0  0  0
  9 30  1  0  0  0
  9 31  1  0  0  0
 10 11  1  0  0  0
 10 32  1  0  0  0
 10 33  1  0  0  0
 11 34  1  0  0  0
 11 35  1  0  0  0
 12 13  1  0  0  0
 13 18  2  0  0  0
 13 14  1  0  0  0
 14 15  2  0  0  0
 14 36  1  0  0  0
 15 16  1  0  0  0
 15 20  1  0  0  0
 16 17  2  0  0  0
 16 37  1  0  0  0
 17 18  1  0  0  0
 17 38  1  0  0  0
 18 19  1  0  0  0
 19 39  1  0  0  0
 19 40  1  0  0  0
 20 21  2  0  0  0
 20 22  1  0  0  0
M  CHG  1  22  -1
M  END
> <i_i_glide_confnum>
14

> <i_i_glide_lignum>
1630

> <i_i_glide_posenum>
390

> <i_i_glide_rotatable_bonds>
5

> <i_m_Source_File_Index>
4617

> <b_m_subgroup_collapsed>
0

> <r_i_docking_score>
-6.12576

> <r_i_glide_ecoul>
-4.83786

> <r_i_glide_eff_state_penalty>
0

> <r_i_glide_einternal>
3.41573

> <r_i_glide_emodel>
-47.554

> <r_i_glide_energy>
-34.22

> <r_i_glide_erotb>
0.644731

> <r_i_glide_esite>
0

> <r_i_glide_evdw>
-29.3822

> <r_i_glide_gscore>
-6.12576

> <r_i_glide_hbond>
-0.33392

> <r_i_glide_ligand_efficiency>
-0.291703

> <r_i_glide_ligand_efficiency_ln>
-1.51458

> <r_i_glide_ligand_efficiency_sa>
-0.804786

> <r_i_glide_lipo>
-2.09325

> <r_i_glide_metal>
0

> <r_i_glide_rewards>
-2.14853

> <s_i_glide_gridfile>
wee1_glide-grid

> <s_m_Source_File>
wee1_decoys_glide_SP.sdf

> <s_m_Source_Path>
/Users/zhangxujun/Desktop

> <s_m_entry_id>
4892

> <s_m_entry_name>
wee1_decoys_glide_SP.4617

> <s_m_subgroup_title>
wee1_decoys_glide_SP

> <s_m_subgroupid>
wee1_decoys_glide_SP


$$$$
