ZINC38965547_1158
                    3D
 Schrodinger Suite 2024-2.
 44 47  0  0  1  0            999 V2000
   -4.5179   51.7574   26.6139 C   0  0  0  0  0  0
   -4.4017   52.6975   25.4966 C   0  0  0  0  0  0
   -3.2020   52.8968   24.9002 C   0  0  0  0  0  0
   -1.9975   52.2095   25.3174 C   0  0  0  0  0  0
   -0.8462   52.4232   24.7759 N   0  0  0  0  0  0
    0.3161   51.7510   25.1761 C   0  0  0  0  0  0
    1.5043   51.9946   24.7851 N   0  0  0  0  0  0
    1.8627   53.2762   23.6301 S   0  0  0  0  0  0
    2.2594   52.8296   22.2902 O   0  0  0  0  0  0
    1.0607   54.4966   23.6820 O   0  0  0  0  0  0
    3.4116   53.8414   24.3643 C   0  0  0  0  0  0
    3.4891   54.0825   25.7405 C   0  0  0  0  0  0
    4.6907   54.4995   26.3089 C   0  0  0  0  0  0
    5.8056   54.7021   25.4992 C   0  0  0  0  0  0
    5.7295   54.4971   24.1242 C   0  0  0  0  0  0
    4.5305   54.0747   23.5540 C   0  0  0  0  0  0
    6.9699   55.1097   26.0519 F   0  0  0  0  0  0
    0.1616   50.5391   26.1660 C   0  0  1  0  0  0
    0.8610   50.7073   26.9855 H   0  0  0  0  0  0
   -1.1688   50.4967   26.8630 N   0  3  0  0  0  0
   -2.2107   51.2149   26.4703 C   0  0  0  0  0  0
   -3.4552   51.0489   27.0783 C   0  0  0  0  0  0
    0.5399   49.2346   25.5974 N   0  0  0  0  0  0
   -0.3260   48.6901   24.6284 C   0  0  0  0  0  0
   -1.2926   47.7629   25.0373 C   0  0  0  0  0  0
   -2.1707   47.1996   24.1127 C   0  0  0  0  0  0
   -2.0773   47.5436   22.7654 C   0  0  0  0  0  0
   -1.1038   48.4475   22.3436 C   0  0  0  0  0  0
   -0.2221   49.0132   23.2655 C   0  0  0  0  0  0
    0.7374   49.8532   22.8151 F   0  0  0  0  0  0
   -3.2725   46.7693   21.5023 Br  0  0  0  0  0  0
   -5.4825   51.6216   27.0833 H   0  0  0  0  0  0
   -5.2764   53.2280   25.1450 H   0  0  0  0  0  0
   -3.1536   53.5985   24.0797 H   0  0  0  0  0  0
    2.6258   53.9330   26.3726 H   0  0  0  0  0  0
    4.7628   54.6705   27.3737 H   0  0  0  0  0  0
    6.5992   54.6653   23.5064 H   0  0  0  0  0  0
    4.4775   53.9197   22.4850 H   0  0  0  0  0  0
   -3.5629   50.3524   27.9012 H   0  0  0  0  0  0
    0.6701   48.5648   26.3473 H   0  0  0  0  0  0
   -1.3769   47.4892   26.0815 H   0  0  0  0  0  0
   -2.9243   46.5018   24.4440 H   0  0  0  0  0  0
   -1.0182   48.7039   21.2980 H   0  0  0  0  0  0
   -1.2956   49.7926   27.6019 H   0  0  0  0  0  0
  1 22  2  0  0  0
  1  2  1  0  0  0
  1 32  1  0  0  0
  2  3  2  0  0  0
  2 33  1  0  0  0
  3  4  1  0  0  0
  3 34  1  0  0  0
  4 21  1  0  0  0
  4  5  2  0  0  0
  5  6  1  0  0  0
  6  7  2  0  0  0
  6 18  1  0  0  0
  7  8  1  0  0  0
  8  9  2  0  0  0
  8 10  2  0  0  0
  8 11  1  0  0  0
 11 16  2  0  0  0
 11 12  1  0  0  0
 12 13  2  0  0  0
 12 35  1  0  0  0
 13 14  1  0  0  0
 13 36  1  0  0  0
 14 15  2  0  0  0
 14 17  1  0  0  0
 15 16  1  0  0  0
 15 37  1  0  0  0
 16 38  1  0  0  0
 18 19  1  0  0  0
 18 20  1  0  0  0
 18 23  1  0  0  0
 20 21  2  0  0  0
 20 44  1  0  0  0
 21 22  1  0  0  0
 22 39  1  0  0  0
 23 24  1  0  0  0
 23 40  1  0  0  0
 24 29  2  0  0  0
 24 25  1  0  0  0
 25 26  2  0  0  0
 25 41  1  0  0  0
 26 27  1  0  0  0
 26 42  1  0  0  0
 27 28  2  0  0  0
 27 31  1  0  0  0
 28 29  1  0  0  0
 28 43  1  0  0  0
 29 30  1  0  0  0
M  CHG  1  20   1
M  END
> <i_i_glide_confnum>
11

> <i_i_glide_lignum>
1159

> <i_i_glide_posenum>
314

> <i_i_glide_rotatable_bonds>
4

> <i_m_Source_File_Index>
3126

> <b_m_subgroup_collapsed>
0

> <r_i_docking_score>
-4.6247

> <r_i_glide_ecoul>
-5.20886

> <r_i_glide_eff_state_penalty>
0

> <r_i_glide_einternal>
11.9483

> <r_i_glide_emodel>
-48.3668

> <r_i_glide_energy>
-42.4699

> <r_i_glide_erotb>
0.25205

> <r_i_glide_esite>
-0.205176

> <r_i_glide_evdw>
-37.261

> <r_i_glide_gscore>
-4.6247

> <r_i_glide_hbond>
-0.284464

> <r_i_glide_ligand_efficiency>
-0.154157

> <r_i_glide_ligand_efficiency_ln>
-1.05078

> <r_i_glide_ligand_efficiency_sa>
-0.479001

> <r_i_glide_lipo>
-1.79622

> <r_i_glide_metal>
0

> <r_i_glide_rewards>
0.0534917

> <s_i_glide_gridfile>
wee1_glide-grid

> <s_m_Source_File>
wee1_decoys_glide_SP.sdf

> <s_m_Source_Path>
/Users/zhangxujun/Desktop

> <s_m_entry_id>
3401

> <s_m_entry_name>
wee1_decoys_glide_SP.3126

> <s_m_subgroup_title>
wee1_decoys_glide_SP

> <s_m_subgroupid>
wee1_decoys_glide_SP


$$$$
