ZINC28250035_4436
                    3D
 Schrodinger Suite 2024-2.
 56 59  0  0  1  0            999 V2000
    2.2938   52.0857   18.1921 C   0  0  0  0  0  0
    1.9120   50.9696   19.1980 C   0  0  2  0  0  0
    0.4773   50.4750   18.8766 C   0  0  0  0  0  0
   -0.6376   51.3368   19.4787 C   0  0  0  0  0  0
   -1.5518   51.8157   18.8094 O   0  0  0  0  0  0
   -0.5125   51.5729   20.9890 C   0  0  2  0  0  0
   -1.2546   52.3287   21.2481 H   0  0  0  0  0  0
    0.9087   52.1410   21.3463 C   0  0  2  0  0  0
    0.9311   53.1162   20.8578 H   0  0  0  0  0  0
    2.0977   51.3200   20.7261 C   0  0  2  0  0  0
    2.1486   50.3778   21.2764 H   0  0  0  0  0  0
    3.4819   51.9966   20.9824 C   0  0  0  0  0  0
    4.4462   51.2964   21.2815 O   0  0  0  0  0  0
    3.5807   53.3406   20.8817 N   0  0  0  0  0  0
    4.7421   54.0726   21.1681 C   0  0  0  0  0  0
    5.3527   53.9962   22.4272 C   0  0  0  0  0  0
    6.5075   54.7325   22.6822 C   0  0  0  0  0  0
    7.0443   55.5414   21.6820 C   0  0  0  0  0  0
    6.4300   55.6314   20.4334 C   0  0  0  0  0  0
    5.2737   54.8968   20.1756 C   0  0  0  0  0  0
    1.1069   52.4611   22.8336 C   0  0  0  0  0  0
    1.3894   53.6958   23.4203 C   0  0  0  0  0  0
    1.5593   53.6532   24.8045 C   0  0  0  0  0  0
    1.3812   52.3959   25.3272 C   0  0  0  0  0  0
    1.1046   51.2372   24.0825 S   0  0  0  0  0  0
   -0.9236   50.2962   21.7716 C   0  0  0  0  0  0
   -0.3069   49.2414   21.6082 O   0  0  0  0  0  0
   -1.9512   50.4279   22.6391 N   0  0  0  0  0  0
   -2.3726   49.5126   23.6209 C   0  0  0  0  0  0
   -1.5029   48.6074   24.2507 C   0  0  0  0  0  0
   -1.9703   47.7956   25.2803 C   0  0  0  0  0  0
   -3.3012   47.8822   25.6785 C   0  0  0  0  0  0
   -4.1723   48.7722   25.0554 C   0  0  0  0  0  0
   -3.7055   49.5934   24.0317 C   0  0  0  0  0  0
    2.7042   49.8434   18.8818 O   0  0  0  0  0  0
    1.7400   53.0045   18.3873 H   0  0  0  0  0  0
    3.3573   52.3255   18.2257 H   0  0  0  0  0  0
    2.0837   51.7878   17.1638 H   0  0  0  0  0  0
    0.3381   49.4658   19.2621 H   0  0  0  0  0  0
    0.3226   50.4041   17.7997 H   0  0  0  0  0  0
    2.8067   53.8552   20.4823 H   0  0  0  0  0  0
    4.9390   53.3627   23.1984 H   0  0  0  0  0  0
    6.9935   54.6677   23.6453 H   0  0  0  0  0  0
    7.9500   56.0963   21.8811 H   0  0  0  0  0  0
    6.8529   56.2584   19.6627 H   0  0  0  0  0  0
    4.8031   54.9590   19.2044 H   0  0  0  0  0  0
    1.4909   54.6051   22.8461 H   0  0  0  0  0  0
    1.8091   54.4967   25.4184 H   0  0  0  0  0  0
    1.4484   52.0859   26.3596 H   0  0  0  0  0  0
   -2.4870   51.2796   22.5941 H   0  0  0  0  0  0
   -0.4584   48.5484   23.9831 H   0  0  0  0  0  0
   -1.2965   47.1267   25.7959 H   0  0  0  0  0  0
   -3.6497   47.2705   26.4979 H   0  0  0  0  0  0
   -5.1998   48.8405   25.3785 H   0  0  0  0  0  0
   -4.3848   50.2955   23.5700 H   0  0  0  0  0  0
    3.4922   50.0990   18.3766 H   0  0  0  0  0  0
  1  2  1  0  0  0
  1 36  1  0  0  0
  1 37  1  0  0  0
  1 38  1  0  0  0
  2 10  1  0  0  0
  2  3  1  0  0  0
  2 35  1  0  0  0
  3  4  1  0  0  0
  3 39  1  0  0  0
  3 40  1  0  0  0
  4  5  2  0  0  0
  4  6  1  0  0  0
  6  7  1  0  0  0
  6  8  1  0  0  0
  6 26  1  0  0  0
  8  9  1  0  0  0
  8 10  1  0  0  0
  8 21  1  0  0  0
 10 11  1  0  0  0
 10 12  1  0  0  0
 12 13  2  0  0  0
 12 14  1  0  0  0
 14 15  1  0  0  0
 14 41  1  0  0  0
 15 20  2  0  0  0
 15 16  1  0  0  0
 16 17  2  0  0  0
 16 42  1  0  0  0
 17 18  1  0  0  0
 17 43  1  0  0  0
 18 19  2  0  0  0
 18 44  1  0  0  0
 19 20  1  0  0  0
 19 45  1  0  0  0
 20 46  1  0  0  0
 21 25  1  0  0  0
 21 22  2  0  0  0
 22 23  1  0  0  0
 22 47  1  0  0  0
 23 24  2  0  0  0
 23 48  1  0  0  0
 24 25  1  0  0  0
 24 49  1  0  0  0
 26 27  2  0  0  0
 26 28  1  0  0  0
 28 29  1  0  0  0
 28 50  1  0  0  0
 29 34  2  0  0  0
 29 30  1  0  0  0
 30 31  2  0  0  0
 30 51  1  0  0  0
 31 32  1  0  0  0
 31 52  1  0  0  0
 32 33  2  0  0  0
 32 53  1  0  0  0
 33 34  1  0  0  0
 33 54  1  0  0  0
 34 55  1  0  0  0
 35 56  1  0  0  0
M  END
> <i_i_glide_confnum>
101

> <i_i_glide_lignum>
4437

> <i_i_glide_posenum>
211

> <i_i_glide_rotatable_bonds>
8

> <i_m_Source_File_Index>
4815

> <b_m_subgroup_collapsed>
0

> <r_i_docking_score>
-3.96745

> <r_i_glide_ecoul>
-7.82119

> <r_i_glide_eff_state_penalty>
0

> <r_i_glide_einternal>
12.4649

> <r_i_glide_emodel>
-44.9106

> <r_i_glide_energy>
-42.9554

> <r_i_glide_erotb>
0.697049

> <r_i_glide_esite>
-0.0317665

> <r_i_glide_evdw>
-35.1343

> <r_i_glide_gscore>
-3.96745

> <r_i_glide_hbond>
-0.295845

> <r_i_glide_ligand_efficiency>
-0.123983

> <r_i_glide_ligand_efficiency_ln>
-0.88842

> <r_i_glide_ligand_efficiency_sa>
-0.393621

> <r_i_glide_lipo>
-1.81281

> <r_i_glide_metal>
0

> <r_i_glide_rewards>
0.405817

> <s_i_glide_gridfile>
wee1_glide-grid

> <s_m_Source_File>
wee1_decoys_glide_SP.sdf

> <s_m_Source_Path>
/Users/zhangxujun/Desktop

> <s_m_entry_id>
5090

> <s_m_entry_name>
wee1_decoys_glide_SP.4815

> <s_m_subgroup_title>
wee1_decoys_glide_SP

> <s_m_subgroupid>
wee1_decoys_glide_SP


$$$$
