@<TRIPOS>MOLECULE
ZINC35778138_5691
70   73    1
SMALL
USER_CHARGES


@<TRIPOS>ATOM
      1 C1          1.9926   54.6874   23.4834 C.3       1 UNK         0.0000 
      2 N2          1.7056   53.2722   23.4540 N.pl3     1 UNK         0.0000 
      3 C3          1.2777   52.4398   24.4532 C.ar      1 UNK         0.0000 
      4 C4          1.1224   51.1845   23.8800 C.ar      1 UNK         0.0000 
      5 C5          1.4411   51.4006   22.5117 C.ar      1 UNK         0.0000 
      6 N6          1.7872   52.6493   22.2851 N.2       1 UNK         0.0000 
      7 C7          1.4134   50.4654   21.3465 C.ar      1 UNK         0.0000 
      8 C8          0.9381   50.9206   20.1069 C.ar      1 UNK         0.0000 
      9 C9          0.9502   50.0841   18.9947 C.ar      1 UNK         0.0000 
     10 C10         1.4390   48.7876   19.1162 C.ar      1 UNK         0.0000 
     11 C11         1.9053   48.3256   20.3423 C.ar      1 UNK         0.0000 
     12 C12         1.8989   49.1623   21.4564 C.ar      1 UNK         0.0000 
     13 C13         0.6860   49.9306   24.6204 C.3       1 UNK         0.0000 
     14 N14        -0.8345   49.6148   24.4960 N.4       1 UNK         0.0000 
     15 C15        -1.7610   50.8072   24.1108 C.3       1 UNK         0.0000 
     16 C16        -3.1837   50.3716   23.6975 C.3       1 UNK         0.0000 
     17 O17        -3.9088   49.8278   24.7921 O.3       1 UNK         0.0000 
     18 C18        -5.2114   49.3742   24.4575 C.3       1 UNK         0.0000 
     19 C19        -1.3383   48.8153   25.7342 C.3       1 UNK         0.0000 
     20 C20        -1.9530   47.4675   25.3068 C.3       1 UNK         0.0000 
     21 H21        -2.6299   47.6164   24.4651 H         1 UNK         0.0000 
     22 C22        -2.7547   46.8029   26.4438 C.3       1 UNK         0.0000 
     23 O23        -3.5441   45.7201   25.9496 O.3       1 UNK         0.0000 
     24 C24        -4.5549   45.3103   26.8693 C.3       1 UNK         0.0000 
     25 C25        -5.4419   44.2789   26.2131 C.2       1 UNK         0.0000 
     26 C26        -6.7555   44.2912   25.7578 C.2       1 UNK         0.0000 
     27 C27        -7.0152   43.0305   25.2211 C.2       1 UNK         0.0000 
     28 C28        -5.8479   42.3014   25.3723 C.2       1 UNK         0.0000 
     29 O29        -4.8962   43.0577   25.9761 O.3       1 UNK         0.0000 
     30 O30        -0.8960   46.6277   24.8817 O.3       1 UNK         0.0000 
     31 O31         0.9706   52.8407   25.7300 O.3       1 UNK         0.0000 
     32 C32         1.9237   53.2985   26.6180 C.ar      1 UNK         0.0000 
     33 C33         3.2969   53.3374   26.3445 C.ar      1 UNK         0.0000 
     34 C34         4.1913   53.8246   27.2917 C.ar      1 UNK         0.0000 
     35 C35         3.7140   54.2840   28.5159 C.ar      1 UNK         0.0000 
     36 C36         2.3515   54.2503   28.8034 C.ar      1 UNK         0.0000 
     37 C37         1.4633   53.7501   27.8558 C.ar      1 UNK         0.0000 
     38 Cl38        4.8250   54.8967   29.6814 Cl        1 UNK         0.0000 
     39 H39         1.1056   55.2347   23.1704 H         1 UNK         0.0000 
     40 H40         2.2872   54.9986   24.4801 H         1 UNK         0.0000 
     41 H41         2.8144   54.8968   22.7971 H         1 UNK         0.0000 
     42 H42         0.5724   51.9311   19.9963 H         1 UNK         0.0000 
     43 H43         0.6016   50.4439   18.0368 H         1 UNK         0.0000 
     44 H44         1.4731   48.1455   18.2472 H         1 UNK         0.0000 
     45 H45         2.3064   47.3264   20.4242 H         1 UNK         0.0000 
     46 H46         2.3092   48.8040   22.3885 H         1 UNK         0.0000 
     47 H47         0.8870   50.0570   25.6856 H         1 UNK         0.0000 
     48 H48         1.1773   49.0118   24.2950 H         1 UNK         0.0000 
     49 H49        -1.7500   51.4969   24.9565 H         1 UNK         0.0000 
     50 H50        -1.2986   51.2902   23.2517 H         1 UNK         0.0000 
     51 H51        -3.7204   51.2367   23.3056 H         1 UNK         0.0000 
     52 H52        -3.1188   49.6463   22.8836 H         1 UNK         0.0000 
     53 H53        -5.6938   48.9635   25.3453 H         1 UNK         0.0000 
     54 H54        -5.8362   50.1877   24.0862 H         1 UNK         0.0000 
     55 H55        -5.1782   48.5855   23.7040 H         1 UNK         0.0000 
     56 H56        -2.0418   49.4570   26.2671 H         1 UNK         0.0000 
     57 H57        -0.5175   48.6541   26.4431 H         1 UNK         0.0000 
     58 H58        -3.4069   47.5628   26.8795 H         1 UNK         0.0000 
     59 H59        -2.0983   46.4689   27.2476 H         1 UNK         0.0000 
     60 H60        -5.1579   46.1619   27.1920 H         1 UNK         0.0000 
     61 H61        -4.0872   44.8974   27.7636 H         1 UNK         0.0000 
     62 H62        -7.4418   45.1241   25.8038 H         1 UNK         0.0000 
     63 H63        -7.9407   42.6894   24.7755 H         1 UNK         0.0000 
     64 H64        -5.5575   41.2968   25.1105 H         1 UNK         0.0000 
     65 H65        -0.3048   46.4946   25.6445 H         1 UNK         0.0000 
     66 H66         3.6842   52.9821   25.4020 H         1 UNK         0.0000 
     67 H67         5.2498   53.8444   27.0755 H         1 UNK         0.0000 
     68 H68         1.9789   54.6097   29.7520 H         1 UNK         0.0000 
     69 H69         0.4063   53.7223   28.0770 H         1 UNK         0.0000 
     70 H70        -0.8929   48.9671   23.7196 H         1 UNK         0.0000 
@<TRIPOS>BOND
     1    1    2 1    
     2    1   39 1    
     3    1   40 1    
     4    1   41 1    
     5    2    6 ar   
     6    2    3 ar   
     7    3    4 ar   
     8    3   31 1    
     9    4    5 ar   
    10    4   13 1    
    11    5    6 ar   
    12    5    7 1    
    13    7   12 ar   
    14    7    8 ar   
    15    8    9 ar   
    16    8   42 1    
    17    9   10 ar   
    18    9   43 1    
    19   10   11 ar   
    20   10   44 1    
    21   11   12 ar   
    22   11   45 1    
    23   12   46 1    
    24   13   14 1    
    25   13   47 1    
    26   13   48 1    
    27   14   15 1    
    28   14   19 1    
    29   14   70 1    
    30   15   16 1    
    31   15   49 1    
    32   15   50 1    
    33   16   17 1    
    34   16   51 1    
    35   16   52 1    
    36   17   18 1    
    37   18   53 1    
    38   18   54 1    
    39   18   55 1    
    40   19   20 1    
    41   19   56 1    
    42   19   57 1    
    43   20   21 1    
    44   20   22 1    
    45   20   30 1    
    46   22   23 1    
    47   22   58 1    
    48   22   59 1    
    49   23   24 1    
    50   24   25 1    
    51   24   60 1    
    52   24   61 1    
    53   25   29 1    
    54   25   26 2    
    55   26   27 1    
    56   26   62 1    
    57   27   28 2    
    58   27   63 1    
    59   28   29 1    
    60   28   64 1    
    61   30   65 1    
    62   31   32 1    
    63   32   37 ar   
    64   32   33 ar   
    65   33   34 ar   
    66   33   66 1    
    67   34   35 ar   
    68   34   67 1    
    69   35   36 ar   
    70   35   38 1    
    71   36   37 ar   
    72   36   68 1    
    73   37   69 1    
@<TRIPOS>SUBSTRUCTURE
     1 UNK         1 GROUP             0       ****    0 ROOT    
