ZINC01880744_3343
                    3D
 Schrodinger Suite 2024-2.
 50 53  0  0  1  0            999 V2000
    5.1540   54.3531   21.9550 C   0  0  0  0  0  0
    4.0369   53.9422   22.8964 C   0  0  0  0  0  0
    3.0961   53.0015   22.4862 C   0  0  0  0  0  0
    2.0953   52.5955   23.3644 C   0  0  0  0  0  0
    1.9875   53.1349   24.6623 C   0  0  0  0  0  0
    2.9429   54.0967   25.0413 C   0  0  0  0  0  0
    3.9639   54.4837   24.1780 C   0  0  0  0  0  0
    0.9449   52.7088   25.5733 N   0  0  0  0  0  0
   -0.3520   52.4967   25.0781 C   0  0  0  0  0  0
   -1.3192   51.9607   25.9879 C   0  0  0  0  0  0
   -0.9821   51.7731   27.2760 C   0  0  0  0  0  0
   -1.6393   51.3407   28.2856 O   0  5  0  0  0  0
    0.2600   52.0713   27.7216 N   0  0  0  0  0  0
    0.4805   51.9036   28.6891 H   0  0  0  0  0  0
    1.2753   52.4954   26.9182 C   0  0  0  0  0  0
    2.3747   52.6233   27.4552 O   0  0  0  0  0  0
   -2.5609   51.6921   25.1870 C   0  0  2  0  0  0
   -2.1240   52.3464   23.8619 C   0  0  0  0  0  0
   -2.8483   52.4966   22.8818 O   0  0  0  0  0  0
   -0.8079   52.7449   23.9146 N   0  0  0  0  0  0
   -3.8540   52.3857   25.7263 C   0  0  0  0  0  0
   -4.8949   52.2332   24.9041 F   0  0  0  0  0  0
   -4.2348   51.8815   26.9004 F   0  0  0  0  0  0
   -3.6980   53.6976   25.9145 F   0  0  0  0  0  0
   -2.7523   50.2041   25.1177 N   0  0  0  0  0  0
   -2.9634   49.2319   23.6562 S   0  0  0  0  0  0
   -4.0180   49.8375   22.8359 O   0  0  0  0  0  0
   -3.0649   47.8319   24.0817 O   0  0  0  0  0  0
   -1.4184   49.3581   22.7611 C   0  0  0  0  0  0
   -1.4223   49.6745   21.4006 C   0  0  0  0  0  0
   -0.2163   49.7943   20.7153 C   0  0  0  0  0  0
    0.9896   49.6003   21.3903 C   0  0  0  0  0  0
    0.9887   49.2967   22.7530 C   0  0  0  0  0  0
   -0.2140   49.1634   23.4400 C   0  0  0  0  0  0
    2.3046   49.7479   20.6474 C   0  0  0  0  0  0
    5.5020   53.4945   21.3800 H   0  0  0  0  0  0
    4.8043   55.1109   21.2545 H   0  0  0  0  0  0
    6.0169   54.7382   22.4998 H   0  0  0  0  0  0
    3.1422   52.5770   21.4936 H   0  0  0  0  0  0
    1.3939   51.8579   23.0130 H   0  0  0  0  0  0
    2.9124   54.5497   26.0204 H   0  0  0  0  0  0
    4.6924   55.2102   24.5068 H   0  0  0  0  0  0
   -2.4541   49.6938   25.9556 H   0  0  0  0  0  0
   -2.3534   49.8371   20.8765 H   0  0  0  0  0  0
   -0.2199   50.0423   19.6633 H   0  0  0  0  0  0
    1.9204   49.1645   23.2811 H   0  0  0  0  0  0
   -0.2080   48.9273   24.4956 H   0  0  0  0  0  0
    2.2528   50.5676   19.9291 H   0  0  0  0  0  0
    2.5466   48.8333   20.1046 H   0  0  0  0  0  0
    3.1213   49.9819   21.3308 H   0  0  0  0  0  0
  1  2  1  0  0  0
  1 36  1  0  0  0
  1 37  1  0  0  0
  1 38  1  0  0  0
  2  7  2  0  0  0
  2  3  1  0  0  0
  3  4  2  0  0  0
  3 39  1  0  0  0
  4  5  1  0  0  0
  4 40  1  0  0  0
  5  6  2  0  0  0
  5  8  1  0  0  0
  6  7  1  0  0  0
  6 41  1  0  0  0
  7 42  1  0  0  0
  8 15  1  0  0  0
  8  9  1  0  0  0
  9 20  2  0  0  0
  9 10  1  0  0  0
 10 11  2  0  0  0
 10 17  1  0  0  0
 11 12  1  0  0  0
 11 13  1  0  0  0
 13 14  1  0  0  0
 13 15  1  0  0  0
 15 16  2  0  0  0
 17 18  1  0  0  0
 17 21  1  0  0  0
 17 25  1  0  0  0
 18 19  2  0  0  0
 18 20  1  0  0  0
 21 22  1  0  0  0
 21 23  1  0  0  0
 21 24  1  0  0  0
 25 26  1  0  0  0
 25 43  1  0  0  0
 26 27  2  0  0  0
 26 28  2  0  0  0
 26 29  1  0  0  0
 29 34  2  0  0  0
 29 30  1  0  0  0
 30 31  2  0  0  0
 30 44  1  0  0  0
 31 32  1  0  0  0
 31 45  1  0  0  0
 32 33  2  0  0  0
 32 35  1  0  0  0
 33 34  1  0  0  0
 33 46  1  0  0  0
 34 47  1  0  0  0
 35 48  1  0  0  0
 35 49  1  0  0  0
 35 50  1  0  0  0
M  CHG  1  12  -1
M  END
> <i_i_glide_confnum>
45

> <i_i_glide_lignum>
3344

> <i_i_glide_posenum>
155

> <i_i_glide_rotatable_bonds>
5

> <i_m_Source_File_Index>
5083

> <b_m_subgroup_collapsed>
0

> <r_i_docking_score>
-3.20937

> <r_i_glide_ecoul>
-4.98522

> <r_i_glide_eff_state_penalty>
0

> <r_i_glide_einternal>
12.2474

> <r_i_glide_emodel>
-37.4744

> <r_i_glide_energy>
-37.7417

> <r_i_glide_erotb>
0.334673

> <r_i_glide_esite>
-0.0508132

> <r_i_glide_evdw>
-32.7565

> <r_i_glide_gscore>
-3.20937

> <r_i_glide_hbond>
0

> <r_i_glide_ligand_efficiency>
-0.0943933

> <r_i_glide_ligand_efficiency_ln>
-0.70904

> <r_i_glide_ligand_efficiency_sa>
-0.305798

> <r_i_glide_lipo>
-1.29922

> <r_i_glide_metal>
0

> <r_i_glide_rewards>
0.191592

> <s_i_glide_gridfile>
wee1_glide-grid

> <s_m_Source_File>
wee1_decoys_glide_SP.sdf

> <s_m_Source_Path>
/Users/zhangxujun/Desktop

> <s_m_entry_id>
5358

> <s_m_entry_name>
wee1_decoys_glide_SP.5083

> <s_m_subgroup_title>
wee1_decoys_glide_SP

> <s_m_subgroupid>
wee1_decoys_glide_SP


$$$$
