@<TRIPOS>MOLECULE
ZINC63480012_4098
61   67    1
SMALL
USER_CHARGES


@<TRIPOS>ATOM
      1 C1          2.3006   49.6357   18.5960 C.3       1 UNK         0.0000 
      2 C2          1.4696   50.0869   19.7814 C.ar      1 UNK         0.0000 
      3 C3          0.2728   50.7706   19.5613 C.ar      1 UNK         0.0000 
      4 C4         -0.5033   51.1818   20.6413 C.ar      1 UNK         0.0000 
      5 C5         -0.0803   50.9095   21.9484 C.ar      1 UNK         0.0000 
      6 C6          1.1235   50.2229   22.1648 C.ar      1 UNK         0.0000 
      7 C7          1.8949   49.8112   21.0820 C.ar      1 UNK         0.0000 
      8 N8         -0.8681   51.3042   23.0524 N.am      1 UNK         0.0000 
      9 C9         -0.4197   52.1352   24.0289 C.2       1 UNK         0.0000 
     10 O10         0.6574   52.7339   24.0662 O.2       1 UNK         0.0000 
     11 C11        -1.5184   52.2796   25.0792 C.3       1 UNK         0.0000 
     12 H12        -1.8405   53.3121   25.0621 H         1 UNK         0.0000 
     13 C13        -1.1214   51.8309   26.5023 C.3       1 UNK         0.0000 
     14 H14        -1.8302   52.3126   27.1748 H         1 UNK         0.0000 
     15 N15        -1.3992   50.4012   26.4808 N.3       1 UNK         0.0000 
     16 C16        -2.6596   50.2119   25.7509 C.3       1 UNK         0.0000 
     17 C17        -2.6031   51.3342   24.6440 C.3       1 UNK         0.0000 
     18 H18        -3.5434   51.8752   24.5140 H         1 UNK         0.0000 
     19 C19        -2.1395   50.8679   23.2636 C.2       1 UNK         0.0000 
     20 O20        -2.8448   50.2202   22.4879 O.2       1 UNK         0.0000 
     21 C21        -2.9420   48.7876   25.3217 C.ar      1 UNK         0.0000 
     22 C22        -2.2095   47.8885   24.5383 C.ar      1 UNK         0.0000 
     23 C23        -2.7729   46.6598   24.1879 C.ar      1 UNK         0.0000 
     24 C24        -4.0441   46.3101   24.6542 C.ar      1 UNK         0.0000 
     25 C25        -4.7514   47.1819   25.4837 C.ar      1 UNK         0.0000 
     26 C26        -4.1840   48.4143   25.8018 C.ar      1 UNK         0.0000 
     27 N27        -4.6910   49.4180   26.6027 N.am      1 UNK         0.0000 
     28 C28        -3.8803   50.4841   26.6902 C.2       1 UNK         0.0000 
     29 O29        -4.0928   51.4933   27.3647 O.2       1 UNK         0.0000 
     30 F30        -2.0969   45.8141   23.3777 F         1 UNK         0.0000 
     31 C31         0.2705   52.2604   27.0148 C.3       1 UNK         0.0000 
     32 C32         0.5027   52.2091   28.5140 C.2       1 UNK         0.0000 
     33 C33         1.6615   52.2691   29.1867 C.2       1 UNK         0.0000 
     34 C34         3.0405   52.4170   28.6997 C.2       1 UNK         0.0000 
     35 C35         4.0801   52.3793   29.5551 C.2       1 UNK         0.0000 
     36 C36         3.7918   52.1823   30.9668 C.2       1 UNK         0.0000 
     37 C37         2.5175   52.0967   31.4306 C.2       1 UNK         0.0000 
     38 C38         1.4293   52.1615   30.5580 C.2       1 UNK         0.0000 
     39 N39         0.1403   52.0972   30.8142 N.pl3     1 UNK         0.0000 
     40 C40        -0.6024   52.0652   29.5449 C.3       1 UNK         0.0000 
     41 H41         1.6778   49.1126   17.8704 H         1 UNK         0.0000 
     42 H42         2.7356   50.4963   18.0865 H         1 UNK         0.0000 
     43 H43         3.0991   48.9525   18.8834 H         1 UNK         0.0000 
     44 H44        -0.0553   50.9815   18.5536 H         1 UNK         0.0000 
     45 H45        -1.4311   51.7048   20.4608 H         1 UNK         0.0000 
     46 H46         1.4598   50.0010   23.1684 H         1 UNK         0.0000 
     47 H47         2.8201   49.2805   21.2551 H         1 UNK         0.0000 
     48 H48        -1.3848   49.8799   27.3650 H         1 UNK         0.0000 
     49 H49        -1.2321   48.1513   24.1622 H         1 UNK         0.0000 
     50 H50        -4.4888   45.3683   24.3709 H         1 UNK         0.0000 
     51 H51        -5.7260   46.9000   25.8544 H         1 UNK         0.0000 
     52 H52        -5.5440   49.3456   27.1350 H         1 UNK         0.0000 
     53 H53         0.4531   53.2956   26.7263 H         1 UNK         0.0000 
     54 H54         1.0454   51.6715   26.5227 H         1 UNK         0.0000 
     55 H55         3.2564   52.5557   27.6491 H         1 UNK         0.0000 
     56 H56         5.0967   52.4892   29.2019 H         1 UNK         0.0000 
     57 H57         4.6132   52.0980   31.6654 H         1 UNK         0.0000 
     58 H58         2.3566   51.9466   32.4818 H         1 UNK         0.0000 
     59 H59        -1.1472   51.1189   29.4930 H         1 UNK         0.0000 
     60 H60        -1.2955   52.8966   29.5614 H         1 UNK         0.0000 
     61 H61        -0.3015   52.0019   31.7363 H         1 UNK         0.0000 
@<TRIPOS>BOND
     1    1    2 1    
     2    1   41 1    
     3    1   42 1    
     4    1   43 1    
     5    2    7 ar   
     6    2    3 ar   
     7    3    4 ar   
     8    3   44 1    
     9    4    5 ar   
    10    4   45 1    
    11    5    6 ar   
    12    5    8 1    
    13    6    7 ar   
    14    6   46 1    
    15    7   47 1    
    16    8   19 am   BACKBONE|DICT|INTERRES
    17    8    9 am   BACKBONE|DICT|INTERRES
    18    9   10 2    
    19    9   11 1    
    20   11   12 1    
    21   11   17 1    
    22   11   13 1    
    23   13   14 1    
    24   13   15 1    
    25   13   31 1    
    26   15   16 1    
    27   15   48 1    
    28   16   28 1    
    29   16   17 1    
    30   16   21 1    
    31   17   18 1    
    32   17   19 1    
    33   19   20 2    
    34   21   26 ar   
    35   21   22 ar   
    36   22   23 ar   
    37   22   49 1    
    38   23   24 ar   
    39   23   30 1    
    40   24   25 ar   
    41   24   50 1    
    42   25   26 ar   
    43   25   51 1    
    44   26   27 1    
    45   27   28 am   BACKBONE|DICT|INTERRES
    46   27   52 1    
    47   28   29 2    
    48   31   32 1    
    49   31   53 1    
    50   31   54 1    
    51   32   40 1    
    52   32   33 2    
    53   33   38 1    
    54   33   34 1    
    55   34   35 2    
    56   34   55 1    
    57   35   36 1    
    58   35   56 1    
    59   36   37 2    
    60   36   57 1    
    61   37   38 1    
    62   37   58 1    
    63   38   39 2    
    64   39   40 1    
    65   39   61 1    
    66   40   59 1    
    67   40   60 1    
@<TRIPOS>SUBSTRUCTURE
     1 UNK         1 GROUP             0       ****    0 ROOT    
