@<TRIPOS>MOLECULE
ZINC13398013_528
57   60    1
SMALL
USER_CHARGES


@<TRIPOS>ATOM
      1 C1          1.3529   51.5869   21.7804 C.ar      1 UNK         0.0000 
      2 C2          1.8951   52.4727   22.7091 C.ar      1 UNK         0.0000 
      3 C3          1.6240   52.3451   24.0820 C.ar      1 UNK         0.0000 
      4 C4          0.7407   51.3270   24.4839 C.ar      1 UNK         0.0000 
      5 C5          0.1981   50.4431   23.5575 C.ar      1 UNK         0.0000 
      6 C6          0.5140   50.5453   22.1987 C.ar      1 UNK         0.0000 
      7 C7         -0.0726   49.5494   21.2225 C.2       1 UNK         0.0000 
      8 O8         -1.1357   48.9912   21.4966 O.2       1 UNK         0.0000 
      9 N9          0.6510   49.3143   20.1025 N.am      1 UNK         0.0000 
     10 C10         0.3233   48.5364   18.9717 C.ar      1 UNK         0.0000 
     11 C11        -0.9348   47.9530   18.7489 C.ar      1 UNK         0.0000 
     12 C12        -1.1886   47.2634   17.5688 C.ar      1 UNK         0.0000 
     13 C13        -0.1928   47.1457   16.5990 C.ar      1 UNK         0.0000 
     14 C14         1.0708   47.6979   16.8230 C.ar      1 UNK         0.0000 
     15 C15         1.3239   48.3921   18.0052 C.ar      1 UNK         0.0000 
     16 S16        -0.5785   46.3287   15.0471 S.o2      1 UNK         0.0000 
     17 O17        -2.0281   46.4683   14.8612 O.2       1 UNK         0.0000 
     18 O18         0.3588   46.8506   14.0449 O.2       1 UNK         0.0000 
     19 N19        -0.2386   44.6002   15.2829 N.pl3     1 UNK         0.0000 
     20 C20         1.1461   44.1039   15.0719 C.3       1 UNK         0.0000 
     21 C21         1.9050   43.9680   16.4048 C.3       1 UNK         0.0000 
     22 C22         1.1045   43.1111   17.4072 C.3       1 UNK         0.0000 
     23 C23        -0.3070   43.7210   17.6247 C.3       1 UNK         0.0000 
     24 H24        -0.2188   44.7122   18.0670 H         1 UNK         0.0000 
     25 C25        -1.0516   43.8293   16.2638 C.3       1 UNK         0.0000 
     26 C26        -1.1066   42.8967   18.6629 C.2       1 UNK         0.0000 
     27 O27        -0.4947   42.4967   19.6817 O.co2     1 UNK         0.0000 
     28 N28         2.3107   53.1915   25.0096 N.am      1 UNK         0.0000 
     29 C29         3.3968   54.0972   24.5965 C.3       1 UNK         0.0000 
     30 C30         4.1337   54.4871   25.8561 C.3       1 UNK         0.0000 
     31 C31         3.1388   54.2182   26.9522 C.3       1 UNK         0.0000 
     32 C32         2.0768   53.2968   26.3557 C.2       1 UNK         0.0000 
     33 O33         1.2102   52.7594   27.0421 O.2       1 UNK         0.0000 
     34 H34         1.5982   51.7260   20.7367 H         1 UNK         0.0000 
     35 H35         2.5460   53.2477   22.3332 H         1 UNK         0.0000 
     36 H36         0.4870   51.1534   25.5167 H         1 UNK         0.0000 
     37 H37        -0.4542   49.6582   23.9160 H         1 UNK         0.0000 
     38 H38         1.5533   49.7612   20.0550 H         1 UNK         0.0000 
     39 H39        -1.7469   48.0400   19.4518 H         1 UNK         0.0000 
     40 H40        -2.1694   46.8410   17.4023 H         1 UNK         0.0000 
     41 H41         1.8510   47.6208   16.0779 H         1 UNK         0.0000 
     42 H42         2.3019   48.8349   18.1432 H         1 UNK         0.0000 
     43 H43         1.0829   43.1358   14.5734 H         1 UNK         0.0000 
     44 H44         1.6719   44.7736   14.3914 H         1 UNK         0.0000 
     45 H45         2.8870   43.5260   16.2300 H         1 UNK         0.0000 
     46 H46         2.0893   44.9598   16.8198 H         1 UNK         0.0000 
     47 H47         1.0246   42.1035   16.9943 H         1 UNK         0.0000 
     48 H48         1.6624   43.0503   18.3429 H         1 UNK         0.0000 
     49 H49        -2.0234   44.3129   16.3735 H         1 UNK         0.0000 
     50 H50        -1.2252   42.8386   15.8418 H         1 UNK         0.0000 
     51 H51         4.0804   53.6102   23.8999 H         1 UNK         0.0000 
     52 H52         2.9768   54.9721   24.0980 H         1 UNK         0.0000 
     53 H53         4.4970   55.5151   25.8314 H         1 UNK         0.0000 
     54 H54         5.0017   53.8367   25.9850 H         1 UNK         0.0000 
     55 H55         2.6520   55.1358   27.2817 H         1 UNK         0.0000 
     56 H56         3.6047   53.7639   27.8272 H         1 UNK         0.0000 
     57 O57        -2.3155   42.6550   18.4458 O.co2     1 UNK         0.0000 
@<TRIPOS>BOND
     1    1    6 ar   
     2    1    2 ar   
     3    1   34 1    
     4    2    3 ar   
     5    2   35 1    
     6    3    4 ar   
     7    3   28 1    
     8    4    5 ar   
     9    4   36 1    
    10    5    6 ar   
    11    5   37 1    
    12    6    7 1    
    13    7    8 2    
    14    7    9 am   BACKBONE|DICT|INTERRES
    15    9   10 1    
    16    9   38 1    
    17   10   15 ar   
    18   10   11 ar   
    19   11   12 ar   
    20   11   39 1    
    21   12   13 ar   
    22   12   40 1    
    23   13   14 ar   
    24   13   16 1    
    25   14   15 ar   
    26   14   41 1    
    27   15   42 1    
    28   16   17 2    
    29   16   18 2    
    30   16   19 1    
    31   19   25 1    
    32   19   20 1    
    33   20   21 1    
    34   20   43 1    
    35   20   44 1    
    36   21   22 1    
    37   21   45 1    
    38   21   46 1    
    39   22   23 1    
    40   22   47 1    
    41   22   48 1    
    42   23   24 1    
    43   23   25 1    
    44   23   26 1    
    45   25   49 1    
    46   25   50 1    
    47   26   27 2    
    48   26   57 1    
    49   28   32 am   BACKBONE|DICT|INTERRES
    50   28   29 1    
    51   29   30 1    
    52   29   51 1    
    53   29   52 1    
    54   30   31 1    
    55   30   53 1    
    56   30   54 1    
    57   31   32 1    
    58   31   55 1    
    59   31   56 1    
    60   32   33 2    
@<TRIPOS>SUBSTRUCTURE
     1 UNK         1 GROUP             0       ****    0 ROOT    
