ZINC20702422_1030
                    3D
 Schrodinger Suite 2024-2.
 67 71  0  0  1  0            999 V2000
    2.2546   54.1952   27.0703 C   0  0  0  0  0  0
    3.6634   54.2504   26.5133 C   0  0  0  0  0  0
    4.7464   54.2339   27.3865 C   0  0  0  0  0  0
    6.0447   54.1686   26.8849 C   0  0  0  0  0  0
    6.2580   54.0965   25.5041 C   0  0  0  0  0  0
    5.1772   54.0687   24.6178 C   0  0  0  0  0  0
    3.8882   54.2272   25.1352 C   0  0  0  0  0  0
    5.4354   53.7070   23.2818 N   0  0  0  0  0  0
    4.2780   53.7130   21.9276 S   0  0  0  0  0  0
    5.0912   53.5271   20.7220 O   0  0  0  0  0  0
    3.4462   54.8967   22.0969 O   0  0  0  0  0  0
    3.1572   52.3151   22.0397 C   0  0  0  0  0  0
    3.3589   51.1635   21.2793 C   0  0  0  0  0  0
    2.4158   50.1360   21.3191 C   0  0  0  0  0  0
    1.2740   50.2518   22.1171 C   0  0  0  0  0  0
    1.0862   51.3782   22.9385 C   0  0  0  0  0  0
    2.0120   52.4141   22.8323 C   0  0  0  0  0  0
   -0.0824   51.4830   23.9233 C   0  0  1  0  0  0
    0.3409   51.4318   24.9284 H   0  0  0  0  0  0
   -0.9336   52.7274   23.7442 C   0  0  0  0  0  0
   -2.1028   52.4421   23.1454 C   0  0  0  0  0  0
   -2.2241   50.9599   22.8681 C   0  0  0  0  0  0
   -1.1127   50.3670   23.7436 C   0  0  1  0  0  0
   -1.5629   50.1894   24.7235 H   0  0  0  0  0  0
   -0.5062   49.0090   23.3011 C   0  0  2  0  0  0
    0.1406   48.6470   24.1035 H   0  0  0  0  0  0
    0.3661   49.1815   22.1357 N   0  0  0  0  0  0
   -1.5977   47.9492   23.1479 C   0  0  0  0  0  0
   -2.1446   47.6504   21.8965 C   0  0  0  0  0  0
   -3.1735   46.7227   21.7829 C   0  0  0  0  0  0
   -3.6653   46.0651   22.9164 C   0  0  0  0  0  0
   -3.1433   46.3695   24.1866 C   0  0  0  0  0  0
   -2.1008   47.3081   24.2840 C   0  0  0  0  0  0
   -3.6716   45.6966   25.2785 O   0  0  0  0  0  0
   -3.1572   45.9677   26.5844 C   0  0  0  0  0  0
   -4.7012   45.1599   22.7862 O   0  0  0  0  0  0
   -4.4969   43.9834   22.1294 C   0  0  0  0  0  0
   -3.4258   43.5659   21.6826 O   0  0  0  0  0  0
   -5.7664   43.1529   22.0218 C   0  0  0  0  0  0
    7.2063   54.0729   27.8436 C   0  0  0  0  0  0
    2.1542   53.3332   27.7276 H   0  0  0  0  0  0
    2.0382   55.0776   27.6720 H   0  0  0  0  0  0
    1.5105   54.0965   26.2811 H   0  0  0  0  0  0
    4.5759   54.2399   28.4538 H   0  0  0  0  0  0
    7.2613   53.9700   25.1246 H   0  0  0  0  0  0
    3.0452   54.2753   24.4843 H   0  0  0  0  0  0
    6.3697   53.4088   23.0540 H   0  0  0  0  0  0
    4.2223   51.0739   20.6339 H   0  0  0  0  0  0
    2.5735   49.2562   20.7123 H   0  0  0  0  0  0
    1.7887   53.3198   23.3626 H   0  0  0  0  0  0
   -0.5907   53.7061   24.0455 H   0  0  0  0  0  0
   -2.8771   53.1467   22.8840 H   0  0  0  0  0  0
   -2.0821   50.7350   21.8103 H   0  0  0  0  0  0
   -3.1980   50.5655   23.1610 H   0  0  0  0  0  0
    0.5947   48.3256   21.6534 H   0  0  0  0  0  0
   -1.7861   48.1514   21.0091 H   0  0  0  0  0  0
   -3.5918   46.5117   20.8090 H   0  0  0  0  0  0
   -1.6740   47.5627   25.2444 H   0  0  0  0  0  0
   -3.6773   45.3474   27.3143 H   0  0  0  0  0  0
   -2.0940   45.7315   26.6586 H   0  0  0  0  0  0
   -3.3089   47.0092   26.8727 H   0  0  0  0  0  0
   -6.4083   43.5453   21.2345 H   0  0  0  0  0  0
   -6.3149   43.1742   22.9624 H   0  0  0  0  0  0
   -5.5205   42.1171   21.7898 H   0  0  0  0  0  0
    6.8866   54.0969   28.8843 H   0  0  0  0  0  0
    7.7206   53.1280   27.6771 H   0  0  0  0  0  0
    7.9037   54.8921   27.6820 H   0  0  0  0  0  0
  1  2  1  0  0  0
  1 41  1  0  0  0
  1 42  1  0  0  0
  1 43  1  0  0  0
  2  7  2  0  0  0
  2  3  1  0  0  0
  3  4  2  0  0  0
  3 44  1  0  0  0
  4  5  1  0  0  0
  4 40  1  0  0  0
  5  6  2  0  0  0
  5 45  1  0  0  0
  6  7  1  0  0  0
  6  8  1  0  0  0
  7 46  1  0  0  0
  8  9  1  0  0  0
  8 47  1  0  0  0
  9 10  2  0  0  0
  9 11  2  0  0  0
  9 12  1  0  0  0
 12 17  2  0  0  0
 12 13  1  0  0  0
 13 14  2  0  0  0
 13 48  1  0  0  0
 14 15  1  0  0  0
 14 49  1  0  0  0
 15 27  1  0  0  0
 15 16  2  0  0  0
 16 17  1  0  0  0
 16 18  1  0  0  0
 17 50  1  0  0  0
 18 19  1  0  0  0
 18 23  1  0  0  0
 18 20  1  0  0  0
 20 21  2  0  0  0
 20 51  1  0  0  0
 21 22  1  0  0  0
 21 52  1  0  0  0
 22 23  1  0  0  0
 22 53  1  0  0  0
 22 54  1  0  0  0
 23 24  1  0  0  0
 23 25  1  0  0  0
 25 26  1  0  0  0
 25 27  1  0  0  0
 25 28  1  0  0  0
 27 55  1  0  0  0
 28 33  2  0  0  0
 28 29  1  0  0  0
 29 30  2  0  0  0
 29 56  1  0  0  0
 30 31  1  0  0  0
 30 57  1  0  0  0
 31 32  2  0  0  0
 31 36  1  0  0  0
 32 33  1  0  0  0
 32 34  1  0  0  0
 33 58  1  0  0  0
 34 35  1  0  0  0
 35 59  1  0  0  0
 35 60  1  0  0  0
 35 61  1  0  0  0
 36 37  1  0  0  0
 37 38  2  0  0  0
 37 39  1  0  0  0
 39 62  1  0  0  0
 39 63  1  0  0  0
 39 64  1  0  0  0
 40 65  1  0  0  0
 40 66  1  0  0  0
 40 67  1  0  0  0
M  END
> <i_i_glide_confnum>
48

> <i_i_glide_lignum>
1031

> <i_i_glide_posenum>
294

> <i_i_glide_rotatable_bonds>
7

> <i_m_Source_File_Index>
5200

> <b_m_subgroup_collapsed>
0

> <r_i_docking_score>
-5.05405

> <r_i_glide_ecoul>
-1.71539

> <r_i_glide_eff_state_penalty>
0

> <r_i_glide_einternal>
4.55575

> <r_i_glide_emodel>
-55.4014

> <r_i_glide_energy>
-42.7037

> <r_i_glide_erotb>
0.381817

> <r_i_glide_esite>
-0.0502618

> <r_i_glide_evdw>
-40.9883

> <r_i_glide_gscore>
-5.05405

> <r_i_glide_hbond>
-0.185032

> <r_i_glide_ligand_efficiency>
-0.136596

> <r_i_glide_ligand_efficiency_ln>
-1.0961

> <r_i_glide_ligand_efficiency_sa>
-0.455168

> <r_i_glide_lipo>
-2.6498

> <r_i_glide_metal>
0

> <r_i_glide_rewards>
-0.244045

> <s_i_glide_gridfile>
wee1_glide-grid

> <s_m_Source_File>
wee1_decoys_glide_SP.sdf

> <s_m_Source_Path>
/Users/zhangxujun/Desktop

> <s_m_entry_id>
5475

> <s_m_entry_name>
wee1_decoys_glide_SP.5200

> <s_m_subgroup_title>
wee1_decoys_glide_SP

> <s_m_subgroupid>
wee1_decoys_glide_SP


$$$$
