@<TRIPOS>MOLECULE
ZINC39657124_3677
62   66    1
SMALL
USER_CHARGES


@<TRIPOS>ATOM
      1 C1         -3.8235   50.4949   22.3104 C.3       1 UNK         0.0000 
      2 C2         -3.9487   50.3794   23.8450 C.3       1 UNK         0.0000 
      3 H3         -4.3454   49.3886   24.0784 H         1 UNK         0.0000 
      4 C4         -4.9452   51.4262   24.3678 C.ar      1 UNK         0.0000 
      5 C5         -4.5084   52.6593   24.8790 C.ar      1 UNK         0.0000 
      6 C6         -5.4197   53.5688   25.4038 C.ar      1 UNK         0.0000 
      7 C7         -6.7760   53.2580   25.4127 C.ar      1 UNK         0.0000 
      8 C8         -7.2265   52.0435   24.8992 C.ar      1 UNK         0.0000 
      9 C9         -6.3121   51.1274   24.3825 C.ar      1 UNK         0.0000 
     10 Br10       -8.0177   54.5021   26.1435 Br        1 UNK         0.0000 
     11 N11        -2.6812   50.4903   24.5731 N.am      1 UNK         0.0000 
     12 C12        -1.4207   50.1619   24.2373 C.2       1 UNK         0.0000 
     13 O13        -1.1324   49.5801   23.1940 O.2       1 UNK         0.0000 
     14 C14        -0.2739   50.5498   25.2109 C.3       1 UNK         0.0000 
     15 H15         0.3135   49.6458   25.3865 H         1 UNK         0.0000 
     16 C16        -0.8435   50.9435   26.5951 C.3       1 UNK         0.0000 
     17 N17         0.1484   51.8377   27.1725 N.am      1 UNK         0.0000 
     18 C18         1.1071   52.2772   26.1559 C.3       1 UNK         0.0000 
     19 C19         0.5949   51.7687   24.7732 C.3       1 UNK         0.0000 
     20 C20        -0.1813   52.9182   24.0821 C.3       1 UNK         0.0000 
     21 C21         0.7809   54.0929   23.7786 C.3       1 UNK         0.0000 
     22 N22         1.8268   53.6645   22.7474 N.4       1 UNK         0.0000 
     23 C23         2.6360   52.4959   23.2967 C.3       1 UNK         0.0000 
     24 C24         1.6561   51.3583   23.6979 C.3       1 UNK         0.0000 
     25 C25        -0.0063   52.2793   28.4531 C.2       1 UNK         0.0000 
     26 O26        -0.9413   51.9092   29.1634 O.2       1 UNK         0.0000 
     27 C27         0.8669   53.3114   28.9644 C.2       1 UNK         0.0000 
     28 C28         0.3826   54.3357   29.7598 C.2       1 UNK         0.0000 
     29 S29         1.5044   55.6200   30.0815 S.3       1 UNK         0.0000 
     30 C30         2.7743   54.6528   29.3600 C.ar      1 UNK         0.0000 
     31 C31         2.2921   53.4094   28.8597 C.ar      1 UNK         0.0000 
     32 C32         3.2515   52.5022   28.3824 C.ar      1 UNK         0.0000 
     33 C33         4.5916   52.8790   28.2831 C.ar      1 UNK         0.0000 
     34 C34         5.0277   54.1091   28.7168 C.ar      1 UNK         0.0000 
     35 C35         4.1273   54.9876   29.2817 C.ar      1 UNK         0.0000 
     36 H36        -4.8026   50.4993   21.8303 H         1 UNK         0.0000 
     37 H37        -3.2959   51.4037   22.0219 H         1 UNK         0.0000 
     38 H38        -3.2799   49.6507   21.8876 H         1 UNK         0.0000 
     39 H39        -3.4608   52.9205   24.8789 H         1 UNK         0.0000 
     40 H40        -5.0719   54.5061   25.8098 H         1 UNK         0.0000 
     41 H41        -8.2811   51.8090   24.9096 H         1 UNK         0.0000 
     42 H42        -6.6691   50.1833   23.9979 H         1 UNK         0.0000 
     43 H43        -2.8090   50.7682   25.5336 H         1 UNK         0.0000 
     44 H44        -1.7245   51.5803   26.5086 H         1 UNK         0.0000 
     45 H45        -1.0707   50.0967   27.2404 H         1 UNK         0.0000 
     46 H46         1.9879   51.6971   26.3405 H         1 UNK         0.0000 
     47 H47         1.3879   53.3242   26.2043 H         1 UNK         0.0000 
     48 H48        -0.6814   52.5851   23.1708 H         1 UNK         0.0000 
     49 H49        -0.9807   53.2738   24.7338 H         1 UNK         0.0000 
     50 H50         0.3044   54.8967   23.2817 H         1 UNK         0.0000 
     51 H51         1.3227   54.5045   24.6246 H         1 UNK         0.0000 
     52 H52         1.3766   53.3955   21.8815 H         1 UNK         0.0000 
     53 H53         3.3088   52.2020   22.4861 H         1 UNK         0.0000 
     54 H54         3.2130   52.8963   24.1344 H         1 UNK         0.0000 
     55 H55         2.2512   50.5302   24.0816 H         1 UNK         0.0000 
     56 H56         1.1691   50.9472   22.8114 H         1 UNK         0.0000 
     57 H57        -0.6404   54.4610   30.0818 H         1 UNK         0.0000 
     58 H58         2.9552   51.5092   28.0931 H         1 UNK         0.0000 
     59 H59         5.3182   52.1836   27.8919 H         1 UNK         0.0000 
     60 H60         6.0767   54.3682   28.6594 H         1 UNK         0.0000 
     61 H61         4.4882   55.9124   29.6817 H         1 UNK         0.0000 
     62 H62         2.4391   54.4374   22.5193 H         1 UNK         0.0000 
@<TRIPOS>BOND
     1    1    2 1    
     2    1   36 1    
     3    1   37 1    
     4    1   38 1    
     5    2    3 1    
     6    2    4 1    
     7    2   11 1    
     8    4    9 ar   
     9    4    5 ar   
    10    5    6 ar   
    11    5   39 1    
    12    6    7 ar   
    13    6   40 1    
    14    7    8 ar   
    15    7   10 1    
    16    8    9 ar   
    17    8   41 1    
    18    9   42 1    
    19   11   12 am   BACKBONE|DICT|INTERRES
    20   11   43 1    
    21   12   13 2    
    22   12   14 1    
    23   14   15 1    
    24   14   19 1    
    25   14   16 1    
    26   16   17 1    
    27   16   44 1    
    28   16   45 1    
    29   17   18 1    
    30   17   25 am   BACKBONE|DICT|INTERRES
    31   18   19 1    
    32   18   46 1    
    33   18   47 1    
    34   19   24 1    
    35   19   20 1    
    36   20   21 1    
    37   20   48 1    
    38   20   49 1    
    39   21   22 1    
    40   21   50 1    
    41   21   51 1    
    42   22   23 1    
    43   22   52 1    
    44   22   62 1    
    45   23   24 1    
    46   23   53 1    
    47   23   54 1    
    48   24   55 1    
    49   24   56 1    
    50   25   26 2    
    51   25   27 1    
    52   27   31 1    
    53   27   28 2    
    54   28   29 1    
    55   28   57 1    
    56   29   30 1    
    57   30   35 ar   
    58   30   31 ar   
    59   31   32 ar   
    60   32   33 ar   
    61   32   58 1    
    62   33   34 ar   
    63   33   59 1    
    64   34   35 ar   
    65   34   60 1    
    66   35   61 1    
@<TRIPOS>SUBSTRUCTURE
     1 UNK         1 GROUP             0       ****    0 ROOT    
