@<TRIPOS>MOLECULE
ZINC09295313_56
53   57    1
SMALL
USER_CHARGES


@<TRIPOS>ATOM
      1 C1          3.3965   53.8961   15.1814 C.ar      1 UNK         0.0000 
      2 C2          4.3573   53.1137   15.8179 C.ar      1 UNK         0.0000 
      3 C3          4.6095   53.2972   17.1741 C.ar      1 UNK         0.0000 
      4 C4          3.9012   54.2711   17.8929 C.ar      1 UNK         0.0000 
      5 C5          2.9254   55.0367   17.2506 C.ar      1 UNK         0.0000 
      6 C6          2.6793   54.8545   15.8929 C.ar      1 UNK         0.0000 
      7 N7          4.0764   54.4830   19.2684 N.am      1 UNK         0.0000 
      8 C8          5.2142   54.3440   19.9860 C.2       1 UNK         0.0000 
      9 O9          6.3045   54.0968   19.4676 O.2       1 UNK         0.0000 
     10 C10         5.0919   54.5308   21.5243 C.3       1 UNK         0.0000 
     11 H11         4.3332   55.2967   21.6272 H         1 UNK         0.0000 
     12 C12         4.5840   53.2921   22.3249 C.3       1 UNK         0.0000 
     13 H13         5.4199   52.5951   22.4271 H         1 UNK         0.0000 
     14 N14         4.2085   53.7298   23.6749 N.3       1 UNK         0.0000 
     15 N15         5.2611   54.3057   24.3816 N.pl3     1 UNK         0.0000 
     16 C16         5.4350   54.3146   25.7500 C.ar      1 UNK         0.0000 
     17 N17         6.5312   54.9519   26.0685 N.2       1 UNK         0.0000 
     18 N18         7.1044   55.3914   24.8816 N.2       1 UNK         0.0000 
     19 C19         6.3507   54.9913   23.8878 C.ar      1 UNK         0.0000 
     20 S20         6.6496   55.2941   22.1649 S.3       1 UNK         0.0000 
     21 C21         4.4908   53.6971   26.7651 C.3       1 UNK         0.0000 
     22 O22         3.5967   54.6919   27.2596 O.3       1 UNK         0.0000 
     23 C23         2.7251   54.3572   28.2800 C.ar      1 UNK         0.0000 
     24 C24         2.0728   55.4120   28.9207 C.ar      1 UNK         0.0000 
     25 C25         1.1808   55.1683   29.9614 C.ar      1 UNK         0.0000 
     26 C26         0.9177   53.8568   30.3510 C.ar      1 UNK         0.0000 
     27 C27         1.5532   52.7913   29.7179 C.ar      1 UNK         0.0000 
     28 C28         2.4598   53.0389   28.6903 C.ar      1 UNK         0.0000 
     29 C29         3.4560   52.4968   21.6484 C.ar      1 UNK         0.0000 
     30 C30         3.7843   51.4571   20.7717 C.ar      1 UNK         0.0000 
     31 C31         2.7833   50.7492   20.1111 C.ar      1 UNK         0.0000 
     32 C32         1.4480   51.0679   20.3410 C.ar      1 UNK         0.0000 
     33 C33         1.1066   52.0965   21.2134 C.ar      1 UNK         0.0000 
     34 C34         2.1076   52.8174   21.8590 C.ar      1 UNK         0.0000 
     35 F35         0.4734   50.3788   19.7069 F         1 UNK         0.0000 
     36 H36         3.2013   53.7529   14.1284 H         1 UNK         0.0000 
     37 H37         4.8935   52.3531   15.2692 H         1 UNK         0.0000 
     38 H38         5.3319   52.6570   17.6600 H         1 UNK         0.0000 
     39 H39         2.3567   55.7752   17.7939 H         1 UNK         0.0000 
     40 H40         1.9322   55.4535   15.3930 H         1 UNK         0.0000 
     41 H41         3.2418   54.7938   19.7484 H         1 UNK         0.0000 
     42 H42         3.9099   52.9150   24.1895 H         1 UNK         0.0000 
     43 H43         3.9221   52.8969   26.2933 H         1 UNK         0.0000 
     44 H44         5.0670   53.2660   27.5859 H         1 UNK         0.0000 
     45 H45         2.2707   56.4294   28.6136 H         1 UNK         0.0000 
     46 H46         0.6960   55.9924   30.4626 H         1 UNK         0.0000 
     47 H47         0.2185   53.6600   31.1515 H         1 UNK         0.0000 
     48 H48         1.3380   51.7772   30.0198 H         1 UNK         0.0000 
     49 H49         2.9373   52.1970   28.2134 H         1 UNK         0.0000 
     50 H50         4.8182   51.2198   20.5685 H         1 UNK         0.0000 
     51 H51         3.0462   49.9667   19.4141 H         1 UNK         0.0000 
     52 H52         0.0697   52.3425   21.3753 H         1 UNK         0.0000 
     53 H53         1.8290   53.6328   22.5089 H         1 UNK         0.0000 
@<TRIPOS>BOND
     1    1    6 ar   
     2    1    2 ar   
     3    1   36 1    
     4    2    3 ar   
     5    2   37 1    
     6    3    4 ar   
     7    3   38 1    
     8    4    5 ar   
     9    4    7 1    
    10    5    6 ar   
    11    5   39 1    
    12    6   40 1    
    13    7    8 am   BACKBONE|DICT|INTERRES
    14    7   41 1    
    15    8    9 2    
    16    8   10 1    
    17   10   11 1    
    18   10   20 1    
    19   10   12 1    
    20   12   13 1    
    21   12   14 1    
    22   12   29 1    
    23   14   15 1    
    24   14   42 1    
    25   15   19 ar   
    26   15   16 ar   
    27   16   17 ar   
    28   16   21 1    
    29   17   18 ar   
    30   18   19 ar   
    31   19   20 1    
    32   21   22 1    
    33   21   43 1    
    34   21   44 1    
    35   22   23 1    
    36   23   28 ar   
    37   23   24 ar   
    38   24   25 ar   
    39   24   45 1    
    40   25   26 ar   
    41   25   46 1    
    42   26   27 ar   
    43   26   47 1    
    44   27   28 ar   
    45   27   48 1    
    46   28   49 1    
    47   29   34 ar   
    48   29   30 ar   
    49   30   31 ar   
    50   30   50 1    
    51   31   32 ar   
    52   31   51 1    
    53   32   33 ar   
    54   32   35 1    
    55   33   34 ar   
    56   33   52 1    
    57   34   53 1    
@<TRIPOS>SUBSTRUCTURE
     1 UNK         1 GROUP             0       ****    0 ROOT    
