@<TRIPOS>MOLECULE
ZINC33106832_2410
56   59    1
SMALL
USER_CHARGES


@<TRIPOS>ATOM
      1 C1         -3.4470   50.6102   28.6621 C.3       1 UNK         0.0000 
      2 C2         -2.5064   51.1072   27.5793 C.ar      1 UNK         0.0000 
      3 C3         -2.8347   50.9372   26.2355 C.ar      1 UNK         0.0000 
      4 C4         -1.9568   51.3643   25.2422 C.ar      1 UNK         0.0000 
      5 C5         -0.7420   51.9700   25.5779 C.ar      1 UNK         0.0000 
      6 C6         -0.3985   52.1398   26.9343 C.ar      1 UNK         0.0000 
      7 C7         -1.2893   51.6955   27.9256 C.ar      1 UNK         0.0000 
      8 N8          0.8037   52.8183   27.2170 N.am      1 UNK         0.0000 
      9 C9          1.3704   53.1514   28.3971 C.2       1 UNK         0.0000 
     10 O10         1.0785   52.6201   29.4704 O.2       1 UNK         0.0000 
     11 N11         2.1776   54.2475   28.3193 N.am      1 UNK         0.0000 
     12 C12         2.8189   54.7740   29.5337 C.3       1 UNK         0.0000 
     13 C13         4.1924   54.0769   29.6607 C.3       1 UNK         0.0000 
     14 C14         5.0756   54.2472   28.4014 C.3       1 UNK         0.0000 
     15 C15         4.2914   53.8778   27.1134 C.3       1 UNK         0.0000 
     16 H16         4.0523   52.8153   27.1798 H         1 UNK         0.0000 
     17 C17         2.9329   54.6213   27.1057 C.3       1 UNK         0.0000 
     18 C18         5.0524   54.1107   25.8149 C.2       1 UNK         0.0000 
     19 N19         6.3368   54.3703   25.7438 N.2       1 UNK         0.0000 
     20 N20         6.7845   54.5873   24.4486 N.2       1 UNK         0.0000 
     21 C21         5.8438   54.4968   23.5360 C.2       1 UNK         0.0000 
     22 S22         4.2991   54.0967   24.2409 S.3       1 UNK         0.0000 
     23 C23         5.9049   54.7094   22.1092 C.2       1 UNK         0.0000 
     24 O24         4.9644   54.4078   21.3726 O.2       1 UNK         0.0000 
     25 N25         7.0497   55.2964   21.6917 N.am      1 UNK         0.0000 
     26 C26         7.3597   55.7186   20.3872 C.ar      1 UNK         0.0000 
     27 C27         8.7042   55.6966   20.0164 C.ar      1 UNK         0.0000 
     28 C28         9.0900   56.1359   18.7528 C.ar      1 UNK         0.0000 
     29 C29         8.1313   56.6096   17.8625 C.ar      1 UNK         0.0000 
     30 C30         6.7868   56.6442   18.2238 C.ar      1 UNK         0.0000 
     31 C31         6.3973   56.1983   19.4842 C.ar      1 UNK         0.0000 
     32 F32         8.5095   57.0440   16.6398 F         1 UNK         0.0000 
     33 C33         0.1781   52.4335   24.4511 C.3       1 UNK         0.0000 
     34 H34        -3.8291   49.6232   28.4004 H         1 UNK         0.0000 
     35 H35        -2.9358   50.4971   29.6195 H         1 UNK         0.0000 
     36 H36        -4.2943   51.2842   28.7801 H         1 UNK         0.0000 
     37 H37        -3.7662   50.4647   25.9603 H         1 UNK         0.0000 
     38 H38        -2.2278   51.2216   24.2065 H         1 UNK         0.0000 
     39 H39        -1.0685   51.8044   28.9751 H         1 UNK         0.0000 
     40 H40         1.2254   53.2322   26.4018 H         1 UNK         0.0000 
     41 H41         2.1665   54.6989   30.4052 H         1 UNK         0.0000 
     42 H42         2.9493   55.8482   29.3919 H         1 UNK         0.0000 
     43 H43         4.0542   53.0175   29.8844 H         1 UNK         0.0000 
     44 H44         4.7044   54.4967   30.5174 H         1 UNK         0.0000 
     45 H45         5.9672   53.6272   28.5099 H         1 UNK         0.0000 
     46 H46         5.3734   55.2967   28.3666 H         1 UNK         0.0000 
     47 H47         3.1028   55.6952   27.1775 H         1 UNK         0.0000 
     48 H48         2.3411   54.4967   26.1993 H         1 UNK         0.0000 
     49 H49         7.7878   55.3871   22.3763 H         1 UNK         0.0000 
     50 H50         9.4594   55.3371   20.6982 H         1 UNK         0.0000 
     51 H51        10.1313   56.1140   18.4675 H         1 UNK         0.0000 
     52 H52         6.0510   57.0180   17.5279 H         1 UNK         0.0000 
     53 H53         5.3516   56.2420   19.7454 H         1 UNK         0.0000 
     54 H54        -0.1987   52.1558   23.4658 H         1 UNK         0.0000 
     55 H55         0.3005   53.5172   24.4790 H         1 UNK         0.0000 
     56 H56         1.1669   51.9866   24.5638 H         1 UNK         0.0000 
@<TRIPOS>BOND
     1    1    2 1    
     2    1   34 1    
     3    1   35 1    
     4    1   36 1    
     5    2    7 ar   
     6    2    3 ar   
     7    3    4 ar   
     8    3   37 1    
     9    4    5 ar   
    10    4   38 1    
    11    5    6 ar   
    12    5   33 1    
    13    6    7 ar   
    14    6    8 1    
    15    7   39 1    
    16    8    9 am   BACKBONE|DICT|INTERRES
    17    8   40 1    
    18    9   10 2    
    19    9   11 am   BACKBONE|DICT|INTERRES
    20   11   17 1    
    21   11   12 1    
    22   12   13 1    
    23   12   41 1    
    24   12   42 1    
    25   13   14 1    
    26   13   43 1    
    27   13   44 1    
    28   14   15 1    
    29   14   45 1    
    30   14   46 1    
    31   15   16 1    
    32   15   17 1    
    33   15   18 1    
    34   17   47 1    
    35   17   48 1    
    36   18   22 1    
    37   18   19 2    
    38   19   20 1    
    39   20   21 2    
    40   21   22 1    
    41   21   23 1    
    42   23   24 2    
    43   23   25 am   BACKBONE|DICT|INTERRES
    44   25   26 1    
    45   25   49 1    
    46   26   31 ar   
    47   26   27 ar   
    48   27   28 ar   
    49   27   50 1    
    50   28   29 ar   
    51   28   51 1    
    52   29   30 ar   
    53   29   32 1    
    54   30   31 ar   
    55   30   52 1    
    56   31   53 1    
    57   33   54 1    
    58   33   55 1    
    59   33   56 1    
@<TRIPOS>SUBSTRUCTURE
     1 UNK         1 GROUP             0       ****    0 ROOT    
