@<TRIPOS>MOLECULE
ZINC35693552_5954
61   64    1
SMALL
USER_CHARGES


@<TRIPOS>ATOM
      1 C1         -1.5263   47.4957   19.2318 C.3       1 UNK         0.0000 
      2 C2         -0.2483   47.0475   19.9546 C.3       1 UNK         0.0000 
      3 O3          0.6677   48.1322   20.0825 O.3       1 UNK         0.0000 
      4 C4          0.5853   49.0370   21.0938 C.2       1 UNK         0.0000 
      5 O5         -0.1658   48.8702   22.0555 O.2       1 UNK         0.0000 
      6 C6          1.4787   50.2248   20.9647 C.2       1 UNK         0.0000 
      7 C7          2.1078   50.5658   19.7947 C.2       1 UNK         0.0000 
      8 N8          2.9501   51.6261   19.6826 N.2       1 UNK         0.0000 
      9 C9          3.1228   52.4026   20.6685 C.2       1 UNK         0.0000 
     10 N10         2.5356   52.3240   21.9323 N.pl3     1 UNK         0.0000 
     11 C11         1.6968   51.1116   22.2505 C.3       1 UNK         0.0000 
     12 H12         2.3218   50.5155   22.9178 H         1 UNK         0.0000 
     13 C13         0.4155   51.4559   23.0501 C.ar      1 UNK         0.0000 
     14 C14         0.3556   51.0826   24.4012 C.ar      1 UNK         0.0000 
     15 C15        -0.7469   51.3998   25.1958 C.ar      1 UNK         0.0000 
     16 C16        -1.8287   52.0713   24.6284 C.ar      1 UNK         0.0000 
     17 C17        -1.8144   52.3958   23.2743 C.ar      1 UNK         0.0000 
     18 C18        -0.7122   52.0744   22.4730 C.ar      1 UNK         0.0000 
     19 C19        -0.7971   52.3460   20.9799 C.3       1 UNK         0.0000 
     20 C20        -0.7645   51.0038   26.6612 C.3       1 UNK         0.0000 
     21 C21         3.0064   53.2963   22.8230 C.2       1 UNK         0.0000 
     22 C22         3.9317   54.0971   22.2629 C.2       1 UNK         0.0000 
     23 S23         4.3045   53.7191   20.5993 S.3       1 UNK         0.0000 
     24 C24         2.6696   53.4098   24.2368 C.2       1 UNK         0.0000 
     25 C25         3.5046   53.7421   25.2400 C.2       1 UNK         0.0000 
     26 O26         4.7429   54.0965   25.2256 O.co2     1 UNK         0.0000 
     27 N27         3.0584   53.6975   26.5363 N.pl3     1 UNK         0.0000 
     28 C28         3.2298   54.7426   27.5329 C.3       1 UNK         0.0000 
     29 C29         2.2721   54.6211   28.7081 C.ar      1 UNK         0.0000 
     30 C30         1.7181   53.3999   29.1239 C.ar      1 UNK         0.0000 
     31 C31         0.8486   53.3717   30.2158 C.ar      1 UNK         0.0000 
     32 C32         0.5626   54.5718   30.8658 C.ar      1 UNK         0.0000 
     33 N33         1.0928   55.7635   30.4841 N.ar      1 UNK         0.0000 
     34 C34         1.9253   55.7745   29.4172 C.ar      1 UNK         0.0000 
     35 C35         1.9508   49.9231   18.4167 C.3       1 UNK         0.0000 
     36 H36        -2.2079   46.6571   19.0917 H         1 UNK         0.0000 
     37 H37        -1.2969   47.9070   18.2487 H         1 UNK         0.0000 
     38 H38        -2.0531   48.2628   19.8008 H         1 UNK         0.0000 
     39 H39        -0.4955   46.6091   20.9214 H         1 UNK         0.0000 
     40 H40         0.2398   46.2653   19.3731 H         1 UNK         0.0000 
     41 H41         1.1852   50.5598   24.8487 H         1 UNK         0.0000 
     42 H42        -2.6917   52.3207   25.2284 H         1 UNK         0.0000 
     43 H43        -2.6790   52.8798   22.8454 H         1 UNK         0.0000 
     44 H44        -1.6961   52.8966   20.7201 H         1 UNK         0.0000 
     45 H45         0.0766   52.8965   20.6328 H         1 UNK         0.0000 
     46 H46        -0.8392   51.4127   20.4218 H         1 UNK         0.0000 
     47 H47        -1.7529   51.1190   27.1091 H         1 UNK         0.0000 
     48 H48        -0.4815   49.9556   26.7712 H         1 UNK         0.0000 
     49 H49        -0.0464   51.5997   27.2255 H         1 UNK         0.0000 
     50 H50         4.4607   54.8946   22.7603 H         1 UNK         0.0000 
     51 H51         1.6514   53.2116   24.5182 H         1 UNK         0.0000 
     52 H52         3.0776   52.7802   26.9520 H         1 UNK         0.0000 
     53 H53         4.2523   54.7182   27.9127 H         1 UNK         0.0000 
     54 H54         3.1043   55.6965   27.0313 H         1 UNK         0.0000 
     55 H55         1.9534   52.4786   28.6124 H         1 UNK         0.0000 
     56 H56         0.4079   52.4438   30.5532 H         1 UNK         0.0000 
     57 H57        -0.0961   54.5870   31.7223 H         1 UNK         0.0000 
     58 H58         2.3222   56.7414   29.1419 H         1 UNK         0.0000 
     59 H59         2.5286   49.0004   18.3789 H         1 UNK         0.0000 
     60 H60         0.9078   49.7001   18.1965 H         1 UNK         0.0000 
     61 H61         2.3032   50.5568   17.5998 H         1 UNK         0.0000 
@<TRIPOS>BOND
     1    1    2 1    
     2    1   36 1    
     3    1   37 1    
     4    1   38 1    
     5    2    3 1    
     6    2   39 1    
     7    2   40 1    
     8    3    4 1    
     9    4    5 2    
    10    4    6 1    
    11    6   11 1    
    12    6    7 2    
    13    7    8 1    
    14    7   35 1    
    15    8    9 2    
    16    9   23 1    
    17    9   10 1    
    18   10   11 1    
    19   10   21 1    
    20   11   12 1    
    21   11   13 1    
    22   13   18 ar   
    23   13   14 ar   
    24   14   15 ar   
    25   14   41 1    
    26   15   16 ar   
    27   15   20 1    
    28   16   17 ar   
    29   16   42 1    
    30   17   18 ar   
    31   17   43 1    
    32   18   19 1    
    33   19   44 1    
    34   19   45 1    
    35   19   46 1    
    36   20   47 1    
    37   20   48 1    
    38   20   49 1    
    39   21   22 2    
    40   21   24 1    
    41   22   23 1    
    42   22   50 1    
    43   24   25 2    
    44   24   51 1    
    45   25   26 1    
    46   25   27 1    
    47   27   28 1    
    48   27   52 1    
    49   28   29 1    
    50   28   53 1    
    51   28   54 1    
    52   29   34 ar   
    53   29   30 ar   
    54   30   31 ar   
    55   30   55 1    
    56   31   32 ar   
    57   31   56 1    
    58   32   33 ar   
    59   32   57 1    
    60   33   34 ar   
    61   34   58 1    
    62   35   59 1    
    63   35   60 1    
    64   35   61 1    
@<TRIPOS>SUBSTRUCTURE
     1 UNK         1 GROUP             0       ****    0 ROOT    
