@<TRIPOS>MOLECULE
ZINC16007103_723
60   66    1
SMALL
USER_CHARGES


@<TRIPOS>ATOM
      1 C1         -7.0157   46.8164   24.1324 C.ar      1 UNK         0.0000 
      2 C2         -6.1425   47.2495   25.1259 C.ar      1 UNK         0.0000 
      3 C3         -4.8811   47.7328   24.7825 C.ar      1 UNK         0.0000 
      4 C4         -4.4657   47.8097   23.4449 C.ar      1 UNK         0.0000 
      5 C5         -5.3512   47.3344   22.4550 C.ar      1 UNK         0.0000 
      6 C6         -6.6214   46.8598   22.7976 C.ar      1 UNK         0.0000 
      7 C7         -4.9641   47.4101   21.0381 C.2       1 UNK         0.0000 
      8 C8         -3.9122   48.1250   20.6035 C.2       1 UNK         0.0000 
      9 C9         -3.0631   48.3018   23.0062 C.3       1 UNK         0.0000 
     10 H10        -2.4774   47.3878   22.8764 H         1 UNK         0.0000 
     11 C11        -2.2579   49.3985   23.7753 C.3       1 UNK         0.0000 
     12 C12        -3.0972   50.4250   24.5093 C.ar      1 UNK         0.0000 
     13 C13        -4.0330   51.3589   24.0571 C.ar      1 UNK         0.0000 
     14 C14        -4.6810   52.1895   24.9747 C.ar      1 UNK         0.0000 
     15 C15        -4.4029   52.0790   26.3404 C.ar      1 UNK         0.0000 
     16 C16        -3.4769   51.1361   26.7951 C.ar      1 UNK         0.0000 
     17 C17        -2.8370   50.3200   25.8636 C.ar      1 UNK         0.0000 
     18 N18        -1.9304   49.2979   26.0815 N.am      1 UNK         0.0000 
     19 C19        -1.5087   48.7133   24.9438 C.2       1 UNK         0.0000 
     20 O20        -0.7108   47.7854   24.8317 O.2       1 UNK         0.0000 
     21 C21        -1.2104   49.8958   22.6861 C.3       1 UNK         0.0000 
     22 H22        -0.2146   49.4994   22.9011 H         1 UNK         0.0000 
     23 C23        -1.6842   49.3684   21.2894 C.3       1 UNK         0.0000 
     24 H24        -1.7937   50.1204   20.5059 H         1 UNK         0.0000 
     25 C25        -0.7795   48.2368   20.7226 C.2       1 UNK         0.0000 
     26 O26        -1.1243   47.0542   20.7627 O.2       1 UNK         0.0000 
     27 C27         0.4869   48.6362   20.1176 C.2       1 UNK         0.0000 
     28 C28         1.1429   49.8607   20.0257 C.2       1 UNK         0.0000 
     29 C29         2.3041   49.6405   19.2849 C.2       1 UNK         0.0000 
     30 C30         2.3044   48.2989   18.9469 C.2       1 UNK         0.0000 
     31 O31         1.2106   47.6842   19.4667 O.3       1 UNK         0.0000 
     32 C32        -1.0192   51.4388   22.6169 C.2       1 UNK         0.0000 
     33 O33        -1.7304   52.0964   21.8529 O.2       1 UNK         0.0000 
     34 C34         0.1931   52.0259   23.2567 C.ar      1 UNK         0.0000 
     35 C35         0.4489   51.8271   24.6181 C.ar      1 UNK         0.0000 
     36 C36         1.5025   52.4976   25.2354 C.ar      1 UNK         0.0000 
     37 C37         2.3045   53.3618   24.4960 C.ar      1 UNK         0.0000 
     38 C38         2.0659   53.5596   23.1401 C.ar      1 UNK         0.0000 
     39 C39         1.0090   52.8973   22.5224 C.ar      1 UNK         0.0000 
     40 F40         3.3191   54.0194   25.1010 F         1 UNK         0.0000 
     41 H41        -7.9958   46.4453   24.3966 H         1 UNK         0.0000 
     42 H42        -6.4402   47.2091   26.1638 H         1 UNK         0.0000 
     43 H43        -4.2272   48.0400   25.5820 H         1 UNK         0.0000 
     44 H44        -7.3086   46.5239   22.0338 H         1 UNK         0.0000 
     45 H45        -5.5538   46.8780   20.3040 H         1 UNK         0.0000 
     46 H46        -3.6362   48.2207   19.5617 H         1 UNK         0.0000 
     47 H47        -4.2657   51.4460   23.0074 H         1 UNK         0.0000 
     48 H48        -5.4069   52.9111   24.6274 H         1 UNK         0.0000 
     49 H49        -4.9154   52.7180   27.0437 H         1 UNK         0.0000 
     50 H50        -3.2755   51.0365   27.8527 H         1 UNK         0.0000 
     51 H51        -1.6958   48.9257   27.0180 H         1 UNK         0.0000 
     52 H52         0.8229   50.8083   20.4303 H         1 UNK         0.0000 
     53 H53         3.0572   50.3652   19.0007 H         1 UNK         0.0000 
     54 H54         2.9876   47.6903   18.3709 H         1 UNK         0.0000 
     55 H55        -0.1776   51.1889   25.2207 H         1 UNK         0.0000 
     56 H56         1.6942   52.3570   26.2889 H         1 UNK         0.0000 
     57 H57         2.6884   54.2374   22.5733 H         1 UNK         0.0000 
     58 H58         0.8196   53.0905   21.4746 H         1 UNK         0.0000 
     59 N59        -3.1289   48.9008   21.5804 N.4       1 UNK         0.0000 
     60 H60        -3.6445   49.7616   21.7020 H         1 UNK         0.0000 
@<TRIPOS>BOND
     1    1    6 ar   
     2    1    2 ar   
     3    1   41 1    
     4    2    3 ar   
     5    2   42 1    
     6    3    4 ar   
     7    3   43 1    
     8    4    9 1    
     9    4    5 ar   
    10    5    6 ar   
    11    5    7 1    
    12    6   44 1    
    13    7    8 2    
    14    7   45 1    
    15    8   46 1    
    16    8   59 1    
    17    9   10 1    
    18    9   11 1    
    19    9   59 1    
    20   11   19 1    
    21   11   12 1    
    22   11   21 1    
    23   12   17 ar   
    24   12   13 ar   
    25   13   14 ar   
    26   13   47 1    
    27   14   15 ar   
    28   14   48 1    
    29   15   16 ar   
    30   15   49 1    
    31   16   17 ar   
    32   16   50 1    
    33   17   18 1    
    34   18   19 am   BACKBONE|DICT|INTERRES
    35   18   51 1    
    36   19   20 2    
    37   21   22 1    
    38   21   23 1    
    39   21   32 1    
    40   23   24 1    
    41   23   25 1    
    42   23   59 1    
    43   25   26 2    
    44   25   27 1    
    45   27   31 1    
    46   27   28 2    
    47   28   29 1    
    48   28   52 1    
    49   29   30 2    
    50   29   53 1    
    51   30   31 1    
    52   30   54 1    
    53   32   33 2    
    54   32   34 1    
    55   34   39 ar   
    56   34   35 ar   
    57   35   36 ar   
    58   35   55 1    
    59   36   37 ar   
    60   36   56 1    
    61   37   38 ar   
    62   37   40 1    
    63   38   39 ar   
    64   38   57 1    
    65   39   58 1    
    66   59   60 1    
@<TRIPOS>SUBSTRUCTURE
     1 UNK         1 GROUP             0       ****    0 ROOT    
