@<TRIPOS>MOLECULE
ZINC38507141_6191
49   51    1
SMALL
USER_CHARGES


@<TRIPOS>ATOM
      1 C1         -6.6247   49.8761   26.0391 C.3       1 UNK         0.0000 
      2 C2         -5.3505   50.5764   26.5284 C.3       1 UNK         0.0000 
      3 C3         -4.2262   49.5747   26.8632 C.3       1 UNK         0.0000 
      4 N4         -2.8955   50.2503   27.2815 N.4       1 UNK         0.0000 
      5 C5         -3.0447   51.2326   28.4604 C.3       1 UNK         0.0000 
      6 C6         -1.6394   51.5554   29.0260 C.3       1 UNK         0.0000 
      7 C7         -0.5985   51.8450   27.9481 C.2       1 UNK         0.0000 
      8 C8         -0.8852   51.5417   26.6113 C.2       1 UNK         0.0000 
      9 S9          0.3745   52.0493   25.5534 S.3       1 UNK         0.0000 
     10 C10         1.3095   52.7022   26.8819 C.2       1 UNK         0.0000 
     11 C11         0.6738   52.4842   28.1282 C.2       1 UNK         0.0000 
     12 C12         1.2475   52.9433   29.4042 C.2       1 UNK         0.0000 
     13 O13         2.2141   53.6987   29.4598 O.2       1 UNK         0.0000 
     14 N14         0.7028   52.4967   30.5362 N.am      1 UNK         0.0000 
     15 N15         2.5625   53.2977   26.6764 N.am      1 UNK         0.0000 
     16 C16         3.0978   53.7388   25.5147 C.2       1 UNK         0.0000 
     17 O17         2.4827   53.7947   24.4506 O.2       1 UNK         0.0000 
     18 C18         4.4921   54.1625   25.5593 C.ar      1 UNK         0.0000 
     19 C19         5.3394   54.3958   24.4642 C.ar      1 UNK         0.0000 
     20 C20         6.5408   54.8162   25.0376 C.ar      1 UNK         0.0000 
     21 N21         6.5042   54.8803   26.3411 N.2       1 UNK         0.0000 
     22 N22         5.2641   54.4968   26.6649 N.pl3     1 UNK         0.0000 
     23 C23         4.9314   54.4941   28.0860 C.3       1 UNK         0.0000 
     24 C24         5.0790   54.1729   22.9891 C.3       1 UNK         0.0000 
     25 C25        -2.1743   50.9198   26.0825 C.3       1 UNK         0.0000 
     26 H26        -7.4132   50.6014   25.8340 H         1 UNK         0.0000 
     27 H27        -7.0067   49.1758   26.7857 H         1 UNK         0.0000 
     28 H28        -6.4427   49.3186   25.1181 H         1 UNK         0.0000 
     29 H29        -5.0283   51.2841   25.7639 H         1 UNK         0.0000 
     30 H30        -5.6049   51.1659   27.4096 H         1 UNK         0.0000 
     31 H31        -4.4837   48.9297   27.7076 H         1 UNK         0.0000 
     32 H32        -3.9719   48.9265   26.0205 H         1 UNK         0.0000 
     33 H33        -3.5794   52.0966   28.0775 H         1 UNK         0.0000 
     34 H34        -3.6413   50.7237   29.2217 H         1 UNK         0.0000 
     35 H35        -1.6955   52.4124   29.6817 H         1 UNK         0.0000 
     36 H36        -1.3041   50.7292   29.6465 H         1 UNK         0.0000 
     37 H37        -0.0822   51.8644   30.5329 H         1 UNK         0.0000 
     38 H38         1.0718   52.8049   31.4236 H         1 UNK         0.0000 
     39 H39         3.0758   53.4859   27.5230 H         1 UNK         0.0000 
     40 H40         7.4323   55.0679   24.4840 H         1 UNK         0.0000 
     41 H41         4.0509   55.1153   28.2507 H         1 UNK         0.0000 
     42 H42         4.7466   53.4713   28.4169 H         1 UNK         0.0000 
     43 H43         5.7499   54.9001   28.6855 H         1 UNK         0.0000 
     44 H44         5.9905   54.1986   22.3882 H         1 UNK         0.0000 
     45 H45         4.6216   53.1970   22.8174 H         1 UNK         0.0000 
     46 H46         4.3743   54.8958   22.5825 H         1 UNK         0.0000 
     47 H47        -1.9892   50.1146   25.3676 H         1 UNK         0.0000 
     48 H48        -2.8413   51.6685   25.6529 H         1 UNK         0.0000 
     49 H49        -2.3042   49.4814   27.6366 H         1 UNK         0.0000 
@<TRIPOS>BOND
     1    1    2 1    
     2    1   26 1    
     3    1   27 1    
     4    1   28 1    
     5    2    3 1    
     6    2   29 1    
     7    2   30 1    
     8    3    4 1    
     9    3   31 1    
    10    3   32 1    
    11    4   25 1    
    12    4    5 1    
    13    4   49 1    
    14    5    6 1    
    15    5   33 1    
    16    5   34 1    
    17    6    7 1    
    18    6   35 1    
    19    6   36 1    
    20    7   11 1    
    21    7    8 2    
    22    8    9 1    
    23    8   25 1    
    24    9   10 1    
    25   10   11 2    
    26   10   15 am   BACKBONE|DICT|INTERRES
    27   11   12 1    
    28   12   13 2    
    29   12   14 am   BACKBONE|DICT|INTERRES
    30   14   37 1    
    31   14   38 1    
    32   15   16 am   BACKBONE|DICT|INTERRES
    33   15   39 1    
    34   16   17 2    
    35   16   18 1    
    36   18   22 ar   
    37   18   19 ar   
    38   19   20 ar   
    39   19   24 1    
    40   20   21 ar   
    41   20   40 1    
    42   21   22 ar   
    43   22   23 1    
    44   23   41 1    
    45   23   42 1    
    46   23   43 1    
    47   24   44 1    
    48   24   45 1    
    49   24   46 1    
    50   25   47 1    
    51   25   48 1    
@<TRIPOS>SUBSTRUCTURE
     1 UNK         1 GROUP             0       ****    0 ROOT    
