@<TRIPOS>MOLECULE
ZINC11667734_5532
65   69    1
SMALL
USER_CHARGES


@<TRIPOS>ATOM
      1 C1          0.1914   53.9182   30.8425 C.3       1 UNK         0.0000 
      2 C2          0.7669   52.6026   30.2740 C.3       1 UNK         0.0000 
      3 C3         -0.3260   51.6984   29.6764 C.3       1 UNK         0.0000 
      4 N4          1.9219   52.8261   29.2481 N.4       1 UNK         0.0000 
      5 C5          3.0392   53.7027   29.8625 C.3       1 UNK         0.0000 
      6 C6          4.3110   53.6230   29.0016 C.3       1 UNK         0.0000 
      7 C7          4.0012   53.7512   27.5072 C.2       1 UNK         0.0000 
      8 C8          2.6905   53.5940   27.0340 C.2       1 UNK         0.0000 
      9 S9          2.6014   53.6966   25.3113 S.3       1 UNK         0.0000 
     10 C10         4.2956   54.0972   25.2088 C.2       1 UNK         0.0000 
     11 C11         4.9167   54.0993   26.4709 C.2       1 UNK         0.0000 
     12 C12         6.3056   54.4935   26.6542 C.2       1 UNK         0.0000 
     13 O13         6.8676   55.2835   25.8980 O.2       1 UNK         0.0000 
     14 N14         6.9511   53.9481   27.6818 N.am      1 UNK         0.0000 
     15 N15         4.9350   54.3776   24.0030 N.am      1 UNK         0.0000 
     16 C16         4.5423   54.0963   22.7427 C.2       1 UNK         0.0000 
     17 O17         3.5214   53.4651   22.4651 O.2       1 UNK         0.0000 
     18 C18         5.4567   54.6032   21.6422 C.ar      1 UNK         0.0000 
     19 C19         6.7083   55.1875   21.9179 C.ar      1 UNK         0.0000 
     20 C20         7.4968   55.6969   20.8893 C.ar      1 UNK         0.0000 
     21 C21         7.0317   55.6583   19.5750 C.ar      1 UNK         0.0000 
     22 C22         5.8050   55.0623   19.2840 C.ar      1 UNK         0.0000 
     23 C23         5.0320   54.5253   20.3081 C.ar      1 UNK         0.0000 
     24 S24         7.9829   56.4165   18.2569 S.o2      1 UNK         0.0000 
     25 O25         7.0251   57.0606   17.3521 O.2       1 UNK         0.0000 
     26 O26         9.0615   57.1906   18.8808 O.2       1 UNK         0.0000 
     27 N27         8.7537   55.0862   17.3646 N.pl3     1 UNK         0.0000 
     28 C28         9.9751   54.4768   17.8772 C.3       1 UNK         0.0000 
     29 C29        10.2617   53.3065   16.9371 C.3       1 UNK         0.0000 
     30 C30         8.9236   53.0585   16.3030 C.ar      1 UNK         0.0000 
     31 C31         8.0975   54.1511   16.5512 C.ar      1 UNK         0.0000 
     32 C32         6.8369   54.2217   15.9506 C.ar      1 UNK         0.0000 
     33 C33         6.3979   53.1787   15.1339 C.ar      1 UNK         0.0000 
     34 C34         7.2298   52.0861   14.8884 C.ar      1 UNK         0.0000 
     35 C35         8.5019   52.0295   15.4602 C.ar      1 UNK         0.0000 
     36 C36         1.4485   53.4239   27.8986 C.3       1 UNK         0.0000 
     37 H37        -0.4956   53.6866   31.6558 H         1 UNK         0.0000 
     38 H38        -0.3549   54.4895   30.0922 H         1 UNK         0.0000 
     39 H39         0.9418   54.5714   31.2823 H         1 UNK         0.0000 
     40 H40         1.2626   52.0539   31.0779 H         1 UNK         0.0000 
     41 H41        -0.9798   51.3057   30.4588 H         1 UNK         0.0000 
     42 H42        -0.9606   52.2306   28.9684 H         1 UNK         0.0000 
     43 H43         0.1002   50.8466   29.1512 H         1 UNK         0.0000 
     44 H44         2.6589   54.7250   29.9250 H         1 UNK         0.0000 
     45 H45         3.2514   53.2968   30.8537 H         1 UNK         0.0000 
     46 H46         5.0042   54.3937   29.3418 H         1 UNK         0.0000 
     47 H47         4.8002   52.6632   29.1719 H         1 UNK         0.0000 
     48 H48         6.5335   53.2023   28.2152 H         1 UNK         0.0000 
     49 H49         7.8822   54.2610   27.9049 H         1 UNK         0.0000 
     50 H50         5.8726   54.7356   24.1136 H         1 UNK         0.0000 
     51 H51         7.1011   55.2594   22.9224 H         1 UNK         0.0000 
     52 H52         8.4612   56.1257   21.1235 H         1 UNK         0.0000 
     53 H53         5.4336   55.0294   18.2712 H         1 UNK         0.0000 
     54 H54         4.0760   54.0866   20.0541 H         1 UNK         0.0000 
     55 H55        10.7906   55.1947   17.9750 H         1 UNK         0.0000 
     56 H56         9.7749   54.1058   18.8818 H         1 UNK         0.0000 
     57 H57        11.0224   53.5793   16.2049 H         1 UNK         0.0000 
     58 H58        10.6234   52.4415   17.4897 H         1 UNK         0.0000 
     59 H59         6.1906   55.0725   16.0955 H         1 UNK         0.0000 
     60 H60         5.4191   53.2239   14.6802 H         1 UNK         0.0000 
     61 H61         6.8910   51.2870   14.2460 H         1 UNK         0.0000 
     62 H62         9.1492   51.1939   15.2387 H         1 UNK         0.0000 
     63 H63         0.7468   52.7111   27.4638 H         1 UNK         0.0000 
     64 H64         0.9444   54.3716   28.0959 H         1 UNK         0.0000 
     65 H65         2.3131   51.9113   29.0682 H         1 UNK         0.0000 
@<TRIPOS>BOND
     1    1    2 1    
     2    1   37 1    
     3    1   38 1    
     4    1   39 1    
     5    2    3 1    
     6    2    4 1    
     7    2   40 1    
     8    3   41 1    
     9    3   42 1    
    10    3   43 1    
    11    4   36 1    
    12    4    5 1    
    13    4   65 1    
    14    5    6 1    
    15    5   44 1    
    16    5   45 1    
    17    6    7 1    
    18    6   46 1    
    19    6   47 1    
    20    7   11 1    
    21    7    8 2    
    22    8    9 1    
    23    8   36 1    
    24    9   10 1    
    25   10   11 2    
    26   10   15 am   BACKBONE|DICT|INTERRES
    27   11   12 1    
    28   12   13 2    
    29   12   14 am   BACKBONE|DICT|INTERRES
    30   14   48 1    
    31   14   49 1    
    32   15   16 am   BACKBONE|DICT|INTERRES
    33   15   50 1    
    34   16   17 2    
    35   16   18 1    
    36   18   23 ar   
    37   18   19 ar   
    38   19   20 ar   
    39   19   51 1    
    40   20   21 ar   
    41   20   52 1    
    42   21   22 ar   
    43   21   24 1    
    44   22   23 ar   
    45   22   53 1    
    46   23   54 1    
    47   24   25 2    
    48   24   26 2    
    49   24   27 1    
    50   27   31 1    
    51   27   28 1    
    52   28   29 1    
    53   28   55 1    
    54   28   56 1    
    55   29   30 1    
    56   29   57 1    
    57   29   58 1    
    58   30   35 ar   
    59   30   31 ar   
    60   31   32 ar   
    61   32   33 ar   
    62   32   59 1    
    63   33   34 ar   
    64   33   60 1    
    65   34   35 ar   
    66   34   61 1    
    67   35   62 1    
    68   36   63 1    
    69   36   64 1    
@<TRIPOS>SUBSTRUCTURE
     1 UNK         1 GROUP             0       ****    0 ROOT    
