ZINC46815489_2425
                    3D
 Schrodinger Suite 2024-2.
 56 59  0  0  1  0            999 V2000
    0.6328   49.3960   20.6060 C   0  0  0  0  0  0
   -0.2564   48.3318   20.5154 C   0  0  0  0  0  0
   -0.0660   47.3141   19.5715 C   0  0  0  0  0  0
    1.0207   47.4070   18.6964 C   0  0  0  0  0  0
    1.9040   48.4770   18.7758 C   0  0  0  0  0  0
    1.7268   49.4752   19.7331 C   0  0  0  0  0  0
    2.7045   50.4888   19.7611 N   0  0  0  0  0  0
    2.7465   51.6208   20.5005 C   0  0  0  0  0  0
    1.8424   51.9988   21.2487 O   0  0  0  0  0  0
    4.0418   52.4561   20.3780 C   0  0  1  0  0  0
    4.8516   51.7290   20.4660 H   0  0  0  0  0  0
    4.1073   53.0990   18.9824 C   0  0  0  0  0  0
    5.4558   53.8172   18.9027 C   0  0  0  0  0  0
    5.5671   54.9343   19.9559 C   0  0  0  0  0  0
    5.3058   54.3975   21.3243 N   0  0  0  0  0  0
    4.1391   53.5004   21.5261 C   0  0  0  0  0  0
    6.1151   54.8210   22.3455 C   0  0  0  0  0  0
    7.1047   55.5243   22.1281 O   0  0  0  0  0  0
    5.8160   54.4969   23.8065 C   0  0  0  0  0  0
    6.8816   54.3033   24.6979 C   0  0  0  0  0  0
    6.6637   54.1022   26.0600 C   0  0  0  0  0  0
    5.3667   54.0511   26.5609 C   0  0  0  0  0  0
    4.2854   54.2267   25.6918 C   0  0  0  0  0  0
    4.5129   54.4897   24.3378 C   0  0  0  0  0  0
    2.6569   54.0966   26.2576 Cl  0  0  0  0  0  0
    5.1368   53.7518   28.2495 Cl  0  0  0  0  0  0
   -0.9171   46.2147   19.5026 N   0  0  0  0  0  0
   -1.4927   45.7967   18.2169 C   0  0  0  0  0  0
   -1.9111   44.3090   18.1486 C   0  0  0  0  0  0
   -2.2652   43.7289   19.4498 N   0  0  0  0  0  0
   -2.1243   44.3339   20.6419 C   0  0  0  0  0  0
   -2.2668   43.6959   21.6816 O   0  0  0  0  0  0
   -1.8035   45.8429   20.6205 C   0  0  0  0  0  0
    0.4475   50.1310   21.3724 H   0  0  0  0  0  0
   -1.0889   48.3040   21.2014 H   0  0  0  0  0  0
    1.2043   46.6383   17.9614 H   0  0  0  0  0  0
    2.7278   48.5085   18.0819 H   0  0  0  0  0  0
    3.4704   50.3559   19.1068 H   0  0  0  0  0  0
    4.1025   52.3619   18.1769 H   0  0  0  0  0  0
    3.3307   53.8542   18.8403 H   0  0  0  0  0  0
    6.2798   53.1096   19.0125 H   0  0  0  0  0  0
    5.5796   54.2515   17.9093 H   0  0  0  0  0  0
    6.5727   55.3420   19.8441 H   0  0  0  0  0  0
    4.8256   55.6965   19.7201 H   0  0  0  0  0  0
    3.2395   54.1174   21.5544 H   0  0  0  0  0  0
    4.2637   52.8965   22.4259 H   0  0  0  0  0  0
    7.9043   54.3050   24.3426 H   0  0  0  0  0  0
    7.5001   53.9585   26.7282 H   0  0  0  0  0  0
    3.6553   54.6904   23.7148 H   0  0  0  0  0  0
   -0.8560   46.0554   17.3709 H   0  0  0  0  0  0
   -2.4009   46.3955   18.1228 H   0  0  0  0  0  0
   -1.0252   43.7492   17.8411 H   0  0  0  0  0  0
   -2.6900   44.1506   17.4007 H   0  0  0  0  0  0
   -2.4952   42.7484   19.4851 H   0  0  0  0  0  0
   -2.7236   46.4288   20.6129 H   0  0  0  0  0  0
   -1.3007   46.0376   21.5700 H   0  0  0  0  0  0
  1  6  2  0  0  0
  1  2  1  0  0  0
  1 34  1  0  0  0
  2  3  2  0  0  0
  2 35  1  0  0  0
  3  4  1  0  0  0
  3 27  1  0  0  0
  4  5  2  0  0  0
  4 36  1  0  0  0
  5  6  1  0  0  0
  5 37  1  0  0  0
  6  7  1  0  0  0
  7  8  1  0  0  0
  7 38  1  0  0  0
  8  9  2  0  0  0
  8 10  1  0  0  0
 10 11  1  0  0  0
 10 16  1  0  0  0
 10 12  1  0  0  0
 12 13  1  0  0  0
 12 39  1  0  0  0
 12 40  1  0  0  0
 13 14  1  0  0  0
 13 41  1  0  0  0
 13 42  1  0  0  0
 14 15  1  0  0  0
 14 43  1  0  0  0
 14 44  1  0  0  0
 15 16  1  0  0  0
 15 17  1  0  0  0
 16 45  1  0  0  0
 16 46  1  0  0  0
 17 18  2  0  0  0
 17 19  1  0  0  0
 19 24  2  0  0  0
 19 20  1  0  0  0
 20 21  2  0  0  0
 20 47  1  0  0  0
 21 22  1  0  0  0
 21 48  1  0  0  0
 22 23  2  0  0  0
 22 26  1  0  0  0
 23 24  1  0  0  0
 23 25  1  0  0  0
 24 49  1  0  0  0
 27 33  1  0  0  0
 27 28  1  0  0  0
 28 29  1  0  0  0
 28 50  1  0  0  0
 28 51  1  0  0  0
 29 30  1  0  0  0
 29 52  1  0  0  0
 29 53  1  0  0  0
 30 31  1  0  0  0
 30 54  1  0  0  0
 31 32  2  0  0  0
 31 33  1  0  0  0
 33 55  1  0  0  0
 33 56  1  0  0  0
M  END
> <i_i_glide_confnum>
6

> <i_i_glide_lignum>
2426

> <i_i_glide_posenum>
122

> <i_i_glide_rotatable_bonds>
6

> <i_m_Source_File_Index>
1242

> <b_m_subgroup_collapsed>
0

> <r_i_docking_score>
-5.79442

> <r_i_glide_ecoul>
-6.31103

> <r_i_glide_eff_state_penalty>
0

> <r_i_glide_einternal>
2.35192

> <r_i_glide_emodel>
-63.3898

> <r_i_glide_energy>
-46.4842

> <r_i_glide_erotb>
0.537456

> <r_i_glide_esite>
-0.134217

> <r_i_glide_evdw>
-40.1732

> <r_i_glide_gscore>
-5.79442

> <r_i_glide_hbond>
-0.283799

> <r_i_glide_ligand_efficiency>
-0.181076

> <r_i_glide_ligand_efficiency_ln>
-1.29753

> <r_i_glide_ligand_efficiency_sa>
-0.574879

> <r_i_glide_lipo>
-2.15924

> <r_i_glide_metal>
0

> <r_i_glide_rewards>
-0.79931

> <s_i_glide_gridfile>
wee1_glide-grid

> <s_m_Source_File>
wee1_decoys_glide_SP.sdf

> <s_m_Source_Path>
/Users/zhangxujun/Desktop

> <s_m_entry_id>
1517

> <s_m_entry_name>
wee1_decoys_glide_SP.1242

> <s_m_subgroup_title>
wee1_decoys_glide_SP

> <s_m_subgroupid>
wee1_decoys_glide_SP


$$$$
