@<TRIPOS>MOLECULE
ZINC35242796_5048
76   81    1
SMALL
USER_CHARGES


@<TRIPOS>ATOM
      1 C1         -3.3518   54.1634   12.4309 C.3       1 UNK         0.0000 
      2 C2         -2.9007   54.7575   13.7829 C.3       1 UNK         0.0000 
      3 H3         -3.1302   54.0137   14.5493 H         1 UNK         0.0000 
      4 C4         -3.6882   56.0403   14.1267 C.3       1 UNK         0.0000 
      5 C5         -3.3542   56.5266   15.5486 C.3       1 UNK         0.0000 
      6 C6         -1.8374   56.7402   15.7438 C.3       1 UNK         0.0000 
      7 C7         -0.9671   55.5402   15.2844 C.3       1 UNK         0.0000 
      8 H8         -1.2500   54.7465   15.9810 H         1 UNK         0.0000 
      9 C9         -1.3700   55.0331   13.8588 C.3       1 UNK         0.0000 
     10 H10        -0.9100   54.0497   13.7523 H         1 UNK         0.0000 
     11 C11        -0.8013   55.9253   12.7292 C.3       1 UNK         0.0000 
     12 N12         0.4573   55.8025   15.5001 N.am      1 UNK         0.0000 
     13 C13         1.4515   54.8955   15.4841 C.2       1 UNK         0.0000 
     14 O14         1.2257   53.6950   15.3250 O.2       1 UNK         0.0000 
     15 C15         2.9224   55.3893   15.6435 C.3       1 UNK         0.0000 
     16 H16         3.3316   55.4326   14.6331 H         1 UNK         0.0000 
     17 C17         3.7740   54.4846   16.5429 C.3       1 UNK         0.0000 
     18 C18         3.1062   53.8207   17.7555 C.2       1 UNK         0.0000 
     19 C19         3.9760   52.9048   18.1876 C.2       1 UNK         0.0000 
     20 C20         5.2191   53.1401   17.3503 C.3       1 UNK         0.0000 
     21 H21         5.9139   52.3026   17.2724 H         1 UNK         0.0000 
     22 O22         4.5784   53.4192   16.0935 O.3       1 UNK         0.0000 
     23 C23         5.8910   54.5454   17.6388 C.3       1 UNK         0.0000 
     24 H24         6.8916   54.5441   17.2041 H         1 UNK         0.0000 
     25 C25         4.9491   55.4057   16.7609 C.3       1 UNK         0.0000 
     26 H26         5.5139   55.5977   15.8422 H         1 UNK         0.0000 
     27 C27         4.2985   56.7510   17.0624 C.2       1 UNK         0.0000 
     28 O28         4.7953   57.6885   17.6813 O.2       1 UNK         0.0000 
     29 N29         3.1382   56.6973   16.3425 N.am      1 UNK         0.0000 
     30 C30         2.3551   57.9186   16.1119 C.3       1 UNK         0.0000 
     31 C31         3.0068   59.1477   15.5209 C.3       1 UNK         0.0000 
     32 C32         2.0477   58.3467   14.6873 C.3       1 UNK         0.0000 
     33 C33         6.1283   55.0180   19.1098 C.2       1 UNK         0.0000 
     34 O34         6.8585   55.9904   19.3002 O.2       1 UNK         0.0000 
     35 N35         5.5442   54.3304   20.1123 N.am      1 UNK         0.0000 
     36 C36         5.6331   54.5161   21.5040 C.ar      1 UNK         0.0000 
     37 C37         4.5843   53.9796   22.2490 C.ar      1 UNK         0.0000 
     38 C38         4.5764   54.0961   23.6341 C.ar      1 UNK         0.0000 
     39 C39         5.6212   54.7471   24.2991 C.ar      1 UNK         0.0000 
     40 C40         6.6876   55.2696   23.5525 C.ar      1 UNK         0.0000 
     41 C41         6.7018   55.1514   22.1608 C.ar      1 UNK         0.0000 
     42 C42         5.6029   54.9187   25.8253 C.3       1 UNK         0.0000 
     43 C43         4.1951   54.8969   26.4614 C.3       1 UNK         0.0000 
     44 C44         6.5184   53.9109   26.5350 C.3       1 UNK         0.0000 
     45 H45        -3.2439   54.8733   11.6088 H         1 UNK         0.0000 
     46 H46        -2.7743   53.2706   12.1785 H         1 UNK         0.0000 
     47 H47        -4.4020   53.8717   12.4637 H         1 UNK         0.0000 
     48 H48        -4.7590   55.8418   14.0588 H         1 UNK         0.0000 
     49 H49        -3.5097   56.8168   13.3819 H         1 UNK         0.0000 
     50 H50        -3.7163   55.7959   16.2738 H         1 UNK         0.0000 
     51 H51        -3.8908   57.4552   15.7570 H         1 UNK         0.0000 
     52 H52        -1.6356   56.9705   16.7931 H         1 UNK         0.0000 
     53 H53        -1.5502   57.6221   15.1685 H         1 UNK         0.0000 
     54 H54        -1.2187   56.9333   12.7586 H         1 UNK         0.0000 
     55 H55         0.2832   56.0175   12.8036 H         1 UNK         0.0000 
     56 H56        -1.0116   55.5067   11.7417 H         1 UNK         0.0000 
     57 H57         0.7330   56.7730   15.4906 H         1 UNK         0.0000 
     58 H58         2.1117   54.0440   18.1117 H         1 UNK         0.0000 
     59 H59         3.8886   52.1800   18.9840 H         1 UNK         0.0000 
     60 H60         1.5941   58.0805   16.8728 H         1 UNK         0.0000 
     61 H61         2.6928   60.0996   15.9359 H         1 UNK         0.0000 
     62 H62         4.0724   59.1280   15.2943 H         1 UNK         0.0000 
     63 H63         2.4358   57.7541   13.8617 H         1 UNK         0.0000 
     64 H64         1.0641   58.7622   14.4702 H         1 UNK         0.0000 
     65 H65         4.8753   53.6363   19.8155 H         1 UNK         0.0000 
     66 H66         3.7603   53.4796   21.7596 H         1 UNK         0.0000 
     67 H67         3.7457   53.6772   24.1803 H         1 UNK         0.0000 
     68 H68         7.4993   55.7732   24.0530 H         1 UNK         0.0000 
     69 H69         7.5448   55.5467   21.6140 H         1 UNK         0.0000 
     70 H70         6.0083   55.9129   26.0133 H         1 UNK         0.0000 
     71 H71         3.5108   55.5692   25.9435 H         1 UNK         0.0000 
     72 H72         4.2363   55.2124   27.5047 H         1 UNK         0.0000 
     73 H73         3.7562   53.8983   26.4458 H         1 UNK         0.0000 
     74 H74         7.5044   53.9047   26.0836 H         1 UNK         0.0000 
     75 H75         6.6387   54.1613   27.5903 H         1 UNK         0.0000 
     76 H76         6.1189   52.8968   26.4808 H         1 UNK         0.0000 
@<TRIPOS>BOND
     1    1    2 1    
     2    1   45 1    
     3    1   46 1    
     4    1   47 1    
     5    2    3 1    
     6    2    9 1    
     7    2    4 1    
     8    4    5 1    
     9    4   48 1    
    10    4   49 1    
    11    5    6 1    
    12    5   50 1    
    13    5   51 1    
    14    6    7 1    
    15    6   52 1    
    16    6   53 1    
    17    7    8 1    
    18    7    9 1    
    19    7   12 1    
    20    9   10 1    
    21    9   11 1    
    22   11   54 1    
    23   11   55 1    
    24   11   56 1    
    25   12   13 am   BACKBONE|DICT|INTERRES
    26   12   57 1    
    27   13   14 2    
    28   13   15 1    
    29   15   16 1    
    30   15   29 1    
    31   15   17 1    
    32   17   22 1    
    33   17   25 1    
    34   17   18 1    
    35   18   19 2    
    36   18   58 1    
    37   19   20 1    
    38   19   59 1    
    39   20   21 1    
    40   20   22 1    
    41   20   23 1    
    42   23   24 1    
    43   23   25 1    
    44   23   33 1    
    45   25   26 1    
    46   25   27 1    
    47   27   28 2    
    48   27   29 am   BACKBONE|DICT|INTERRES
    49   29   30 1    
    50   30   32 1    
    51   30   31 1    
    52   30   60 1    
    53   31   32 1    
    54   31   61 1    
    55   31   62 1    
    56   32   63 1    
    57   32   64 1    
    58   33   34 2    
    59   33   35 am   BACKBONE|DICT|INTERRES
    60   35   36 1    
    61   35   65 1    
    62   36   41 ar   
    63   36   37 ar   
    64   37   38 ar   
    65   37   66 1    
    66   38   39 ar   
    67   38   67 1    
    68   39   40 ar   
    69   39   42 1    
    70   40   41 ar   
    71   40   68 1    
    72   41   69 1    
    73   42   43 1    
    74   42   44 1    
    75   42   70 1    
    76   43   71 1    
    77   43   72 1    
    78   43   73 1    
    79   44   74 1    
    80   44   75 1    
    81   44   76 1    
@<TRIPOS>SUBSTRUCTURE
     1 UNK         1 GROUP             0       ****    0 ROOT    
