@<TRIPOS>MOLECULE
ZINC04222007_4208
74   78    1
SMALL
USER_CHARGES


@<TRIPOS>ATOM
      1 C1          2.6595   49.5176   22.0144 C.3       1 UNK         0.0000 
      2 C2          2.2687   51.0039   22.0882 C.3       1 UNK         0.0000 
      3 H3          1.4677   51.1482   21.3605 H         1 UNK         0.0000 
      4 C4          3.4208   51.9487   21.6566 C.2       1 UNK         0.0000 
      5 C5          3.8215   53.0708   22.3968 C.2       1 UNK         0.0000 
      6 S6          5.0149   53.9783   21.5329 S.3       1 UNK         0.0000 
      7 C7          4.8362   52.8406   20.2276 C.2       1 UNK         0.0000 
      8 N8          4.0131   51.8444   20.4777 N.2       1 UNK         0.0000 
      9 N9          5.5539   52.8967   19.0363 N.am      1 UNK         0.0000 
     10 C10         6.3091   53.9117   18.5555 C.2       1 UNK         0.0000 
     11 O11         6.4144   55.0178   19.0880 O.2       1 UNK         0.0000 
     12 C12         7.1057   53.6003   17.3072 C.ar      1 UNK         0.0000 
     13 C13         6.6889   52.6294   16.3880 C.ar      1 UNK         0.0000 
     14 C14         7.4805   52.3063   15.2893 C.ar      1 UNK         0.0000 
     15 C15         8.7036   52.9619   15.0828 C.ar      1 UNK         0.0000 
     16 C16         9.1000   53.9560   15.9745 C.ar      1 UNK         0.0000 
     17 C17         8.3118   54.2762   17.0758 C.ar      1 UNK         0.0000 
     18 O18         9.5700   52.6922   14.0414 O.3       1 UNK         0.0000 
     19 C19         9.2847   51.6102   13.1603 C.3       1 UNK         0.0000 
     20 C20         3.2225   53.4856   23.7165 C.3       1 UNK         0.0000 
     21 C21         1.7553   52.9808   23.7264 C.3       1 UNK         0.0000 
     22 C22         1.6773   51.4271   23.4954 C.3       1 UNK         0.0000 
     23 H23         2.3056   50.9965   24.2517 H         1 UNK         0.0000 
     24 C24         0.2456   50.8649   23.8416 C.3       1 UNK         0.0000 
     25 H25        -0.4607   51.2950   23.1343 H         1 UNK         0.0000 
     26 C26        -0.2361   51.2731   25.2740 C.3       1 UNK         0.0000 
     27 H27        -1.2595   50.9078   25.3735 H         1 UNK         0.0000 
     28 C28        -0.3151   52.8149   25.2525 C.3       1 UNK         0.0000 
     29 C29         1.1047   53.4170   25.0518 C.3       1 UNK         0.0000 
     30 C30         0.5839   50.7963   26.5359 C.3       1 UNK         0.0000 
     31 H31         1.5043   51.3196   26.4571 H         1 UNK         0.0000 
     32 C32         1.0202   49.3079   26.5561 C.3       1 UNK         0.0000 
     33 C33        -0.0429   51.2982   27.8802 C.2       1 UNK         0.0000 
     34 O34        -1.2730   51.2965   27.9693 O.2       1 UNK         0.0000 
     35 N35         0.7346   51.6919   28.9347 N.am      1 UNK         0.0000 
     36 C36         2.1692   51.9985   28.8486 C.3       1 UNK         0.0000 
     37 C37         2.3280   53.5239   28.6623 C.3       1 UNK         0.0000 
     38 S38         1.6449   54.4971   30.0376 S.3       1 UNK         0.0000 
     39 C39         0.0147   53.6975   30.1151 C.3       1 UNK         0.0000 
     40 C40         0.1074   52.1591   30.1858 C.3       1 UNK         0.0000 
     41 O41         0.0493   49.4841   23.6137 O.3       1 UNK         0.0000 
     42 C42         0.9996   53.6968   22.6228 C.3       1 UNK         0.0000 
     43 H43         3.1096   49.2744   21.0582 H         1 UNK         0.0000 
     44 H44         3.2765   49.2181   22.8573 H         1 UNK         0.0000 
     45 H45         1.7841   48.8744   22.0396 H         1 UNK         0.0000 
     46 H46         5.4996   52.0314   18.4853 H         1 UNK         0.0000 
     47 H47         5.7543   52.1033   16.5146 H         1 UNK         0.0000 
     48 H48         7.1334   51.5412   14.6126 H         1 UNK         0.0000 
     49 H49        10.0394   54.4655   15.8174 H         1 UNK         0.0000 
     50 H50         8.6660   55.0306   17.7656 H         1 UNK         0.0000 
     51 H51        10.0947   51.5137   12.4378 H         1 UNK         0.0000 
     52 H52         9.2132   50.6684   13.7019 H         1 UNK         0.0000 
     53 H53         8.3626   51.7714   12.6036 H         1 UNK         0.0000 
     54 H54         3.2693   54.5708   23.8309 H         1 UNK         0.0000 
     55 H55         3.8014   53.0876   24.5451 H         1 UNK         0.0000 
     56 H56        -1.0077   53.1637   24.4855 H         1 UNK         0.0000 
     57 H57        -0.7483   53.1572   26.1889 H         1 UNK         0.0000 
     58 H58         1.1039   54.4970   25.1054 H         1 UNK         0.0000 
     59 H59         1.7835   53.1695   25.8520 H         1 UNK         0.0000 
     60 H60         1.8678   49.1755   27.2423 H         1 UNK         0.0000 
     61 H61         0.2171   48.6458   26.8821 H         1 UNK         0.0000 
     62 H62         1.3925   48.9342   25.6063 H         1 UNK         0.0000 
     63 H63         2.6966   51.3798   28.1242 H         1 UNK         0.0000 
     64 H64         2.6368   51.6966   29.7840 H         1 UNK         0.0000 
     65 H65         3.3771   53.7952   28.5462 H         1 UNK         0.0000 
     66 H66         1.7991   53.8857   27.7856 H         1 UNK         0.0000 
     67 H67        -0.4941   54.0962   30.9931 H         1 UNK         0.0000 
     68 H68        -0.5333   54.0133   29.2290 H         1 UNK         0.0000 
     69 H69         0.7210   51.8519   31.0339 H         1 UNK         0.0000 
     70 H70        -0.8372   51.6495   30.3864 H         1 UNK         0.0000 
     71 H71         0.5456   48.9952   24.2744 H         1 UNK         0.0000 
     72 H72         1.4519   53.6282   21.6434 H         1 UNK         0.0000 
     73 H73        -0.0038   53.2961   22.5259 H         1 UNK         0.0000 
     74 H74         0.9553   54.7595   22.8748 H         1 UNK         0.0000 
@<TRIPOS>BOND
     1    1    2 1    
     2    1   43 1    
     3    1   44 1    
     4    1   45 1    
     5    2    3 1    
     6    2   22 1    
     7    2    4 1    
     8    4    8 1    
     9    4    5 2    
    10    5    6 1    
    11    5   20 1    
    12    6    7 1    
    13    7    8 2    
    14    7    9 am   BACKBONE|DICT|INTERRES
    15    9   10 am   BACKBONE|DICT|INTERRES
    16    9   46 1    
    17   10   11 2    
    18   10   12 1    
    19   12   17 ar   
    20   12   13 ar   
    21   13   14 ar   
    22   13   47 1    
    23   14   15 ar   
    24   14   48 1    
    25   15   16 ar   
    26   15   18 1    
    27   16   17 ar   
    28   16   49 1    
    29   17   50 1    
    30   18   19 1    
    31   19   51 1    
    32   19   52 1    
    33   19   53 1    
    34   20   21 1    
    35   20   54 1    
    36   20   55 1    
    37   21   29 1    
    38   21   22 1    
    39   21   42 1    
    40   22   23 1    
    41   22   24 1    
    42   24   25 1    
    43   24   26 1    
    44   24   41 1    
    45   26   27 1    
    46   26   28 1    
    47   26   30 1    
    48   28   29 1    
    49   28   56 1    
    50   28   57 1    
    51   29   58 1    
    52   29   59 1    
    53   30   31 1    
    54   30   32 1    
    55   30   33 1    
    56   32   60 1    
    57   32   61 1    
    58   32   62 1    
    59   33   34 2    
    60   33   35 am   BACKBONE|DICT|INTERRES
    61   35   40 1    
    62   35   36 1    
    63   36   37 1    
    64   36   63 1    
    65   36   64 1    
    66   37   38 1    
    67   37   65 1    
    68   37   66 1    
    69   38   39 1    
    70   39   40 1    
    71   39   67 1    
    72   39   68 1    
    73   40   69 1    
    74   40   70 1    
    75   41   71 1    
    76   42   72 1    
    77   42   73 1    
    78   42   74 1    
@<TRIPOS>SUBSTRUCTURE
     1 UNK         1 GROUP             0       ****    0 ROOT    
