@<TRIPOS>MOLECULE
ZINC36221439_1734
34   36    1
SMALL
USER_CHARGES


@<TRIPOS>ATOM
      1 C1          6.4887   54.7508   25.2862 C.ar      1 UNK         0.0000 
      2 C2          6.0751   54.4974   26.5876 C.ar      1 UNK         0.0000 
      3 C3          4.7656   54.0918   26.8286 C.ar      1 UNK         0.0000 
      4 C4          3.8318   53.9337   25.7850 C.ar      1 UNK         0.0000 
      5 C5          4.2720   54.1889   24.4567 C.ar      1 UNK         0.0000 
      6 C6          5.5944   54.5894   24.2365 C.ar      1 UNK         0.0000 
      7 C7          3.3516   54.0032   23.2557 C.3       1 UNK         0.0000 
      8 C8          1.8903   54.0589   23.6915 C.3       1 UNK         0.0000 
      9 C9          1.6835   53.1157   24.8826 C.3       1 UNK         0.0000 
     10 N10         2.5001   53.5210   26.0432 N.pl3     1 UNK         0.0000 
     11 C11         1.9144   53.3786   27.3058 C.ar      1 UNK         0.0000 
     12 C12         1.1584   52.2410   27.6392 C.ar      1 UNK         0.0000 
     13 C13         0.6080   52.1011   28.9160 C.ar      1 UNK         0.0000 
     14 C14         0.8196   53.1137   29.8520 C.ar      1 UNK         0.0000 
     15 N15         1.5358   54.2337   29.5534 N.ar      1 UNK         0.0000 
     16 C16         2.0569   54.3518   28.3064 C.ar      1 UNK         0.0000 
     17 N17         0.3044   52.9942   31.1509 N.pl3     1 UNK         0.0000 
     18 N18         0.2989   54.0960   32.0822 N.3       1 UNK         0.0000 
     19 H19         7.5042   55.0533   25.0781 H         1 UNK         0.0000 
     20 H20         6.7678   54.6002   27.4114 H         1 UNK         0.0000 
     21 H21         4.5053   53.8692   27.8507 H         1 UNK         0.0000 
     22 H22         5.9388   54.7753   23.2283 H         1 UNK         0.0000 
     23 H23         3.5443   54.7517   22.4863 H         1 UNK         0.0000 
     24 H24         3.5602   53.0319   22.8046 H         1 UNK         0.0000 
     25 H25         1.2423   53.7715   22.8629 H         1 UNK         0.0000 
     26 H26         1.6018   55.0731   23.9669 H         1 UNK         0.0000 
     27 H27         1.9772   52.0991   24.6090 H         1 UNK         0.0000 
     28 H28         0.6216   53.0831   25.1334 H         1 UNK         0.0000 
     29 H29         1.0125   51.4480   26.9195 H         1 UNK         0.0000 
     30 H30         0.0351   51.2197   29.1705 H         1 UNK         0.0000 
     31 H31         2.6027   55.2645   28.1123 H         1 UNK         0.0000 
     32 H32        -0.2845   52.2243   31.4713 H         1 UNK         0.0000 
     33 H33         1.2499   54.3086   32.3461 H         1 UNK         0.0000 
     34 H34        -0.1377   54.8885   31.6351 H         1 UNK         0.0000 
@<TRIPOS>BOND
     1    1    6 ar   
     2    1    2 ar   
     3    1   19 1    
     4    2    3 ar   
     5    2   20 1    
     6    3    4 ar   
     7    3   21 1    
     8    4   10 1    
     9    4    5 ar   
    10    5    6 ar   
    11    5    7 1    
    12    6   22 1    
    13    7    8 1    
    14    7   23 1    
    15    7   24 1    
    16    8    9 1    
    17    8   25 1    
    18    8   26 1    
    19    9   10 1    
    20    9   27 1    
    21    9   28 1    
    22   10   11 1    
    23   11   16 ar   
    24   11   12 ar   
    25   12   13 ar   
    26   12   29 1    
    27   13   14 ar   
    28   13   30 1    
    29   14   15 ar   
    30   14   17 1    
    31   15   16 ar   
    32   16   31 1    
    33   17   18 1    
    34   17   32 1    
    35   18   33 1    
    36   18   34 1    
@<TRIPOS>SUBSTRUCTURE
     1 UNK         1 GROUP             0       ****    0 ROOT    
