@<TRIPOS>MOLECULE
ZINC32091766_1921
28   30    1
SMALL
USER_CHARGES


@<TRIPOS>ATOM
      1 C1          5.3382   54.0412   27.6417 C.ar      1 UNK         0.0000 
      2 C2          6.1602   54.0955   26.5189 C.ar      1 UNK         0.0000 
      3 C3          5.5951   54.2709   25.2571 C.ar      1 UNK         0.0000 
      4 C4          4.2176   54.3995   25.1091 C.ar      1 UNK         0.0000 
      5 C5          3.3993   54.3481   26.2315 C.ar      1 UNK         0.0000 
      6 C6          3.9504   54.1584   27.5018 C.ar      1 UNK         0.0000 
      7 C7          3.0599   54.2131   28.7440 C.3       1 UNK         0.0000 
      8 H8          3.6636   53.8482   29.5776 H         1 UNK         0.0000 
      9 C9          2.6252   55.6965   29.0285 C.3       1 UNK         0.0000 
     10 C10         1.5094   55.7703   30.0818 C.2       1 UNK         0.0000 
     11 N11         0.6466   54.8714   30.3258 N.2       1 UNK         0.0000 
     12 C12         0.6975   53.7642   29.5383 C.2       1 UNK         0.0000 
     13 C13         1.7654   53.3880   28.7105 C.2       1 UNK         0.0000 
     14 S14         1.3118   51.9896   27.7819 S.3       1 UNK         0.0000 
     15 C15        -0.2462   52.0858   28.5468 C.2       1 UNK         0.0000 
     16 N16        -0.3677   52.9989   29.4693 N.2       1 UNK         0.0000 
     17 N17        -1.2780   51.2966   28.1489 N.pl3     1 UNK         0.0000 
     18 O18         1.5044   56.8966   30.8523 O.3       1 UNK         0.0000 
     19 Br19        6.7042   54.3312   23.7143 Br        1 UNK         0.0000 
     20 H20         5.7868   53.9233   28.6177 H         1 UNK         0.0000 
     21 H21         7.2290   53.9946   26.6292 H         1 UNK         0.0000 
     22 H22         3.7872   54.5462   24.1290 H         1 UNK         0.0000 
     23 H23         2.3344   54.4868   26.1178 H         1 UNK         0.0000 
     24 H24         3.4970   56.2523   29.3581 H         1 UNK         0.0000 
     25 H25         2.2612   56.1705   28.1174 H         1 UNK         0.0000 
     26 H26        -1.1308   50.2972   28.0112 H         1 UNK         0.0000 
     27 H27        -2.1917   51.4728   28.5371 H         1 UNK         0.0000 
     28 H28         2.1563   57.5254   30.5321 H         1 UNK         0.0000 
@<TRIPOS>BOND
     1    1    6 ar   
     2    1    2 ar   
     3    1   20 1    
     4    2    3 ar   
     5    2   21 1    
     6    3    4 ar   
     7    3   19 1    
     8    4    5 ar   
     9    4   22 1    
    10    5    6 ar   
    11    5   23 1    
    12    6    7 1    
    13    7    8 1    
    14    7   13 1    
    15    7    9 1    
    16    9   10 1    
    17    9   24 1    
    18    9   25 1    
    19   10   11 2    
    20   10   18 1    
    21   11   12 1    
    22   12   16 1    
    23   12   13 2    
    24   13   14 1    
    25   14   15 1    
    26   15   16 2    
    27   15   17 1    
    28   17   26 1    
    29   17   27 1    
    30   18   28 1    
@<TRIPOS>SUBSTRUCTURE
     1 UNK         1 GROUP             0       ****    0 ROOT    
