@<TRIPOS>MOLECULE
ZINC39662481_379
64   67    1
SMALL
USER_CHARGES


@<TRIPOS>ATOM
      1 C1          6.9230   54.0920   27.9035 C.3       1 UNK         0.0000 
      2 O2          5.5713   53.9778   28.3303 O.3       1 UNK         0.0000 
      3 C3          4.5662   53.8996   27.3841 C.ar      1 UNK         0.0000 
      4 C4          4.7517   54.2310   26.0316 C.ar      1 UNK         0.0000 
      5 C5          3.7111   54.0982   25.1137 C.ar      1 UNK         0.0000 
      6 C6          2.4576   53.6214   25.5168 C.ar      1 UNK         0.0000 
      7 C7          2.2546   53.3716   26.8831 C.ar      1 UNK         0.0000 
      8 C8          3.2981   53.4775   27.8140 C.ar      1 UNK         0.0000 
      9 C9          3.0642   53.1005   29.2828 C.3       1 UNK         0.0000 
     10 F10         3.8762   52.1009   29.6290 F         1 UNK         0.0000 
     11 F11         3.3103   54.1389   30.0816 F         1 UNK         0.0000 
     12 F12         1.8123   52.6980   29.5132 F         1 UNK         0.0000 
     13 C13         1.3515   53.4385   24.4919 C.2       1 UNK         0.0000 
     14 O14         1.3248   54.1793   23.5079 O.2       1 UNK         0.0000 
     15 N15         0.4046   52.4783   24.6864 N.am      1 UNK         0.0000 
     16 C16        -0.7563   52.3418   23.7871 C.3       1 UNK         0.0000 
     17 C17        -0.9410   50.8071   23.6718 C.3       1 UNK         0.0000 
     18 H18        -1.9811   50.5874   23.4325 H         1 UNK         0.0000 
     19 C19        -0.5359   50.3015   25.0912 C.3       1 UNK         0.0000 
     20 C20         0.6618   51.2117   25.3954 C.3       1 UNK         0.0000 
     21 C21        -1.6065   50.5923   26.1910 C.3       1 UNK         0.0000 
     22 C22        -2.8893   49.7560   26.0121 C.3       1 UNK         0.0000 
     23 N23        -2.4956   48.2662   26.0817 N.4       1 UNK         0.0000 
     24 C24        -1.3962   47.8819   25.0643 C.3       1 UNK         0.0000 
     25 C25        -0.1781   48.8008   25.2984 C.3       1 UNK         0.0000 
     26 C26        -0.0766   50.1886   22.5272 C.2       1 UNK         0.0000 
     27 O27        -0.3835   49.0876   22.0724 O.2       1 UNK         0.0000 
     28 N28         0.9796   50.8903   22.0678 N.am      1 UNK         0.0000 
     29 C29         1.8300   50.5378   20.9243 C.3       1 UNK         0.0000 
     30 H30         1.9358   49.4495   20.8888 H         1 UNK         0.0000 
     31 C31         3.1944   51.0615   21.1259 C.1       1 UNK         0.0000 
     32 N32         4.2634   51.4769   21.2818 N.1       1 UNK         0.0000 
     33 C33         1.3153   51.0017   19.5588 C.ar      1 UNK         0.0000 
     34 C34         1.8525   50.4091   18.4104 C.ar      1 UNK         0.0000 
     35 C35         1.4333   50.8143   17.1479 C.ar      1 UNK         0.0000 
     36 C36         0.4735   51.8168   17.0294 C.ar      1 UNK         0.0000 
     37 C37        -0.0677   52.4186   18.1638 C.ar      1 UNK         0.0000 
     38 C38         0.3504   52.0106   19.4280 C.ar      1 UNK         0.0000 
     39 H39         7.5758   54.0080   28.7720 H         1 UNK         0.0000 
     40 H40         7.1949   53.2959   27.2089 H         1 UNK         0.0000 
     41 H41         7.1174   55.0588   27.4376 H         1 UNK         0.0000 
     42 H42         5.7060   54.5776   25.6672 H         1 UNK         0.0000 
     43 H43         3.8995   54.3384   24.0756 H         1 UNK         0.0000 
     44 H44         1.2725   53.0919   27.2343 H         1 UNK         0.0000 
     45 H45        -0.6558   52.7956   22.7997 H         1 UNK         0.0000 
     46 H46        -1.6580   52.7080   24.2805 H         1 UNK         0.0000 
     47 H47         0.9350   51.2403   26.4485 H         1 UNK         0.0000 
     48 H48         1.5041   50.7504   24.8837 H         1 UNK         0.0000 
     49 H49        -1.1933   50.4187   27.1888 H         1 UNK         0.0000 
     50 H50        -1.8812   51.6470   26.2044 H         1 UNK         0.0000 
     51 H51        -3.5962   49.9125   26.8291 H         1 UNK         0.0000 
     52 H52        -3.3989   49.9113   25.0610 H         1 UNK         0.0000 
     53 H53        -2.1112   48.1077   27.0312 H         1 UNK         0.0000 
     54 H54        -1.1569   46.8356   25.2568 H         1 UNK         0.0000 
     55 H55        -1.8278   47.9814   24.0676 H         1 UNK         0.0000 
     56 H56         0.6329   48.4969   24.6352 H         1 UNK         0.0000 
     57 H57         0.2185   48.6315   26.3029 H         1 UNK         0.0000 
     58 H58         1.0772   51.8401   22.3973 H         1 UNK         0.0000 
     59 H59         2.6150   49.6462   18.4853 H         1 UNK         0.0000 
     60 H60         1.8686   50.3561   16.2693 H         1 UNK         0.0000 
     61 H61         0.1552   52.1374   16.0480 H         1 UNK         0.0000 
     62 H62        -0.7999   53.2065   18.0609 H         1 UNK         0.0000 
     63 H63        -0.0632   52.5001   20.2970 H         1 UNK         0.0000 
     64 H64        -3.3082   47.6736   25.9934 H         1 UNK         0.0000 
@<TRIPOS>BOND
     1    1    2 1    
     2    1   39 1    
     3    1   40 1    
     4    1   41 1    
     5    2    3 1    
     6    3    8 ar   
     7    3    4 ar   
     8    4    5 ar   
     9    4   42 1    
    10    5    6 ar   
    11    5   43 1    
    12    6    7 ar   
    13    6   13 1    
    14    7    8 ar   
    15    7   44 1    
    16    8    9 1    
    17    9   10 1    
    18    9   11 1    
    19    9   12 1    
    20   13   14 2    
    21   13   15 am   BACKBONE|DICT|INTERRES
    22   15   20 1    
    23   15   16 1    
    24   16   17 1    
    25   16   45 1    
    26   16   46 1    
    27   17   18 1    
    28   17   19 1    
    29   17   26 1    
    30   19   25 1    
    31   19   20 1    
    32   19   21 1    
    33   20   47 1    
    34   20   48 1    
    35   21   22 1    
    36   21   49 1    
    37   21   50 1    
    38   22   23 1    
    39   22   51 1    
    40   22   52 1    
    41   23   24 1    
    42   23   53 1    
    43   23   64 1    
    44   24   25 1    
    45   24   54 1    
    46   24   55 1    
    47   25   56 1    
    48   25   57 1    
    49   26   27 2    
    50   26   28 am   BACKBONE|DICT|INTERRES
    51   28   29 1    
    52   28   58 1    
    53   29   30 1    
    54   29   31 1    
    55   29   33 1    
    56   31   32 3    
    57   33   38 ar   
    58   33   34 ar   
    59   34   35 ar   
    60   34   59 1    
    61   35   36 ar   
    62   35   60 1    
    63   36   37 ar   
    64   36   61 1    
    65   37   38 ar   
    66   37   62 1    
    67   38   63 1    
@<TRIPOS>SUBSTRUCTURE
     1 UNK         1 GROUP             0       ****    0 ROOT    
