@<TRIPOS>MOLECULE
ZINC04235385_5
53   57    1
SMALL
USER_CHARGES


@<TRIPOS>ATOM
      1 C1          4.3396   54.2163   18.1240 C.ar      1 UNK         0.0000 
      2 C2          4.2163   53.3985   19.2433 C.ar      1 UNK         0.0000 
      3 C3          4.8727   53.7381   20.4228 C.ar      1 UNK         0.0000 
      4 C4          5.6711   54.8940   20.4851 C.ar      1 UNK         0.0000 
      5 C5          5.7981   55.6963   19.3416 C.ar      1 UNK         0.0000 
      6 C6          5.1264   55.3647   18.1679 C.ar      1 UNK         0.0000 
      7 C7          6.4224   55.2642   21.7427 C.2       1 UNK         0.0000 
      8 O8          7.4433   55.9504   21.6826 O.2       1 UNK         0.0000 
      9 N9          5.9047   54.8051   22.9019 N.am      1 UNK         0.0000 
     10 C10         6.5104   54.9283   24.2360 C.3       1 UNK         0.0000 
     11 H11         7.5758   55.0221   24.1134 H         1 UNK         0.0000 
     12 C12         6.0147   56.0967   25.0513 C.3       1 UNK         0.0000 
     13 O13         4.8191   55.6501   25.6817 O.3       1 UNK         0.0000 
     14 C14         4.8617   54.2393   25.8942 C.3       1 UNK         0.0000 
     15 H15         3.9741   53.7824   25.4572 H         1 UNK         0.0000 
     16 C16         6.1246   53.8075   25.1548 C.3       1 UNK         0.0000 
     17 H17         5.9436   52.8969   24.5977 H         1 UNK         0.0000 
     18 O18         7.1044   53.6145   26.1836 O.3       1 UNK         0.0000 
     19 C19         6.6237   53.9964   27.4657 C.3       1 UNK         0.0000 
     20 C20         5.1321   53.7820   27.3240 C.3       1 UNK         0.0000 
     21 H21         4.9133   52.7218   27.4690 H         1 UNK         0.0000 
     22 O22         4.4466   54.5497   28.3193 O.3       1 UNK         0.0000 
     23 C23         3.1752   54.3299   28.7580 C.2       1 UNK         0.0000 
     24 O24         2.7045   54.9881   29.6818 O.2       1 UNK         0.0000 
     25 N25         2.5161   53.3187   28.0613 N.am      1 UNK         0.0000 
     26 C26         1.2327   52.8066   28.3060 C.ar      1 UNK         0.0000 
     27 C27         0.7535   52.6615   29.6145 C.ar      1 UNK         0.0000 
     28 C28        -0.4900   52.0971   29.8631 C.ar      1 UNK         0.0000 
     29 C29        -1.2823   51.6543   28.8133 C.ar      1 UNK         0.0000 
     30 C30        -0.8400   51.7699   27.4750 C.ar      1 UNK         0.0000 
     31 C31         0.4346   52.3611   27.2044 C.ar      1 UNK         0.0000 
     32 C32         0.8436   52.4779   25.8424 C.ar      1 UNK         0.0000 
     33 C33         0.0314   52.0182   24.8109 C.ar      1 UNK         0.0000 
     34 C34        -1.1962   51.4308   25.0875 C.ar      1 UNK         0.0000 
     35 C35        -1.6368   51.3016   26.4001 C.ar      1 UNK         0.0000 
     36 H36         3.8285   53.9500   17.2101 H         1 UNK         0.0000 
     37 H37         3.6204   52.4976   19.1906 H         1 UNK         0.0000 
     38 H38         4.7685   53.0779   21.2712 H         1 UNK         0.0000 
     39 H39         6.4171   56.5830   19.3544 H         1 UNK         0.0000 
     40 H40         5.2239   55.9896   17.2921 H         1 UNK         0.0000 
     41 H41         4.9936   54.3742   22.8619 H         1 UNK         0.0000 
     42 H42         6.7496   56.3816   25.8024 H         1 UNK         0.0000 
     43 H43         5.9044   57.0091   24.4818 H         1 UNK         0.0000 
     44 H44         6.8823   55.0337   27.6816 H         1 UNK         0.0000 
     45 H45         7.0623   53.3809   28.2529 H         1 UNK         0.0000 
     46 H46         2.9863   52.9529   27.2490 H         1 UNK         0.0000 
     47 H47         1.3526   52.9661   30.4601 H         1 UNK         0.0000 
     48 H48        -0.8362   51.9785   30.8813 H         1 UNK         0.0000 
     49 H49        -2.2324   51.1822   29.0205 H         1 UNK         0.0000 
     50 H50         1.7912   52.9309   25.5970 H         1 UNK         0.0000 
     51 H51         0.3576   52.1144   23.7853 H         1 UNK         0.0000 
     52 H52        -1.8126   51.0691   24.2778 H         1 UNK         0.0000 
     53 H53        -2.5892   50.8357   26.6085 H         1 UNK         0.0000 
@<TRIPOS>BOND
     1    1    6 ar   
     2    1    2 ar   
     3    1   36 1    
     4    2    3 ar   
     5    2   37 1    
     6    3    4 ar   
     7    3   38 1    
     8    4    5 ar   
     9    4    7 1    
    10    5    6 ar   
    11    5   39 1    
    12    6   40 1    
    13    7    8 2    
    14    7    9 am   BACKBONE|DICT|INTERRES
    15    9   10 1    
    16    9   41 1    
    17   10   11 1    
    18   10   16 1    
    19   10   12 1    
    20   12   13 1    
    21   12   42 1    
    22   12   43 1    
    23   13   14 1    
    24   14   15 1    
    25   14   20 1    
    26   14   16 1    
    27   16   17 1    
    28   16   18 1    
    29   18   19 1    
    30   19   20 1    
    31   19   44 1    
    32   19   45 1    
    33   20   21 1    
    34   20   22 1    
    35   22   23 1    
    36   23   24 2    
    37   23   25 am   BACKBONE|DICT|INTERRES
    38   25   26 1    
    39   25   46 1    
    40   26   31 ar   
    41   26   27 ar   
    42   27   28 ar   
    43   27   47 1    
    44   28   29 ar   
    45   28   48 1    
    46   29   30 ar   
    47   29   49 1    
    48   30   35 ar   
    49   30   31 ar   
    50   31   32 ar   
    51   32   33 ar   
    52   32   50 1    
    53   33   34 ar   
    54   33   51 1    
    55   34   35 ar   
    56   34   52 1    
    57   35   53 1    
@<TRIPOS>SUBSTRUCTURE
     1 UNK         1 GROUP             0       ****    0 ROOT    
