@<TRIPOS>MOLECULE
ZINC12568954_2468
63   66    1
SMALL
USER_CHARGES


@<TRIPOS>ATOM
      1 C1          4.6675   56.4696   16.6634 C.3       1 UNK         0.0000 
      2 C2          5.1644   56.1191   18.0537 C.2       1 UNK         0.0000 
      3 C3          6.0473   56.8951   18.8068 C.2       1 UNK         0.0000 
      4 S4          6.4227   56.1754   20.3623 S.3       1 UNK         0.0000 
      5 C5          5.3387   54.8479   20.0457 C.ar      1 UNK         0.0000 
      6 C6          4.7568   54.9287   18.7494 C.ar      1 UNK         0.0000 
      7 C7          3.9038   53.8456   18.4164 C.ar      1 UNK         0.0000 
      8 N8          3.6455   52.8468   19.2945 N.ar      1 UNK         0.0000 
      9 C9          4.2510   52.9181   20.5060 C.ar      1 UNK         0.0000 
     10 N10         5.1045   53.8799   20.9355 N.ar      1 UNK         0.0000 
     11 C11         3.9454   51.8156   21.5198 C.3       1 UNK         0.0000 
     12 N12         2.5129   51.5224   21.6895 N.3       1 UNK         0.0000 
     13 C13         1.8040   52.6881   22.2566 C.3       1 UNK         0.0000 
     14 C14         0.2954   52.3860   22.3628 C.3       1 UNK         0.0000 
     15 N15         0.0725   51.1597   23.1477 N.pl3     1 UNK         0.0000 
     16 C16         0.8106   49.9787   22.6562 C.3       1 UNK         0.0000 
     17 C17         2.3150   50.3056   22.5096 C.3       1 UNK         0.0000 
     18 S18        -0.7944   51.1838   24.6973 S.o2      1 UNK         0.0000 
     19 O19        -1.1728   49.8066   25.0330 O.2       1 UNK         0.0000 
     20 O20        -1.7895   52.2610   24.6392 O.2       1 UNK         0.0000 
     21 C21         0.3969   51.7180   25.9257 C.ar      1 UNK         0.0000 
     22 C22         0.5725   51.0040   27.1121 C.ar      1 UNK         0.0000 
     23 C23         1.4702   51.4689   28.0768 C.ar      1 UNK         0.0000 
     24 C24         2.2110   52.6451   27.8621 C.ar      1 UNK         0.0000 
     25 C25         2.0078   53.3478   26.6682 C.ar      1 UNK         0.0000 
     26 C26         1.1043   52.8969   25.7168 C.ar      1 UNK         0.0000 
     27 C27         3.2239   53.2033   28.8919 C.3       1 UNK         0.0000 
     28 C28         4.6086   53.4188   28.2255 C.3       1 UNK         0.0000 
     29 C29         3.4432   52.2665   30.1086 C.3       1 UNK         0.0000 
     30 C30         2.7133   54.5615   29.4240 C.3       1 UNK         0.0000 
     31 N31         3.2803   53.7245   17.1760 N.pl3     1 UNK         0.0000 
     32 C32         6.6893   58.2153   18.4293 C.3       1 UNK         0.0000 
     33 H33         5.0511   57.4266   16.3050 H         1 UNK         0.0000 
     34 H34         4.9665   55.7220   15.9275 H         1 UNK         0.0000 
     35 H35         3.5791   56.5451   16.6345 H         1 UNK         0.0000 
     36 H36         4.3835   52.0970   22.4794 H         1 UNK         0.0000 
     37 H37         4.4644   50.9172   21.1811 H         1 UNK         0.0000 
     38 H38         1.9638   53.6004   21.6827 H         1 UNK         0.0000 
     39 H39         2.2340   52.8101   23.2503 H         1 UNK         0.0000 
     40 H40        -0.1654   52.2781   21.3806 H         1 UNK         0.0000 
     41 H41        -0.2018   53.2039   22.8815 H         1 UNK         0.0000 
     42 H42         0.6792   49.1603   23.3640 H         1 UNK         0.0000 
     43 H43         0.3810   49.6673   21.7030 H         1 UNK         0.0000 
     44 H44         2.7042   50.5533   23.4971 H         1 UNK         0.0000 
     45 H45         2.8496   49.4481   22.0980 H         1 UNK         0.0000 
     46 H46         0.0062   50.1012   27.2908 H         1 UNK         0.0000 
     47 H47         1.5720   50.8967   28.9845 H         1 UNK         0.0000 
     48 H48         2.5381   54.2668   26.4740 H         1 UNK         0.0000 
     49 H49         0.9358   53.4912   24.8341 H         1 UNK         0.0000 
     50 H50         5.3509   53.7737   28.9422 H         1 UNK         0.0000 
     51 H51         4.5749   54.1608   27.4269 H         1 UNK         0.0000 
     52 H52         4.9938   52.4967   27.7914 H         1 UNK         0.0000 
     53 H53         2.5235   52.0994   30.6715 H         1 UNK         0.0000 
     54 H54         3.8292   51.2965   29.7913 H         1 UNK         0.0000 
     55 H55         4.1681   52.6812   30.8103 H         1 UNK         0.0000 
     56 H56         1.7775   54.4549   29.9731 H         1 UNK         0.0000 
     57 H57         3.4420   55.0174   30.0897 H         1 UNK         0.0000 
     58 H58         2.5384   55.2799   28.6223 H         1 UNK         0.0000 
     59 H59         3.5902   54.3089   16.4139 H         1 UNK         0.0000 
     60 H60         2.8123   52.8488   16.9929 H         1 UNK         0.0000 
     61 H61         7.5240   58.0686   17.7388 H         1 UNK         0.0000 
     62 H62         5.9816   58.8899   17.9387 H         1 UNK         0.0000 
     63 H63         7.0814   58.7626   19.2892 H         1 UNK         0.0000 
@<TRIPOS>BOND
     1    1    2 1    
     2    1   33 1    
     3    1   34 1    
     4    1   35 1    
     5    2    6 1    
     6    2    3 2    
     7    3    4 1    
     8    3   32 1    
     9    4    5 1    
    10    5   10 ar   
    11    5    6 ar   
    12    6    7 ar   
    13    7    8 ar   
    14    7   31 1    
    15    8    9 ar   
    16    9   10 ar   
    17    9   11 1    
    18   11   12 1    
    19   11   36 1    
    20   11   37 1    
    21   12   17 1    
    22   12   13 1    
    23   13   14 1    
    24   13   38 1    
    25   13   39 1    
    26   14   15 1    
    27   14   40 1    
    28   14   41 1    
    29   15   16 1    
    30   15   18 1    
    31   16   17 1    
    32   16   42 1    
    33   16   43 1    
    34   17   44 1    
    35   17   45 1    
    36   18   19 2    
    37   18   20 2    
    38   18   21 1    
    39   21   26 ar   
    40   21   22 ar   
    41   22   23 ar   
    42   22   46 1    
    43   23   24 ar   
    44   23   47 1    
    45   24   25 ar   
    46   24   27 1    
    47   25   26 ar   
    48   25   48 1    
    49   26   49 1    
    50   27   28 1    
    51   27   29 1    
    52   27   30 1    
    53   28   50 1    
    54   28   51 1    
    55   28   52 1    
    56   29   53 1    
    57   29   54 1    
    58   29   55 1    
    59   30   56 1    
    60   30   57 1    
    61   30   58 1    
    62   31   59 1    
    63   31   60 1    
    64   32   61 1    
    65   32   62 1    
    66   32   63 1    
@<TRIPOS>SUBSTRUCTURE
     1 UNK         1 GROUP             0       ****    0 ROOT    
