@<TRIPOS>MOLECULE
ZINC36219030_5508
67   70    1
SMALL
USER_CHARGES


@<TRIPOS>ATOM
      1 C1          6.8870   54.0524   27.8401 C.3       1 UNK         0.0000 
      2 C2          5.6690   54.0848   26.9385 C.ar      1 UNK         0.0000 
      3 C3          5.8007   54.4964   25.6101 C.ar      1 UNK         0.0000 
      4 C4          4.6869   54.4961   24.7722 C.ar      1 UNK         0.0000 
      5 C5          3.4424   54.0966   25.2625 C.ar      1 UNK         0.0000 
      6 C6          3.3060   53.7158   26.5986 C.ar      1 UNK         0.0000 
      7 C7          4.4198   53.7067   27.4357 C.ar      1 UNK         0.0000 
      8 C8          2.2324   54.1067   24.3399 C.3       1 UNK         0.0000 
      9 N9          1.8750   52.7919   23.8081 N.am      1 UNK         0.0000 
     10 C10         1.0723   51.7989   24.5046 C.3       1 UNK         0.0000 
     11 H11         1.4219   51.6558   25.5243 H         1 UNK         0.0000 
     12 C12         1.3344   50.5359   23.6576 C.3       1 UNK         0.0000 
     13 H13         2.1659   49.9781   24.0844 H         1 UNK         0.0000 
     14 O14         1.8484   51.0657   22.4470 O.3       1 UNK         0.0000 
     15 C15         2.3043   52.3325   22.5645 C.2       1 UNK         0.0000 
     16 O16         2.9470   52.8959   21.6822 O.2       1 UNK         0.0000 
     17 C17         0.2041   49.5108   23.4808 C.ar      1 UNK         0.0000 
     18 C18        -0.3725   49.2961   22.2221 C.ar      1 UNK         0.0000 
     19 C19        -1.4664   48.4457   22.0908 C.ar      1 UNK         0.0000 
     20 C20        -2.0031   47.8192   23.2125 C.ar      1 UNK         0.0000 
     21 C21        -1.4348   48.0072   24.4865 C.ar      1 UNK         0.0000 
     22 C22        -0.3098   48.8333   24.5983 C.ar      1 UNK         0.0000 
     23 N23        -1.9641   47.4587   25.6817 N.am      1 UNK         0.0000 
     24 C24        -2.9018   46.4975   25.8123 C.2       1 UNK         0.0000 
     25 O25        -3.3794   45.8671   24.8689 O.2       1 UNK         0.0000 
     26 C26        -3.3405   46.1590   27.2476 C.3       1 UNK         0.0000 
     27 C27        -4.7544   45.5318   27.4247 C.3       1 UNK         0.0000 
     28 C28        -5.8916   46.5074   27.0625 C.3       1 UNK         0.0000 
     29 C29        -4.9538   44.1620   26.7386 C.3       1 UNK         0.0000 
     30 C30        -0.4255   52.2088   24.5749 C.2       1 UNK         0.0000 
     31 O31        -0.9285   52.8970   23.6821 O.2       1 UNK         0.0000 
     32 N32        -1.1034   51.7309   25.6427 N.am      1 UNK         0.0000 
     33 C33        -2.4592   51.8859   25.9765 C.ar      1 UNK         0.0000 
     34 C34        -2.9835   50.9626   26.8881 C.ar      1 UNK         0.0000 
     35 C35        -4.3197   51.0389   27.2840 C.ar      1 UNK         0.0000 
     36 C36        -5.1430   52.0478   26.7813 C.ar      1 UNK         0.0000 
     37 C37        -4.6276   52.9779   25.8785 C.ar      1 UNK         0.0000 
     38 C38        -3.2956   52.8966   25.4753 C.ar      1 UNK         0.0000 
     39 F39        -5.4166   53.9690   25.4041 F         1 UNK         0.0000 
     40 H40         6.6081   54.0796   28.8927 H         1 UNK         0.0000 
     41 H41         7.4916   53.1648   27.6513 H         1 UNK         0.0000 
     42 H42         7.5093   54.9281   27.6658 H         1 UNK         0.0000 
     43 H43         6.7633   54.7901   25.2191 H         1 UNK         0.0000 
     44 H44         4.7978   54.8018   23.7415 H         1 UNK         0.0000 
     45 H45         2.3433   53.4199   26.9885 H         1 UNK         0.0000 
     46 H46         4.3145   53.3915   28.4617 H         1 UNK         0.0000 
     47 H47         2.4217   54.8030   23.5200 H         1 UNK         0.0000 
     48 H48         1.3704   54.5011   24.8805 H         1 UNK         0.0000 
     49 H49         0.0045   49.8012   21.3484 H         1 UNK         0.0000 
     50 H50        -1.9162   48.2975   21.1202 H         1 UNK         0.0000 
     51 H51        -2.8820   47.2192   23.0536 H         1 UNK         0.0000 
     52 H52         0.1347   48.9964   25.5724 H         1 UNK         0.0000 
     53 H53        -1.5888   47.8148   26.5591 H         1 UNK         0.0000 
     54 H54        -2.5882   45.4896   27.6616 H         1 UNK         0.0000 
     55 H55        -3.2958   47.0707   27.8414 H         1 UNK         0.0000 
     56 H56        -4.8432   45.3417   28.4913 H         1 UNK         0.0000 
     57 H57        -5.8866   46.7544   25.9999 H         1 UNK         0.0000 
     58 H58        -6.8677   46.0779   27.2914 H         1 UNK         0.0000 
     59 H59        -5.8091   47.4395   27.6204 H         1 UNK         0.0000 
     60 H60        -5.1230   44.2608   25.6672 H         1 UNK         0.0000 
     61 H61        -4.0955   43.5051   26.8817 H         1 UNK         0.0000 
     62 H62        -5.8279   43.6496   27.1389 H         1 UNK         0.0000 
     63 H63        -0.5977   51.1000   26.2451 H         1 UNK         0.0000 
     64 H64        -2.3662   50.1684   27.2845 H         1 UNK         0.0000 
     65 H65        -4.7174   50.3118   27.9805 H         1 UNK         0.0000 
     66 H66        -6.1771   52.1093   27.0895 H         1 UNK         0.0000 
     67 H67        -2.9352   53.6342   24.7765 H         1 UNK         0.0000 
@<TRIPOS>BOND
     1    1    2 1    
     2    1   40 1    
     3    1   41 1    
     4    1   42 1    
     5    2    7 ar   
     6    2    3 ar   
     7    3    4 ar   
     8    3   43 1    
     9    4    5 ar   
    10    4   44 1    
    11    5    6 ar   
    12    5    8 1    
    13    6    7 ar   
    14    6   45 1    
    15    7   46 1    
    16    8    9 1    
    17    8   47 1    
    18    8   48 1    
    19    9   15 am   BACKBONE|DICT|INTERRES
    20    9   10 1    
    21   10   11 1    
    22   10   12 1    
    23   10   30 1    
    24   12   13 1    
    25   12   14 1    
    26   12   17 1    
    27   14   15 1    
    28   15   16 2    
    29   17   22 ar   
    30   17   18 ar   
    31   18   19 ar   
    32   18   49 1    
    33   19   20 ar   
    34   19   50 1    
    35   20   21 ar   
    36   20   51 1    
    37   21   22 ar   
    38   21   23 1    
    39   22   52 1    
    40   23   24 am   BACKBONE|DICT|INTERRES
    41   23   53 1    
    42   24   25 2    
    43   24   26 1    
    44   26   27 1    
    45   26   54 1    
    46   26   55 1    
    47   27   28 1    
    48   27   29 1    
    49   27   56 1    
    50   28   57 1    
    51   28   58 1    
    52   28   59 1    
    53   29   60 1    
    54   29   61 1    
    55   29   62 1    
    56   30   31 2    
    57   30   32 am   BACKBONE|DICT|INTERRES
    58   32   33 1    
    59   32   63 1    
    60   33   38 ar   
    61   33   34 ar   
    62   34   35 ar   
    63   34   64 1    
    64   35   36 ar   
    65   35   65 1    
    66   36   37 ar   
    67   36   66 1    
    68   37   38 ar   
    69   37   39 1    
    70   38   67 1    
@<TRIPOS>SUBSTRUCTURE
     1 UNK         1 GROUP             0       ****    0 ROOT    
