@<TRIPOS>MOLECULE
ZINC39939553_752
61   66    1
SMALL
USER_CHARGES


@<TRIPOS>ATOM
      1 C1          0.6848   51.5492   23.7666 C.3       1 UNK         0.0000 
      2 C2          1.8223   52.4975   24.1704 C.3       1 UNK         0.0000 
      3 H3          2.7044   51.8871   24.3080 H         1 UNK         0.0000 
      4 C4          2.0816   53.5556   23.0923 C.3       1 UNK         0.0000 
      5 C5          3.0352   54.6948   23.4977 C.3       1 UNK         0.0000 
      6 N6          4.2467   54.3220   24.2533 N.am      1 UNK         0.0000 
      7 C7          4.2494   54.2389   25.6945 C.ar      1 UNK         0.0000 
      8 C8          5.3787   54.5976   26.4713 C.ar      1 UNK         0.0000 
      9 C9          5.4152   54.4967   27.8568 C.ar      1 UNK         0.0000 
     10 C10         4.2994   54.0505   28.5429 C.ar      1 UNK         0.0000 
     11 C11         3.1567   53.7121   27.8320 C.ar      1 UNK         0.0000 
     12 C12         3.1091   53.7868   26.4353 C.ar      1 UNK         0.0000 
     13 S13         1.5294   53.2885   25.7647 S.3       1 UNK         0.0000 
     14 C14         5.3852   54.0056   23.5372 C.2       1 UNK         0.0000 
     15 O15         6.4634   53.7003   24.0511 O.2       1 UNK         0.0000 
     16 C16         5.3894   53.9366   22.0008 C.3       1 UNK         0.0000 
     17 S17         6.3038   55.2967   21.2098 S.3       1 UNK         0.0000 
     18 C18         6.3942   54.6916   19.4817 C.3       1 UNK         0.0000 
     19 H19         7.3033   54.0981   19.3836 H         1 UNK         0.0000 
     20 N20         5.2518   53.9038   19.0314 N.pl3     1 UNK         0.0000 
     21 N21         4.4154   54.6919   18.2444 N.2       1 UNK         0.0000 
     22 C22         5.0624   55.7349   17.9527 C.2       1 UNK         0.0000 
     23 N23         6.3396   55.7411   18.4812 N.pl3     1 UNK         0.0000 
     24 C24         7.3601   56.7890   18.4616 C.3       1 UNK         0.0000 
     25 C25         8.8161   56.3567   18.4375 C.3       1 UNK         0.0000 
     26 C26         8.1890   56.9353   17.1996 C.3       1 UNK         0.0000 
     27 C27         4.4733   56.8127   17.1753 C.2       1 UNK         0.0000 
     28 C28         3.2600   56.8136   16.5666 C.2       1 UNK         0.0000 
     29 C29         2.2047   55.7899   16.4163 C.2       1 UNK         0.0000 
     30 C30         1.0414   56.0731   15.7983 C.2       1 UNK         0.0000 
     31 C31         0.8499   57.4195   15.2850 C.2       1 UNK         0.0000 
     32 C32         1.8033   58.3779   15.4108 C.2       1 UNK         0.0000 
     33 C33         3.0145   58.0949   16.0531 C.2       1 UNK         0.0000 
     34 N34         4.0205   58.8967   16.2963 N.pl3     1 UNK         0.0000 
     35 C35         5.0954   58.1816   16.9883 C.3       1 UNK         0.0000 
     36 H36         0.9043   51.0493   22.8220 H         1 UNK         0.0000 
     37 H37         0.5386   50.7705   24.5166 H         1 UNK         0.0000 
     38 H38        -0.2597   52.0842   23.6499 H         1 UNK         0.0000 
     39 H39         2.4433   53.0560   22.1931 H         1 UNK         0.0000 
     40 H40         1.1389   54.0175   22.7954 H         1 UNK         0.0000 
     41 H41         3.2805   55.2967   22.6246 H         1 UNK         0.0000 
     42 H42         2.4775   55.3700   24.1452 H         1 UNK         0.0000 
     43 H43         6.2638   54.9994   26.0036 H         1 UNK         0.0000 
     44 H44         6.3033   54.7848   28.3992 H         1 UNK         0.0000 
     45 H45         4.3173   53.9713   29.6195 H         1 UNK         0.0000 
     46 H46         2.2912   53.3689   28.3804 H         1 UNK         0.0000 
     47 H47         5.8826   53.0018   21.7349 H         1 UNK         0.0000 
     48 H48         4.4048   53.8461   21.5541 H         1 UNK         0.0000 
     49 H49         5.5239   53.1136   18.4574 H         1 UNK         0.0000 
     50 H50         7.1002   57.6843   19.0280 H         1 UNK         0.0000 
     51 H51         9.5399   56.9487   19.0010 H         1 UNK         0.0000 
     52 H52         9.0686   55.2955   18.4495 H         1 UNK         0.0000 
     53 H53         7.9850   56.2781   16.3532 H         1 UNK         0.0000 
     54 H54         8.4764   57.9393   16.8816 H         1 UNK         0.0000 
     55 H55         2.3267   54.7823   16.7844 H         1 UNK         0.0000 
     56 H56         0.2752   55.3201   15.6848 H         1 UNK         0.0000 
     57 H57        -0.0785   57.6650   14.7912 H         1 UNK         0.0000 
     58 H58         1.6055   59.3642   15.0180 H         1 UNK         0.0000 
     59 H59         5.3182   58.7211   17.9077 H         1 UNK         0.0000 
     60 H60         5.9646   58.1923   16.3331 H         1 UNK         0.0000 
     61 H61         4.0587   59.9003   16.0824 H         1 UNK         0.0000 
@<TRIPOS>BOND
     1    1    2 1    
     2    1   36 1    
     3    1   37 1    
     4    1   38 1    
     5    2    3 1    
     6    2   13 1    
     7    2    4 1    
     8    4    5 1    
     9    4   39 1    
    10    4   40 1    
    11    5    6 1    
    12    5   41 1    
    13    5   42 1    
    14    6    7 1    
    15    6   14 am   BACKBONE|DICT|INTERRES
    16    7   12 ar   
    17    7    8 ar   
    18    8    9 ar   
    19    8   43 1    
    20    9   10 ar   
    21    9   44 1    
    22   10   11 ar   
    23   10   45 1    
    24   11   12 ar   
    25   11   46 1    
    26   12   13 1    
    27   14   15 2    
    28   14   16 1    
    29   16   17 1    
    30   16   47 1    
    31   16   48 1    
    32   17   18 1    
    33   18   19 1    
    34   18   23 1    
    35   18   20 1    
    36   20   21 1    
    37   20   49 1    
    38   21   22 2    
    39   22   23 1    
    40   22   27 1    
    41   23   24 1    
    42   24   26 1    
    43   24   25 1    
    44   24   50 1    
    45   25   26 1    
    46   25   51 1    
    47   25   52 1    
    48   26   53 1    
    49   26   54 1    
    50   27   35 1    
    51   27   28 2    
    52   28   33 1    
    53   28   29 1    
    54   29   30 2    
    55   29   55 1    
    56   30   31 1    
    57   30   56 1    
    58   31   32 2    
    59   31   57 1    
    60   32   33 1    
    61   32   58 1    
    62   33   34 2    
    63   34   35 1    
    64   34   61 1    
    65   35   59 1    
    66   35   60 1    
@<TRIPOS>SUBSTRUCTURE
     1 UNK         1 GROUP             0       ****    0 ROOT    
