@<TRIPOS>MOLECULE
ZINC20528878_2495
56   61    1
SMALL
USER_CHARGES


@<TRIPOS>ATOM
      1 C1          3.1602   53.7815   28.5981 C.3       1 UNK         0.0000 
      2 N2          4.0329   54.2740   27.5398 N.3       1 UNK         0.0000 
      3 C3          5.4252   53.8840   27.7727 C.3       1 UNK         0.0000 
      4 C4          6.3365   54.6641   26.7994 C.3       1 UNK         0.0000 
      5 C5          5.8308   54.6361   25.3549 C.ar      1 UNK         0.0000 
      6 C6          4.5243   54.1917   25.0840 C.ar      1 UNK         0.0000 
      7 C7          4.1271   54.0627   23.7477 C.ar      1 UNK         0.0000 
      8 C8          5.0278   54.3950   22.7183 C.ar      1 UNK         0.0000 
      9 C9          4.9176   54.3120   21.2958 C.2       1 UNK         0.0000 
     10 C10         6.0080   54.8575   20.6176 C.2       1 UNK         0.0000 
     11 S11         7.2586   55.3837   21.7274 S.3       1 UNK         0.0000 
     12 C12         6.2940   54.8916   23.1146 C.ar      1 UNK         0.0000 
     13 N13         6.7052   54.9937   24.3786 N.ar      1 UNK         0.0000 
     14 C14         6.3088   55.0217   19.1912 C.2       1 UNK         0.0000 
     15 O15         7.4366   54.7937   18.7530 O.2       1 UNK         0.0000 
     16 C16         5.3150   55.6496   18.3236 C.2       1 UNK         0.0000 
     17 C17         5.3241   56.9356   17.7972 C.2       1 UNK         0.0000 
     18 C18         4.1654   57.2291   17.0173 C.ar      1 UNK         0.0000 
     19 C19         3.7475   58.4048   16.3784 C.ar      1 UNK         0.0000 
     20 C20         2.5053   58.4436   15.7386 C.ar      1 UNK         0.0000 
     21 C21         1.7378   57.2634   15.6948 C.ar      1 UNK         0.0000 
     22 N22         2.1205   56.1054   16.2977 N.ar      1 UNK         0.0000 
     23 C23         3.2963   56.1120   16.9246 C.ar      1 UNK         0.0000 
     24 S24         3.9565   54.7032   17.7327 S.3       1 UNK         0.0000 
     25 C25         0.3761   57.2866   15.0032 C.3       1 UNK         0.0000 
     26 C26        -0.2120   58.7128   14.9192 C.3       1 UNK         0.0000 
     27 N27         0.7878   59.5968   14.3158 N.3       1 UNK         0.0000 
     28 C28         1.9337   59.7624   15.2200 C.3       1 UNK         0.0000 
     29 C29         0.2142   60.8959   13.9765 C.3       1 UNK         0.0000 
     30 N30         6.3249   57.8498   18.0271 N.pl3     1 UNK         0.0000 
     31 N31         3.8593   53.6968   20.6911 N.pl3     1 UNK         0.0000 
     32 C32         3.5996   53.7724   26.2290 C.3       1 UNK         0.0000 
     33 H33         3.4638   54.1902   29.5634 H         1 UNK         0.0000 
     34 H34         2.1293   54.0926   28.4208 H         1 UNK         0.0000 
     35 H35         3.1800   52.6911   28.6668 H         1 UNK         0.0000 
     36 H36         5.7076   54.1808   28.7840 H         1 UNK         0.0000 
     37 H37         5.5761   52.8023   27.7308 H         1 UNK         0.0000 
     38 H38         7.3561   54.2822   26.8642 H         1 UNK         0.0000 
     39 H39         6.3808   55.6974   27.1355 H         1 UNK         0.0000 
     40 H40         3.1424   53.6868   23.5097 H         1 UNK         0.0000 
     41 H41         4.3582   59.2963   16.4301 H         1 UNK         0.0000 
     42 H42        -0.3252   56.6194   15.5048 H         1 UNK         0.0000 
     43 H43         0.4939   56.8928   13.9925 H         1 UNK         0.0000 
     44 H44        -1.0816   58.6684   14.2608 H         1 UNK         0.0000 
     45 H45        -0.5784   59.0839   15.8794 H         1 UNK         0.0000 
     46 H46         2.7152   60.3030   14.6840 H         1 UNK         0.0000 
     47 H47         1.6655   60.3769   16.0814 H         1 UNK         0.0000 
     48 H48         0.9634   61.5376   13.5095 H         1 UNK         0.0000 
     49 H49        -0.6061   60.7805   13.2676 H         1 UNK         0.0000 
     50 H50        -0.1696   61.4075   14.8607 H         1 UNK         0.0000 
     51 H51         7.1743   57.5797   18.5052 H         1 UNK         0.0000 
     52 H52         6.2827   58.7984   17.6798 H         1 UNK         0.0000 
     53 H53         2.9407   53.6792   21.1169 H         1 UNK         0.0000 
     54 H54         3.8627   53.5357   19.6902 H         1 UNK         0.0000 
     55 H55         2.6018   54.1665   26.0386 H         1 UNK         0.0000 
     56 H56         3.5097   52.6862   26.2384 H         1 UNK         0.0000 
@<TRIPOS>BOND
     1    1    2 1    
     2    1   33 1    
     3    1   34 1    
     4    1   35 1    
     5    2   32 1    
     6    2    3 1    
     7    3    4 1    
     8    3   36 1    
     9    3   37 1    
    10    4    5 1    
    11    4   38 1    
    12    4   39 1    
    13    5   13 ar   
    14    5    6 ar   
    15    6    7 ar   
    16    6   32 1    
    17    7    8 ar   
    18    7   40 1    
    19    8   12 ar   
    20    8    9 1    
    21    9   10 2    
    22    9   31 1    
    23   10   11 1    
    24   10   14 1    
    25   11   12 1    
    26   12   13 ar   
    27   14   15 2    
    28   14   16 1    
    29   16   24 1    
    30   16   17 2    
    31   17   18 1    
    32   17   30 1    
    33   18   23 ar   
    34   18   19 ar   
    35   19   20 ar   
    36   19   41 1    
    37   20   28 1    
    38   20   21 ar   
    39   21   22 ar   
    40   21   25 1    
    41   22   23 ar   
    42   23   24 1    
    43   25   26 1    
    44   25   42 1    
    45   25   43 1    
    46   26   27 1    
    47   26   44 1    
    48   26   45 1    
    49   27   28 1    
    50   27   29 1    
    51   28   46 1    
    52   28   47 1    
    53   29   48 1    
    54   29   49 1    
    55   29   50 1    
    56   30   51 1    
    57   30   52 1    
    58   31   53 1    
    59   31   54 1    
    60   32   55 1    
    61   32   56 1    
@<TRIPOS>SUBSTRUCTURE
     1 UNK         1 GROUP             0       ****    0 ROOT    
