@<TRIPOS>MOLECULE
ZINC20833698_2869
56   58    1
SMALL
USER_CHARGES


@<TRIPOS>ATOM
      1 C1          1.5890   56.1576   29.7235 C.3       1 UNK         0.0000 
      2 C2          1.2504   54.6600   29.8307 C.3       1 UNK         0.0000 
      3 C3          2.4755   53.7187   29.6897 C.3       1 UNK         0.0000 
      4 H4          3.1743   53.9767   30.4820 H         1 UNK         0.0000 
      5 C5          2.0952   52.2437   29.9190 C.3       1 UNK         0.0000 
      6 C6          3.2274   53.9065   28.3752 C.ar      1 UNK         0.0000 
      7 C7          2.5732   53.7099   27.1573 C.ar      1 UNK         0.0000 
      8 C8          3.2499   53.9324   25.9636 C.ar      1 UNK         0.0000 
      9 C9          4.5833   54.3462   25.9791 C.ar      1 UNK         0.0000 
     10 C10         5.2540   54.5015   27.1991 C.ar      1 UNK         0.0000 
     11 C11         4.5711   54.2902   28.3914 C.ar      1 UNK         0.0000 
     12 N12         5.1682   54.5415   24.7208 N.am      1 UNK         0.0000 
     13 C13         6.3241   55.1436   24.3828 C.2       1 UNK         0.0000 
     14 O14         7.0812   55.6939   25.1828 O.2       1 UNK         0.0000 
     15 C15         6.7059   55.1392   22.8883 C.3       1 UNK         0.0000 
     16 C16         5.6683   54.6157   21.8543 C.3       1 UNK         0.0000 
     17 S17         5.1044   52.8967   22.0825 S.3       1 UNK         0.0000 
     18 C18         4.1313   52.6066   20.6549 C.ar      1 UNK         0.0000 
     19 N19         3.5863   51.4144   20.4730 N.2       1 UNK         0.0000 
     20 C20         2.9780   51.5506   19.3247 C.ar      1 UNK         0.0000 
     21 N21         3.1323   52.8229   18.8688 N.pl3     1 UNK         0.0000 
     22 N22         3.9040   53.5079   19.7164 N.2       1 UNK         0.0000 
     23 N23         2.3043   50.5751   18.6298 N.pl3     1 UNK         0.0000 
     24 N24         1.2533   49.8729   19.2247 N.2       1 UNK         0.0000 
     25 C25         1.0630   48.6787   18.8364 C.2       1 UNK         0.0000 
     26 C26         0.0767   47.7763   19.4483 C.ar      1 UNK         0.0000 
     27 C27        -0.0169   46.4562   18.9920 C.ar      1 UNK         0.0000 
     28 C28        -0.8979   45.5579   19.5928 C.ar      1 UNK         0.0000 
     29 C29        -1.6940   45.9768   20.6562 C.ar      1 UNK         0.0000 
     30 C30        -1.6339   47.2931   21.1044 C.ar      1 UNK         0.0000 
     31 C31        -0.7529   48.1880   20.5028 C.ar      1 UNK         0.0000 
     32 Br32       -2.8550   44.7391   21.5235 Br        1 UNK         0.0000 
     33 H33         0.7043   56.7747   29.8684 H         1 UNK         0.0000 
     34 H34         2.0112   56.4108   28.7508 H         1 UNK         0.0000 
     35 H35         2.3020   56.4587   30.4854 H         1 UNK         0.0000 
     36 H36         0.7676   54.4834   30.7935 H         1 UNK         0.0000 
     37 H37         0.5005   54.4081   29.0789 H         1 UNK         0.0000 
     38 H38         2.9649   51.5984   29.7964 H         1 UNK         0.0000 
     39 H39         1.7035   52.0906   30.9271 H         1 UNK         0.0000 
     40 H40         1.3328   51.9063   29.2143 H         1 UNK         0.0000 
     41 H41         1.5390   53.4004   27.1342 H         1 UNK         0.0000 
     42 H42         2.7291   53.7855   25.0281 H         1 UNK         0.0000 
     43 H43         6.2934   54.7891   27.2512 H         1 UNK         0.0000 
     44 H44         5.0940   54.4345   29.3250 H         1 UNK         0.0000 
     45 H45         4.6414   54.1537   23.9512 H         1 UNK         0.0000 
     46 H46         7.1380   56.0929   22.5855 H         1 UNK         0.0000 
     47 H47         7.5188   54.4149   22.8862 H         1 UNK         0.0000 
     48 H48         4.8078   55.2819   21.7919 H         1 UNK         0.0000 
     49 H49         6.1264   54.6716   20.8647 H         1 UNK         0.0000 
     50 H50         2.8551   50.0127   17.9804 H         1 UNK         0.0000 
     51 H51         1.6532   48.2405   18.0325 H         1 UNK         0.0000 
     52 H52         0.6065   46.1078   18.1820 H         1 UNK         0.0000 
     53 H53        -0.9487   44.5377   19.2451 H         1 UNK         0.0000 
     54 H54        -2.2542   47.6173   21.9262 H         1 UNK         0.0000 
     55 H55        -0.7090   49.2026   20.8755 H         1 UNK         0.0000 
     56 H56         2.7718   53.1944   18.0040 H         1 UNK         0.0000 
@<TRIPOS>BOND
     1    1    2 1    
     2    1   33 1    
     3    1   34 1    
     4    1   35 1    
     5    2    3 1    
     6    2   36 1    
     7    2   37 1    
     8    3    4 1    
     9    3    5 1    
    10    3    6 1    
    11    5   38 1    
    12    5   39 1    
    13    5   40 1    
    14    6   11 ar   
    15    6    7 ar   
    16    7    8 ar   
    17    7   41 1    
    18    8    9 ar   
    19    8   42 1    
    20    9   10 ar   
    21    9   12 1    
    22   10   11 ar   
    23   10   43 1    
    24   11   44 1    
    25   12   13 am   BACKBONE|DICT|INTERRES
    26   12   45 1    
    27   13   14 2    
    28   13   15 1    
    29   15   16 1    
    30   15   46 1    
    31   15   47 1    
    32   16   17 1    
    33   16   48 1    
    34   16   49 1    
    35   17   18 1    
    36   18   22 ar   
    37   18   19 ar   
    38   19   20 ar   
    39   20   21 ar   
    40   20   23 1    
    41   21   22 ar   
    42   21   56 1    
    43   23   24 1    
    44   23   50 1    
    45   24   25 2    
    46   25   26 1    
    47   25   51 1    
    48   26   31 ar   
    49   26   27 ar   
    50   27   28 ar   
    51   27   52 1    
    52   28   29 ar   
    53   28   53 1    
    54   29   30 ar   
    55   29   32 1    
    56   30   31 ar   
    57   30   54 1    
    58   31   55 1    
@<TRIPOS>SUBSTRUCTURE
     1 UNK         1 GROUP             0       ****    0 ROOT    
