@<TRIPOS>MOLECULE
ZINC39684185_5551
67   71    1
SMALL
USER_CHARGES


@<TRIPOS>ATOM
      1 C1          1.0206   45.1465   16.2082 C.3       1 UNK         0.0000 
      2 C2          0.3909   45.7436   17.4523 C.ar      1 UNK         0.0000 
      3 C3         -0.7592   45.1530   17.9877 C.ar      1 UNK         0.0000 
      4 C4         -1.3880   45.6379   19.1314 C.ar      1 UNK         0.0000 
      5 C5         -0.8929   46.7499   19.8063 C.ar      1 UNK         0.0000 
      6 C6          0.2608   47.3848   19.3208 C.ar      1 UNK         0.0000 
      7 C7          1.0313   48.5226   19.7560 C.ar      1 UNK         0.0000 
      8 C8          2.0885   48.6057   18.8816 C.ar      1 UNK         0.0000 
      9 N9          1.9714   47.6653   17.8971 N.pl3     1 UNK         0.0000 
     10 C10         0.8805   46.8624   18.1425 C.ar      1 UNK         0.0000 
     11 C11         0.7802   49.4043   20.9542 C.3       1 UNK         0.0000 
     12 C12         1.2816   50.8586   20.7691 C.3       1 UNK         0.0000 
     13 N13         1.1620   51.6239   22.0023 N.am      1 UNK         0.0000 
     14 C14         0.0041   52.0963   22.4952 C.2       1 UNK         0.0000 
     15 O15        -1.0435   52.0967   21.8478 O.2       1 UNK         0.0000 
     16 C16        -0.0455   52.5114   23.9862 C.3       1 UNK         0.0000 
     17 H17        -0.7879   53.3073   24.0680 H         1 UNK         0.0000 
     18 C18         1.2868   53.1191   24.4753 C.3       1 UNK         0.0000 
     19 N19         1.2644   52.8512   25.9188 N.am      1 UNK         0.0000 
     20 C20         0.1845   51.9224   26.2877 C.3       1 UNK         0.0000 
     21 C21        -0.3339   51.3346   24.9551 C.3       1 UNK         0.0000 
     22 C22        -1.8321   50.9378   24.9618 C.3       1 UNK         0.0000 
     23 C23        -2.1329   49.8495   26.0081 C.3       1 UNK         0.0000 
     24 N24        -1.2758   48.6054   25.6817 N.4       1 UNK         0.0000 
     25 C25         0.2351   48.8975   25.5992 C.3       1 UNK         0.0000 
     26 C26         0.4345   50.0249   24.5791 C.3       1 UNK         0.0000 
     27 C27         2.1925   53.3992   26.7528 C.2       1 UNK         0.0000 
     28 O28         3.0992   54.1234   26.3360 O.2       1 UNK         0.0000 
     29 C29         2.1031   53.1115   28.1747 C.2       1 UNK         0.0000 
     30 C30         0.9295   53.1673   28.9369 C.2       1 UNK         0.0000 
     31 S31         1.1604   52.7155   30.5905 S.3       1 UNK         0.0000 
     32 C32         2.8628   52.5656   30.3186 C.2       1 UNK         0.0000 
     33 C33         3.2239   52.8859   29.0101 C.2       1 UNK         0.0000 
     34 O34         4.5273   52.8958   28.5891 O.3       1 UNK         0.0000 
     35 C35         5.1945   54.1200   28.8812 C.3       1 UNK         0.0000 
     36 Cl36        3.8970   52.0964   31.6109 Cl        1 UNK         0.0000 
     37 H37         0.4381   44.3174   15.8020 H         1 UNK         0.0000 
     38 H38         1.1145   45.9055   15.4320 H         1 UNK         0.0000 
     39 H39         2.0168   44.7728   16.4412 H         1 UNK         0.0000 
     40 H40        -1.1857   44.2879   17.5024 H         1 UNK         0.0000 
     41 H41        -2.2778   45.1450   19.4960 H         1 UNK         0.0000 
     42 H42        -1.3913   47.1181   20.6891 H         1 UNK         0.0000 
     43 H43         2.9234   49.2937   18.8805 H         1 UNK         0.0000 
     44 H44         2.6442   47.6091   17.1417 H         1 UNK         0.0000 
     45 H45         1.2720   48.9531   21.8178 H         1 UNK         0.0000 
     46 H46        -0.2889   49.4258   21.1753 H         1 UNK         0.0000 
     47 H47         0.7570   51.3498   19.9443 H         1 UNK         0.0000 
     48 H48         2.3381   50.8624   20.4946 H         1 UNK         0.0000 
     49 H49         2.0029   51.7226   22.5499 H         1 UNK         0.0000 
     50 H50         1.3602   54.1822   24.2367 H         1 UNK         0.0000 
     51 H51         2.1508   52.5728   24.0964 H         1 UNK         0.0000 
     52 H52         0.4314   51.1693   27.0349 H         1 UNK         0.0000 
     53 H53        -0.6285   52.5275   26.6883 H         1 UNK         0.0000 
     54 H54        -2.4362   51.8143   25.2029 H         1 UNK         0.0000 
     55 H55        -2.1638   50.6291   23.9687 H         1 UNK         0.0000 
     56 H56        -1.8766   50.1418   27.0274 H         1 UNK         0.0000 
     57 H57        -3.1724   49.5177   25.9925 H         1 UNK         0.0000 
     58 H58        -1.4121   47.9486   26.4456 H         1 UNK         0.0000 
     59 H59         0.5712   49.1229   26.6104 H         1 UNK         0.0000 
     60 H60         0.7046   47.9668   25.2810 H         1 UNK         0.0000 
     61 H61         0.1194   49.6530   23.6070 H         1 UNK         0.0000 
     62 H62         1.5040   50.2194   24.4825 H         1 UNK         0.0000 
     63 H63        -0.0678   53.4111   28.6050 H         1 UNK         0.0000 
     64 H64         6.2714   53.9686   28.8130 H         1 UNK         0.0000 
     65 H65         4.9231   54.8945   28.1621 H         1 UNK         0.0000 
     66 H66         4.9798   54.5008   29.8819 H         1 UNK         0.0000 
     67 H67        -1.6010   48.1660   24.8320 H         1 UNK         0.0000 
@<TRIPOS>BOND
     1    1   37 1    
     2    1   38 1    
     3    1   39 1    
     4    1    2 1    
     5    2   10 ar   
     6    2    3 ar   
     7    3   40 1    
     8    3    4 ar   
     9    4   41 1    
    10    4    5 ar   
    11    5   42 1    
    12    5    6 ar   
    13    6   10 ar   
    14    6    7 ar   
    15    7   11 1    
    16    7    8 ar   
    17    8    9 ar   
    18    8   43 1    
    19    9   44 1    
    20    9   10 ar   
    21   11   12 1    
    22   11   45 1    
    23   11   46 1    
    24   12   13 1    
    25   12   47 1    
    26   12   48 1    
    27   13   14 am   BACKBONE|DICT|INTERRES
    28   13   49 1    
    29   14   15 2    
    30   14   16 1    
    31   16   17 1    
    32   16   21 1    
    33   16   18 1    
    34   18   19 1    
    35   18   50 1    
    36   18   51 1    
    37   19   20 1    
    38   19   27 am   BACKBONE|DICT|INTERRES
    39   20   21 1    
    40   20   52 1    
    41   20   53 1    
    42   21   26 1    
    43   21   22 1    
    44   22   23 1    
    45   22   54 1    
    46   22   55 1    
    47   23   24 1    
    48   23   56 1    
    49   23   57 1    
    50   24   25 1    
    51   24   58 1    
    52   24   67 1    
    53   25   26 1    
    54   25   59 1    
    55   25   60 1    
    56   26   61 1    
    57   26   62 1    
    58   27   28 2    
    59   27   29 1    
    60   29   33 1    
    61   29   30 2    
    62   30   31 1    
    63   30   63 1    
    64   31   32 1    
    65   32   33 2    
    66   32   36 1    
    67   33   34 1    
    68   34   35 1    
    69   35   64 1    
    70   35   65 1    
    71   35   66 1    
@<TRIPOS>SUBSTRUCTURE
     1 UNK         1 GROUP             0       ****    0 ROOT    
