@<TRIPOS>MOLECULE
ZINC04476910_4770
29   30    1
SMALL
USER_CHARGES


@<TRIPOS>ATOM
      1 C1          1.7759   53.0877   26.8426 C.ar      1 UNK         0.0000 
      2 C2          2.9131   53.8918   26.8573 C.ar      1 UNK         0.0000 
      3 C3          3.5395   54.2258   25.6589 C.ar      1 UNK         0.0000 
      4 C4          3.0353   53.7627   24.4452 C.ar      1 UNK         0.0000 
      5 C5          1.9047   52.9485   24.4290 C.ar      1 UNK         0.0000 
      6 C6          1.2680   52.6029   25.6286 C.ar      1 UNK         0.0000 
      7 C7          0.0748   51.7401   25.6173 C.2       1 UNK         0.0000 
      8 N8         -0.8198   51.6880   26.5216 N.2       1 UNK         0.0000 
      9 N9         -1.8069   50.8249   26.1435 N.pl3     1 UNK         0.0000 
     10 C10        -1.3135   49.9001   25.1084 C.3       1 UNK         0.0000 
     11 C11        -0.2233   50.7781   24.4939 C.3       1 UNK         0.0000 
     12 C12        -2.3712   49.4138   24.0654 C.3       1 UNK         0.0000 
     13 F13        -2.9497   50.4328   23.4268 F         1 UNK         0.0000 
     14 F14        -1.8157   48.6408   23.1286 F         1 UNK         0.0000 
     15 F15        -3.3459   48.6958   24.6272 F         1 UNK         0.0000 
     16 O16        -0.7391   48.7239   25.6817 O.3       1 UNK         0.0000 
     17 C17        -3.0347   50.9413   26.7324 C.2       1 UNK         0.0000 
     18 S18        -4.1809   52.0436   26.2442 S.2       1 UNK         0.0000 
     19 N19        -3.2959   50.0969   27.7555 N.pl3     1 UNK         0.0000 
     20 Cl20        4.9463   55.2269   25.6789 Cl        1 UNK         0.0000 
     21 H21         1.3015   52.8351   27.7809 H         1 UNK         0.0000 
     22 H22         3.3061   54.2558   27.7952 H         1 UNK         0.0000 
     23 H23         3.5219   54.0286   23.5179 H         1 UNK         0.0000 
     24 H24         1.5341   52.5978   23.4764 H         1 UNK         0.0000 
     25 H25        -0.5863   51.3522   23.6410 H         1 UNK         0.0000 
     26 H26         0.6392   50.1911   24.1735 H         1 UNK         0.0000 
     27 H27        -1.1074   48.5486   26.5656 H         1 UNK         0.0000 
     28 H28        -2.5847   49.4271   28.0812 H         1 UNK         0.0000 
     29 H29        -4.1925   50.1321   28.2150 H         1 UNK         0.0000 
@<TRIPOS>BOND
     1    1    6 ar   
     2    1    2 ar   
     3    1   21 1    
     4    2    3 ar   
     5    2   22 1    
     6    3    4 ar   
     7    3   20 1    
     8    4    5 ar   
     9    4   23 1    
    10    5    6 ar   
    11    5   24 1    
    12    6    7 1    
    13    7   11 1    
    14    7    8 2    
    15    8    9 1    
    16    9   10 1    
    17    9   17 1    
    18   10   11 1    
    19   10   12 1    
    20   10   16 1    
    21   11   25 1    
    22   11   26 1    
    23   12   13 1    
    24   12   14 1    
    25   12   15 1    
    26   16   27 1    
    27   17   18 2    
    28   17   19 1    
    29   19   28 1    
    30   19   29 1    
@<TRIPOS>SUBSTRUCTURE
     1 UNK         1 GROUP             0       ****    0 ROOT    
