@<TRIPOS>MOLECULE
ZINC40475512_5666
50   54    1
SMALL
USER_CHARGES


@<TRIPOS>ATOM
      1 C1          9.1944   54.9182   17.9264 C.3       1 UNK         0.0000 
      2 C2          8.5592   55.7749   19.0243 C.3       1 UNK         0.0000 
      3 O3          7.3525   55.1567   19.4502 O.3       1 UNK         0.0000 
      4 C4          6.7092   55.5785   20.5641 C.2       1 UNK         0.0000 
      5 O5          7.1043   56.4964   21.2815 O.2       1 UNK         0.0000 
      6 C6          5.5579   54.7069   20.9229 C.ar      1 UNK         0.0000 
      7 C7          5.2470   54.4966   22.2724 C.ar      1 UNK         0.0000 
      8 C8          4.1694   53.6966   22.6311 C.ar      1 UNK         0.0000 
      9 C9          3.4126   53.0733   21.6364 C.ar      1 UNK         0.0000 
     10 C10         3.7096   53.2968   20.2842 C.ar      1 UNK         0.0000 
     11 C11         4.7756   54.1104   19.9285 C.ar      1 UNK         0.0000 
     12 N12         2.4532   52.1019   21.9861 N.am      1 UNK         0.0000 
     13 C13         2.5801   50.8253   21.5551 C.2       1 UNK         0.0000 
     14 O14         3.5044   50.3864   20.8817 O.2       1 UNK         0.0000 
     15 C15         1.4001   49.9982   22.0304 C.3       1 UNK         0.0000 
     16 H16         1.8128   49.1781   22.6227 H         1 UNK         0.0000 
     17 C17         0.5757   49.3600   20.8541 C.3       1 UNK         0.0000 
     18 H18         1.1379   48.4824   20.5321 H         1 UNK         0.0000 
     19 C19        -0.6994   48.8178   21.4645 C.2       1 UNK         0.0000 
     20 C20        -1.4505   49.4283   22.4583 C.2       1 UNK         0.0000 
     21 N21        -2.4871   48.7595   22.9268 N.2       1 UNK         0.0000 
     22 C22        -2.5945   47.5826   22.3558 C.2       1 UNK         0.0000 
     23 S23        -3.7775   46.3601   22.7973 S.3       1 UNK         0.0000 
     24 S24        -1.4247   47.2793   21.1091 S.3       1 UNK         0.0000 
     25 S25        -1.1215   51.0422   23.0763 S.3       1 UNK         0.0000 
     26 C26         0.7122   50.9437   23.0135 C.3       1 UNK         0.0000 
     27 H27         0.9794   50.6447   24.0292 H         1 UNK         0.0000 
     28 C28         1.3729   52.3000   22.7844 C.2       1 UNK         0.0000 
     29 O29         1.0034   53.3627   23.2870 O.2       1 UNK         0.0000 
     30 C30         0.4053   50.2136   19.5751 C.ar      1 UNK         0.0000 
     31 C31        -0.6121   51.1753   19.4986 C.ar      1 UNK         0.0000 
     32 C32        -0.7332   52.0014   18.3825 C.ar      1 UNK         0.0000 
     33 C33         0.1605   51.8766   17.3219 C.ar      1 UNK         0.0000 
     34 C34         1.1703   50.9187   17.3741 C.ar      1 UNK         0.0000 
     35 C35         1.2955   50.0858   18.4861 C.ar      1 UNK         0.0000 
     36 O36         2.3042   49.1543   18.4817 O.3       1 UNK         0.0000 
     37 H37        10.1279   55.3627   17.5813 H         1 UNK         0.0000 
     38 H38         8.5309   54.8215   17.0667 H         1 UNK         0.0000 
     39 H39         9.4210   53.9164   18.2925 H         1 UNK         0.0000 
     40 H40         9.2559   55.8707   19.8597 H         1 UNK         0.0000 
     41 H41         8.3510   56.7790   18.6523 H         1 UNK         0.0000 
     42 H42         5.8437   54.9456   23.0546 H         1 UNK         0.0000 
     43 H43         3.9594   53.5197   23.6760 H         1 UNK         0.0000 
     44 H44         3.1384   52.8079   19.5065 H         1 UNK         0.0000 
     45 H45         4.9911   54.2550   18.8787 H         1 UNK         0.0000 
     46 H46        -1.3121   51.2969   20.3091 H         1 UNK         0.0000 
     47 H47        -1.5177   52.7413   18.3397 H         1 UNK         0.0000 
     48 H48         0.0708   52.5186   16.4582 H         1 UNK         0.0000 
     49 H49         1.8594   50.8229   16.5470 H         1 UNK         0.0000 
     50 H50         2.9749   49.2913   17.7862 H         1 UNK         0.0000 
@<TRIPOS>BOND
     1    1    2 1    
     2    1   37 1    
     3    1   38 1    
     4    1   39 1    
     5    2    3 1    
     6    2   40 1    
     7    2   41 1    
     8    3    4 1    
     9    4    5 2    
    10    4    6 1    
    11    6   11 ar   
    12    6    7 ar   
    13    7    8 ar   
    14    7   42 1    
    15    8    9 ar   
    16    8   43 1    
    17    9   10 ar   
    18    9   12 1    
    19   10   11 ar   
    20   10   44 1    
    21   11   45 1    
    22   12   28 am   BACKBONE|DICT|INTERRES
    23   12   13 am   BACKBONE|DICT|INTERRES
    24   13   14 2    
    25   13   15 1    
    26   15   16 1    
    27   15   26 1    
    28   15   17 1    
    29   17   18 1    
    30   17   19 1    
    31   17   30 1    
    32   19   24 1    
    33   19   20 2    
    34   20   21 1    
    35   20   25 1    
    36   21   22 2    
    37   22   23 1    
    38   22   24 1    
    39   25   26 1    
    40   26   27 1    
    41   26   28 1    
    42   28   29 2    
    43   30   35 ar   
    44   30   31 ar   
    45   31   32 ar   
    46   31   46 1    
    47   32   33 ar   
    48   32   47 1    
    49   33   34 ar   
    50   33   48 1    
    51   34   35 ar   
    52   34   49 1    
    53   35   36 1    
    54   36   50 1    
@<TRIPOS>SUBSTRUCTURE
     1 UNK         1 GROUP             0       ****    0 ROOT    
