@<TRIPOS>MOLECULE
ZINC12211601_5669
48   51    1
SMALL
USER_CHARGES


@<TRIPOS>ATOM
      1 C1         -6.7405   52.8210   25.9830 C.3       1 UNK         0.0000 
      2 C2         -5.5254   53.7570   26.0808 C.2       1 UNK         0.0000 
      3 O3         -5.7506   54.8967   26.4820 O.2       1 UNK         0.0000 
      4 N4         -4.3187   53.3786   25.7517 N.2       1 UNK         0.0000 
      5 S5         -4.0012   51.9096   25.3116 S.o2      1 UNK         0.0000 
      6 O6         -4.1921   50.9142   26.3719 O.2       1 UNK         0.0000 
      7 O7         -4.4748   51.5781   23.9625 O.2       1 UNK         0.0000 
      8 C8         -2.2268   52.0847   25.1415 C.ar      1 UNK         0.0000 
      9 C9         -1.3830   51.8037   26.2190 C.ar      1 UNK         0.0000 
     10 C10        -0.0251   52.0989   26.1259 C.ar      1 UNK         0.0000 
     11 C11         0.4844   52.6860   24.9607 C.ar      1 UNK         0.0000 
     12 C12        -0.3460   52.8698   23.8572 C.ar      1 UNK         0.0000 
     13 C13        -1.7033   52.5840   23.9485 C.ar      1 UNK         0.0000 
     14 N14         1.7991   53.1576   24.8353 N.pl3     1 UNK         0.0000 
     15 C15         2.7644   53.5773   25.7660 C.ar      1 UNK         0.0000 
     16 C16         4.0375   54.0041   25.3161 C.ar      1 UNK         0.0000 
     17 C17         4.6336   54.0966   24.0123 C.2       1 UNK         0.0000 
     18 C18         5.9414   54.5774   24.0854 C.2       1 UNK         0.0000 
     19 S19         6.4886   54.8971   25.7146 S.3       1 UNK         0.0000 
     20 C20         4.9372   54.4055   26.3473 C.ar      1 UNK         0.0000 
     21 N21         4.6580   54.4044   27.6535 N.ar      1 UNK         0.0000 
     22 C22         3.4083   53.9805   27.9625 C.ar      1 UNK         0.0000 
     23 N23         2.4559   53.5800   27.0886 N.ar      1 UNK         0.0000 
     24 S24         3.0051   53.9417   29.6813 S.3       1 UNK         0.0000 
     25 C25         1.2990   53.3332   29.8365 C.3       1 UNK         0.0000 
     26 C26         6.8690   54.7450   22.8915 C.3       1 UNK         0.0000 
     27 C27         6.0431   54.7451   21.5866 C.3       1 UNK         0.0000 
     28 C28         5.0040   53.6133   21.5589 C.3       1 UNK         0.0000 
     29 C29         3.9556   53.7527   22.6821 C.3       1 UNK         0.0000 
     30 H30        -6.8697   52.4591   24.9625 H         1 UNK         0.0000 
     31 H31        -7.6574   53.3389   26.2665 H         1 UNK         0.0000 
     32 H32        -6.6269   51.9657   26.6492 H         1 UNK         0.0000 
     33 H33        -1.7819   51.3951   27.1375 H         1 UNK         0.0000 
     34 H34         0.6058   51.8968   26.9765 H         1 UNK         0.0000 
     35 H35         0.0467   53.2958   22.9462 H         1 UNK         0.0000 
     36 H36        -2.3553   52.7948   23.1134 H         1 UNK         0.0000 
     37 H37         2.0747   53.3157   23.8779 H         1 UNK         0.0000 
     38 H38         0.9969   53.3111   30.8838 H         1 UNK         0.0000 
     39 H39         0.6105   53.9815   29.2939 H         1 UNK         0.0000 
     40 H40         1.2149   52.3227   29.4357 H         1 UNK         0.0000 
     41 H41         7.4563   55.6614   22.9652 H         1 UNK         0.0000 
     42 H42         7.5797   53.9184   22.8816 H         1 UNK         0.0000 
     43 H43         5.5316   55.6990   21.4696 H         1 UNK         0.0000 
     44 H44         6.7063   54.6644   20.7251 H         1 UNK         0.0000 
     45 H45         4.5004   53.5931   20.5911 H         1 UNK         0.0000 
     46 H46         5.5060   52.6492   21.6512 H         1 UNK         0.0000 
     47 H47         3.4010   52.8166   22.7419 H         1 UNK         0.0000 
     48 H48         3.2333   54.5279   22.4201 H         1 UNK         0.0000 
@<TRIPOS>BOND
     1    1    2 1    
     2    1   30 1    
     3    1   31 1    
     4    1   32 1    
     5    2    3 2    
     6    2    4 1    
     7    4    5 1    
     8    5    6 2    
     9    5    7 2    
    10    5    8 1    
    11    8   13 ar   
    12    8    9 ar   
    13    9   10 ar   
    14    9   33 1    
    15   10   11 ar   
    16   10   34 1    
    17   11   12 ar   
    18   11   14 1    
    19   12   13 ar   
    20   12   35 1    
    21   13   36 1    
    22   14   15 1    
    23   14   37 1    
    24   15   23 ar   
    25   15   16 ar   
    26   16   20 ar   
    27   16   17 1    
    28   17   29 1    
    29   17   18 2    
    30   18   19 1    
    31   18   26 1    
    32   19   20 1    
    33   20   21 ar   
    34   21   22 ar   
    35   22   23 ar   
    36   22   24 1    
    37   24   25 1    
    38   25   38 1    
    39   25   39 1    
    40   25   40 1    
    41   26   27 1    
    42   26   41 1    
    43   26   42 1    
    44   27   28 1    
    45   27   43 1    
    46   27   44 1    
    47   28   29 1    
    48   28   45 1    
    49   28   46 1    
    50   29   47 1    
    51   29   48 1    
@<TRIPOS>SUBSTRUCTURE
     1 UNK         1 GROUP             0       ****    0 ROOT    
