@<TRIPOS>MOLECULE
ZINC35023254_2555
45   47    1
SMALL
USER_CHARGES


@<TRIPOS>ATOM
      1 C1          5.3673   54.4028   27.5067 C.3       1 UNK         0.0000 
      2 O2          4.8839   54.6324   26.1874 O.3       1 UNK         0.0000 
      3 C3          3.6649   54.0980   25.8128 C.ar      1 UNK         0.0000 
      4 C4          2.8248   53.3613   26.6626 C.ar      1 UNK         0.0000 
      5 C5          1.6228   52.8443   26.1863 C.ar      1 UNK         0.0000 
      6 C6          1.2446   53.0601   24.8571 C.ar      1 UNK         0.0000 
      7 C7          2.0575   53.8301   24.0211 C.ar      1 UNK         0.0000 
      8 C8          3.2676   54.3266   24.4960 C.ar      1 UNK         0.0000 
      9 C9         -0.0623   52.5623   24.3520 C.2       1 UNK         0.0000 
     10 O10        -0.8148   53.2706   23.6821 O.2       1 UNK         0.0000 
     11 C11        -0.3496   51.0453   24.5026 C.3       1 UNK         0.0000 
     12 H12         0.5738   50.6222   24.9000 H         1 UNK         0.0000 
     13 C13        -1.4374   50.7561   25.5981 C.3       1 UNK         0.0000 
     14 H14        -1.0415   51.0606   26.5686 H         1 UNK         0.0000 
     15 N15        -1.5415   49.2951   25.6822 N.pl3     1 UNK         0.0000 
     16 C16        -1.5130   48.4333   24.6320 C.2       1 UNK         0.0000 
     17 S17        -2.0956   46.8961   24.7565 S.2       1 UNK         0.0000 
     18 N18        -0.9973   48.9056   23.4657 N.pl3     1 UNK         0.0000 
     19 C19        -0.5947   50.2848   23.1297 C.3       1 UNK         0.0000 
     20 C20         0.6748   50.2911   22.2114 C.3       1 UNK         0.0000 
     21 F21         1.0185   51.5110   21.7881 F         1 UNK         0.0000 
     22 F22         1.7351   49.7840   22.8460 F         1 UNK         0.0000 
     23 F23         0.4889   49.5449   21.1201 F         1 UNK         0.0000 
     24 O24        -1.6604   50.8727   22.3985 O.3       1 UNK         0.0000 
     25 C25        -2.7672   51.5230   25.4509 C.ar      1 UNK         0.0000 
     26 C26        -2.9056   52.7653   26.0811 C.ar      1 UNK         0.0000 
     27 C27        -4.0949   53.4798   25.9788 C.ar      1 UNK         0.0000 
     28 C28        -5.1607   52.9490   25.2636 C.ar      1 UNK         0.0000 
     29 C29        -5.0487   51.7014   24.6519 C.ar      1 UNK         0.0000 
     30 C30        -3.8578   50.9854   24.7532 C.ar      1 UNK         0.0000 
     31 F31        -6.3118   53.6491   25.1646 F         1 UNK         0.0000 
     32 H32         6.3433   54.8760   27.6202 H         1 UNK         0.0000 
     33 H33         5.4947   53.3379   27.7073 H         1 UNK         0.0000 
     34 H34         4.7019   54.8322   28.2575 H         1 UNK         0.0000 
     35 H35         3.0924   53.1735   27.6887 H         1 UNK         0.0000 
     36 H36         0.9910   52.2815   26.8613 H         1 UNK         0.0000 
     37 H37         1.7714   54.0336   22.9971 H         1 UNK         0.0000 
     38 H38         3.9053   54.8966   23.8381 H         1 UNK         0.0000 
     39 H39        -1.6982   48.8620   26.5927 H         1 UNK         0.0000 
     40 H40        -1.0452   48.2372   22.7104 H         1 UNK         0.0000 
     41 H41        -2.3927   51.0044   23.0056 H         1 UNK         0.0000 
     42 H42        -2.0826   53.1867   26.6370 H         1 UNK         0.0000 
     43 H43        -4.1905   54.4441   26.4566 H         1 UNK         0.0000 
     44 H44        -5.8879   51.2951   24.1057 H         1 UNK         0.0000 
     45 H45        -3.7934   50.0119   24.2890 H         1 UNK         0.0000 
@<TRIPOS>BOND
     1    1    2 1    
     2    1   32 1    
     3    1   33 1    
     4    1   34 1    
     5    2    3 1    
     6    3    8 ar   
     7    3    4 ar   
     8    4    5 ar   
     9    4   35 1    
    10    5    6 ar   
    11    5   36 1    
    12    6    7 ar   
    13    6    9 1    
    14    7    8 ar   
    15    7   37 1    
    16    8   38 1    
    17    9   10 2    
    18    9   11 1    
    19   11   12 1    
    20   11   19 1    
    21   11   13 1    
    22   13   14 1    
    23   13   15 1    
    24   13   25 1    
    25   15   16 1    
    26   15   39 1    
    27   16   17 2    
    28   16   18 1    
    29   18   19 1    
    30   18   40 1    
    31   19   20 1    
    32   19   24 1    
    33   20   21 1    
    34   20   22 1    
    35   20   23 1    
    36   24   41 1    
    37   25   30 ar   
    38   25   26 ar   
    39   26   27 ar   
    40   26   42 1    
    41   27   28 ar   
    42   27   43 1    
    43   28   29 ar   
    44   28   31 1    
    45   29   30 ar   
    46   29   44 1    
    47   30   45 1    
@<TRIPOS>SUBSTRUCTURE
     1 UNK         1 GROUP             0       ****    0 ROOT    
