@<TRIPOS>MOLECULE
ZINC47128881_4588
53   55    1
SMALL
USER_CHARGES


@<TRIPOS>ATOM
      1 C1          6.1390   54.4985   28.2264 C.3       1 UNK         0.0000 
      2 C2          5.1941   53.6317   27.3749 C.3       1 UNK         0.0000 
      3 H3          5.5939   52.6148   27.3796 H         1 UNK         0.0000 
      4 C4          5.2256   54.0301   25.8840 C.ar      1 UNK         0.0000 
      5 C5          6.4615   54.1840   25.2441 C.ar      1 UNK         0.0000 
      6 C6          6.5367   54.4104   23.8734 C.ar      1 UNK         0.0000 
      7 C7          5.3671   54.4722   23.1099 C.ar      1 UNK         0.0000 
      8 C8          4.1278   54.3438   23.7385 C.ar      1 UNK         0.0000 
      9 C9          4.0606   54.1582   25.1184 C.ar      1 UNK         0.0000 
     10 N10         5.3834   54.5875   21.7091 N.am      1 UNK         0.0000 
     11 C11         6.2545   55.2971   20.9650 C.2       1 UNK         0.0000 
     12 O12         7.1045   56.0685   21.4163 O.2       1 UNK         0.0000 
     13 N13         6.1044   55.0373   19.6588 N.am      1 UNK         0.0000 
     14 C14         6.9582   55.5866   18.6094 C.3       1 UNK         0.0000 
     15 C15         8.4172   55.1818   18.5460 C.3       1 UNK         0.0000 
     16 C16         7.4384   54.6586   17.5198 C.3       1 UNK         0.0000 
     17 N17         3.8568   53.5194   27.9936 N.am      1 UNK         0.0000 
     18 C18         3.5516   52.8406   29.1231 C.2       1 UNK         0.0000 
     19 O19         4.3834   52.1208   29.6816 O.2       1 UNK         0.0000 
     20 N20         2.3117   53.0604   29.6588 N.am      1 UNK         0.0000 
     21 C21         1.9663   52.4957   30.9728 C.3       1 UNK         0.0000 
     22 C22         1.1148   53.6017   28.9702 C.3       1 UNK         0.0000 
     23 H23         0.3369   53.6694   29.7340 H         1 UNK         0.0000 
     24 C24         1.2532   55.0555   28.4732 C.3       1 UNK         0.0000 
     25 C25         0.5439   52.6153   27.9518 C.2       1 UNK         0.0000 
     26 C26        -0.4830   51.6897   28.1399 C.2       1 UNK         0.0000 
     27 C27        -0.7799   50.9059   27.0191 C.2       1 UNK         0.0000 
     28 C28        -0.0004   51.2272   25.9288 C.2       1 UNK         0.0000 
     29 S29         1.1046   52.4967   26.3027 S.3       1 UNK         0.0000 
     30 H30         7.1853   54.3609   27.9579 H         1 UNK         0.0000 
     31 H31         5.9047   55.5566   28.1207 H         1 UNK         0.0000 
     32 H32         6.0712   54.2517   29.2816 H         1 UNK         0.0000 
     33 H33         7.3827   54.0875   25.7949 H         1 UNK         0.0000 
     34 H34         7.5043   54.4943   23.4039 H         1 UNK         0.0000 
     35 H35         3.2142   54.3952   23.1655 H         1 UNK         0.0000 
     36 H36         3.0923   54.0798   25.5741 H         1 UNK         0.0000 
     37 H37         4.6130   54.1485   21.2278 H         1 UNK         0.0000 
     38 H38         5.2351   54.6287   19.3481 H         1 UNK         0.0000 
     39 H39         6.7128   56.6163   18.3428 H         1 UNK         0.0000 
     40 H40         9.1517   55.9303   18.2518 H         1 UNK         0.0000 
     41 H41         8.8126   54.4978   19.2962 H         1 UNK         0.0000 
     42 H42         7.1430   53.6088   17.5559 H         1 UNK         0.0000 
     43 H43         7.4814   55.0388   16.4987 H         1 UNK         0.0000 
     44 H44         3.1412   54.1148   27.6089 H         1 UNK         0.0000 
     45 H45         2.8207   52.0971   31.5231 H         1 UNK         0.0000 
     46 H46         1.5044   53.2564   31.6013 H         1 UNK         0.0000 
     47 H47         1.2375   51.6966   30.8502 H         1 UNK         0.0000 
     48 H48         0.3047   55.4087   28.0817 H         1 UNK         0.0000 
     49 H49         1.5438   55.7221   29.2855 H         1 UNK         0.0000 
     50 H50         1.9794   55.1787   27.6780 H         1 UNK         0.0000 
     51 H51        -0.9952   51.5606   29.0823 H         1 UNK         0.0000 
     52 H52        -1.5261   50.1217   27.0138 H         1 UNK         0.0000 
     53 H53        -0.0101   50.7772   24.9477 H         1 UNK         0.0000 
@<TRIPOS>BOND
     1    1    2 1    
     2    1   30 1    
     3    1   31 1    
     4    1   32 1    
     5    2    3 1    
     6    2    4 1    
     7    2   17 1    
     8    4    9 ar   
     9    4    5 ar   
    10    5    6 ar   
    11    5   33 1    
    12    6    7 ar   
    13    6   34 1    
    14    7    8 ar   
    15    7   10 1    
    16    8    9 ar   
    17    8   35 1    
    18    9   36 1    
    19   10   11 am   BACKBONE|DICT|INTERRES
    20   10   37 1    
    21   11   12 2    
    22   11   13 am   BACKBONE|DICT|INTERRES
    23   13   14 1    
    24   13   38 1    
    25   14   16 1    
    26   14   15 1    
    27   14   39 1    
    28   15   16 1    
    29   15   40 1    
    30   15   41 1    
    31   16   42 1    
    32   16   43 1    
    33   17   18 am   BACKBONE|DICT|INTERRES
    34   17   44 1    
    35   18   19 2    
    36   18   20 am   BACKBONE|DICT|INTERRES
    37   20   21 1    
    38   20   22 1    
    39   21   45 1    
    40   21   46 1    
    41   21   47 1    
    42   22   23 1    
    43   22   24 1    
    44   22   25 1    
    45   24   48 1    
    46   24   49 1    
    47   24   50 1    
    48   25   29 1    
    49   25   26 2    
    50   26   27 1    
    51   26   51 1    
    52   27   28 2    
    53   27   52 1    
    54   28   29 1    
    55   28   53 1    
@<TRIPOS>SUBSTRUCTURE
     1 UNK         1 GROUP             0       ****    0 ROOT    
