ZINC63720215_238
                    3D
 Schrodinger Suite 2024-2.
 55 59  0  0  1  0            999 V2000
    1.4091   52.7753   30.2885 C   0  0  0  0  0  0
    0.6939   52.3370   29.0238 C   0  0  0  0  0  0
    1.3719   52.2900   27.8052 C   0  0  0  0  0  0
    0.7153   51.8554   26.6552 C   0  0  0  0  0  0
   -0.6275   51.4610   26.7015 C   0  0  0  0  0  0
   -1.3188   51.5279   27.9270 C   0  0  0  0  0  0
   -0.6454   51.9537   29.0778 C   0  0  0  0  0  0
   -2.7924   51.1658   28.0470 C   0  0  0  0  0  0
   -1.2302   50.9470   25.5293 N   0  0  0  0  0  0
   -1.5010   49.4883   25.4788 C   0  0  1  0  0  0
   -1.6108   49.0811   26.4816 H   0  0  0  0  0  0
   -2.7404   49.2185   24.7356 N   0  0  0  0  0  0
   -2.9954   49.8103   23.5527 C   0  0  0  0  0  0
   -1.9962   50.9490   23.1870 C   0  0  1  0  0  0
   -1.3943   51.7104   24.4051 C   0  0  0  0  0  0
   -1.1244   52.9105   24.3338 O   0  0  0  0  0  0
   -0.8909   50.5424   22.1387 C   0  0  2  0  0  0
   -0.1621   49.9409   22.6810 H   0  0  0  0  0  0
   -0.0948   51.7105   21.4657 C   0  0  2  0  0  0
   -0.7837   52.4186   21.0062 H   0  0  0  0  0  0
    0.9048   51.2033   20.4465 C   0  0  0  0  0  0
    2.1173   51.7115   20.7082 C   0  0  0  0  0  0
    3.4052   51.5602   20.0269 C   0  0  0  0  0  0
    4.5027   52.1955   20.4827 C   0  0  0  0  0  0
    4.3703   53.0172   21.6794 C   0  0  0  0  0  0
    3.1844   53.1517   22.3326 C   0  0  0  0  0  0
    2.0392   52.4992   21.8567 C   0  0  0  0  0  0
    0.8148   52.4955   22.3317 N   0  3  0  0  0  0
    0.3811   50.2269   19.4143 C   0  0  0  0  0  0
   -0.3669   49.1108   20.1696 C   0  0  0  0  0  0
   -1.3859   49.6511   21.0741 N   0  0  0  0  0  0
   -3.9550   49.4890   22.8561 O   0  0  0  0  0  0
   -0.0959   48.4969   24.8817 S   0  0  0  0  0  0
    2.4763   52.5563   30.2349 H   0  0  0  0  0  0
    1.0217   52.2411   31.1583 H   0  0  0  0  0  0
    1.2706   53.8445   30.4512 H   0  0  0  0  0  0
    2.4132   52.5725   27.7472 H   0  0  0  0  0  0
    1.2643   51.8027   25.7268 H   0  0  0  0  0  0
   -1.1668   51.9787   30.0249 H   0  0  0  0  0  0
   -3.3445   51.4352   27.1471 H   0  0  0  0  0  0
   -2.8984   50.0964   28.2208 H   0  0  0  0  0  0
   -3.2668   51.6943   28.8745 H   0  0  0  0  0  0
   -3.3464   48.4670   25.0291 H   0  0  0  0  0  0
    3.5040   50.9572   19.1327 H   0  0  0  0  0  0
    5.4458   52.0960   19.9615 H   0  0  0  0  0  0
    5.2423   53.5313   22.0568 H   0  0  0  0  0  0
    3.1429   53.7740   23.2150 H   0  0  0  0  0  0
    1.1879   49.7992   18.8162 H   0  0  0  0  0  0
   -0.2901   50.7205   18.7104 H   0  0  0  0  0  0
    0.3570   48.5237   20.7393 H   0  0  0  0  0  0
   -0.8361   48.4317   19.4561 H   0  0  0  0  0  0
   -2.2304   49.9773   20.6219 H   0  0  0  0  0  0
    0.0934   47.7930   26.0123 H   0  0  0  0  0  0
    0.4986   52.9871   23.1677 H   0  0  0  0  0  0
   -2.6404   51.6848   22.7073 H   0  0  0  0  0  0
  1  2  1  0  0  0
  1 34  1  0  0  0
  1 35  1  0  0  0
  1 36  1  0  0  0
  2  7  2  0  0  0
  2  3  1  0  0  0
  3  4  2  0  0  0
  3 37  1  0  0  0
  4  5  1  0  0  0
  4 38  1  0  0  0
  5  6  2  0  0  0
  5  9  1  0  0  0
  6  7  1  0  0  0
  6  8  1  0  0  0
  7 39  1  0  0  0
  8 40  1  0  0  0
  8 41  1  0  0  0
  8 42  1  0  0  0
  9 15  1  0  0  0
  9 10  1  0  0  0
 10 11  1  0  0  0
 10 12  1  0  0  0
 10 33  1  0  0  0
 12 13  1  0  0  0
 12 43  1  0  0  0
 13 14  1  0  0  0
 13 32  2  0  0  0
 14 15  1  0  0  0
 14 17  1  0  0  0
 14 55  1  0  0  0
 15 16  2  0  0  0
 17 18  1  0  0  0
 17 31  1  0  0  0
 17 19  1  0  0  0
 19 20  1  0  0  0
 19 28  1  0  0  0
 19 21  1  0  0  0
 21 22  2  0  0  0
 21 29  1  0  0  0
 22 27  1  0  0  0
 22 23  1  0  0  0
 23 24  2  0  0  0
 23 44  1  0  0  0
 24 25  1  0  0  0
 24 45  1  0  0  0
 25 26  2  0  0  0
 25 46  1  0  0  0
 26 27  1  0  0  0
 26 47  1  0  0  0
 27 28  2  0  0  0
 28 54  1  0  0  0
 29 30  1  0  0  0
 29 48  1  0  0  0
 29 49  1  0  0  0
 30 31  1  0  0  0
 30 50  1  0  0  0
 30 51  1  0  0  0
 31 52  1  0  0  0
 33 53  1  0  0  0
M  CHG  1  28   1
M  END
> <i_i_glide_confnum>
7

> <i_i_glide_lignum>
239

> <i_i_glide_posenum>
209

> <i_i_glide_rotatable_bonds>
3

> <i_m_Source_File_Index>
238

> <b_m_subgroup_collapsed>
0

> <r_i_docking_score>
-3.69474

> <r_i_glide_ecoul>
-3.94803

> <r_i_glide_eff_state_penalty>
0

> <r_i_glide_einternal>
5.6982

> <r_i_glide_emodel>
-42.4346

> <r_i_glide_energy>
-35.5114

> <r_i_glide_erotb>
0.222883

> <r_i_glide_esite>
-0.204478

> <r_i_glide_evdw>
-31.5634

> <r_i_glide_gscore>
-3.69474

> <r_i_glide_hbond>
-0.317412

> <r_i_glide_ligand_efficiency>
-0.123158

> <r_i_glide_ligand_efficiency_ln>
-0.839486

> <r_i_glide_ligand_efficiency_sa>
-0.382681

> <r_i_glide_lipo>
-0.690381

> <r_i_glide_metal>
0

> <r_i_glide_rewards>
-0.53498

> <s_i_glide_gridfile>
wee1_glide-grid

> <s_m_Source_File>
wee1_decoys_glide_SP.sdf

> <s_m_Source_Path>
/Users/zhangxujun/Desktop

> <s_m_entry_id>
513

> <s_m_entry_name>
wee1_decoys_glide_SP.238

> <s_m_subgroup_title>
wee1_decoys_glide_SP

> <s_m_subgroupid>
wee1_decoys_glide_SP


$$$$
