@<TRIPOS>MOLECULE
ZINC38615384_4395
56   59    1
SMALL
USER_CHARGES


@<TRIPOS>ATOM
      1 C1          5.8664   57.3918   16.4989 C.3       1 UNK         0.0000 
      2 C2          5.8075   56.2542   17.5344 C.3       1 UNK         0.0000 
      3 H3          6.4412   55.4502   17.1533 H         1 UNK         0.0000 
      4 C4          4.3651   55.7489   17.7278 C.3       1 UNK         0.0000 
      5 C5          4.3195   54.4675   18.5862 C.3       1 UNK         0.0000 
      6 C6          5.1373   54.6741   19.8738 C.2       1 UNK         0.0000 
      7 C7          6.0956   55.6959   19.9592 C.2       1 UNK         0.0000 
      8 S8          6.9191   55.6970   21.4728 S.3       1 UNK         0.0000 
      9 C9          5.9042   54.4207   22.0856 C.2       1 UNK         0.0000 
     10 C10         5.0449   53.9266   21.0809 C.2       1 UNK         0.0000 
     11 C11         4.2261   52.7507   21.2468 C.2       1 UNK         0.0000 
     12 O12         4.7074   51.7067   21.6816 O.2       1 UNK         0.0000 
     13 N13         2.9275   52.8966   20.9283 N.am      1 UNK         0.0000 
     14 C14         1.9142   51.8514   21.0532 C.3       1 UNK         0.0000 
     15 H15         2.3357   50.8452   21.1600 H         1 UNK         0.0000 
     16 C16         1.0430   52.1230   22.3016 C.3       1 UNK         0.0000 
     17 C17        -0.1904   51.2122   22.2563 C.3       1 UNK         0.0000 
     18 S18        -0.6547   51.1445   20.4444 S.o2      1 UNK         0.0000 
     19 O19        -0.7734   49.7418   20.0428 O.2       1 UNK         0.0000 
     20 O20        -1.7352   52.0968   20.1611 O.2       1 UNK         0.0000 
     21 C21         0.9725   51.8560   19.8377 C.3       1 UNK         0.0000 
     22 N22         6.0374   53.9587   23.4021 N.am      1 UNK         0.0000 
     23 C23         6.4543   54.6781   24.4741 C.2       1 UNK         0.0000 
     24 O24         6.7043   55.8787   24.4588 O.2       1 UNK         0.0000 
     25 C25         6.5817   53.9553   25.8195 C.3       1 UNK         0.0000 
     26 C26         5.3790   54.1259   26.7497 C.ar      1 UNK         0.0000 
     27 C27         4.0638   53.9673   26.2905 C.ar      1 UNK         0.0000 
     28 C28         2.9931   54.0964   27.1722 C.ar      1 UNK         0.0000 
     29 C29         3.2330   54.3723   28.5160 C.ar      1 UNK         0.0000 
     30 C30         4.5376   54.4976   28.9873 C.ar      1 UNK         0.0000 
     31 C31         5.6078   54.3713   28.1063 C.ar      1 UNK         0.0000 
     32 Cl32        1.9064   54.5664   29.6018 Cl        1 UNK         0.0000 
     33 C33         6.3813   56.7409   18.8855 C.3       1 UNK         0.0000 
     34 H34         5.2531   58.2436   16.7998 H         1 UNK         0.0000 
     35 H35         6.8862   57.7533   16.3650 H         1 UNK         0.0000 
     36 H36         5.5113   57.0598   15.5240 H         1 UNK         0.0000 
     37 H37         3.7327   56.5397   18.1383 H         1 UNK         0.0000 
     38 H38         3.9234   55.5283   16.7557 H         1 UNK         0.0000 
     39 H39         4.7269   53.6243   18.0260 H         1 UNK         0.0000 
     40 H40         3.2772   54.2285   18.7805 H         1 UNK         0.0000 
     41 H41         2.6017   53.8010   20.6046 H         1 UNK         0.0000 
     42 H42         1.6174   51.9760   23.2172 H         1 UNK         0.0000 
     43 H43         0.7334   53.1702   22.3215 H         1 UNK         0.0000 
     44 H44         0.1205   50.2059   22.5366 H         1 UNK         0.0000 
     45 H45        -1.0513   51.4763   22.8685 H         1 UNK         0.0000 
     46 H46         0.7160   52.8975   19.6350 H         1 UNK         0.0000 
     47 H47         1.3177   51.4259   18.8980 H         1 UNK         0.0000 
     48 H48         5.6391   53.0490   23.5858 H         1 UNK         0.0000 
     49 H49         7.4810   54.3302   26.3100 H         1 UNK         0.0000 
     50 H50         6.7783   52.9024   25.6796 H         1 UNK         0.0000 
     51 H51         3.8634   53.7380   25.2534 H         1 UNK         0.0000 
     52 H52         1.9803   53.9837   26.8131 H         1 UNK         0.0000 
     53 H53         4.7205   54.7016   30.0304 H         1 UNK         0.0000 
     54 H54         6.6143   54.4762   28.4828 H         1 UNK         0.0000 
     55 H55         5.9080   57.6827   19.1719 H         1 UNK         0.0000 
     56 H56         7.4508   56.9301   18.7965 H         1 UNK         0.0000 
@<TRIPOS>BOND
     1    1    2 1    
     2    1   34 1    
     3    1   35 1    
     4    1   36 1    
     5    2    3 1    
     6    2   33 1    
     7    2    4 1    
     8    4    5 1    
     9    4   37 1    
    10    4   38 1    
    11    5    6 1    
    12    5   39 1    
    13    5   40 1    
    14    6   10 1    
    15    6    7 2    
    16    7    8 1    
    17    7   33 1    
    18    8    9 1    
    19    9   10 2    
    20    9   22 am   BACKBONE|DICT|INTERRES
    21   10   11 1    
    22   11   12 2    
    23   11   13 am   BACKBONE|DICT|INTERRES
    24   13   14 1    
    25   13   41 1    
    26   14   15 1    
    27   14   21 1    
    28   14   16 1    
    29   16   17 1    
    30   16   42 1    
    31   16   43 1    
    32   17   18 1    
    33   17   44 1    
    34   17   45 1    
    35   18   19 2    
    36   18   20 2    
    37   18   21 1    
    38   21   46 1    
    39   21   47 1    
    40   22   23 am   BACKBONE|DICT|INTERRES
    41   22   48 1    
    42   23   24 2    
    43   23   25 1    
    44   25   26 1    
    45   25   49 1    
    46   25   50 1    
    47   26   31 ar   
    48   26   27 ar   
    49   27   28 ar   
    50   27   51 1    
    51   28   29 ar   
    52   28   52 1    
    53   29   30 ar   
    54   29   32 1    
    55   30   31 ar   
    56   30   53 1    
    57   31   54 1    
    58   33   55 1    
    59   33   56 1    
@<TRIPOS>SUBSTRUCTURE
     1 UNK         1 GROUP             0       ****    0 ROOT    
