@<TRIPOS>MOLECULE
ZINC36050332_4636
65   69    1
SMALL
USER_CHARGES


@<TRIPOS>ATOM
      1 C1         -3.7346   53.3615   24.0825 C.3       1 UNK         0.0000 
      2 C2         -3.2649   51.9803   23.6158 C.3       1 UNK         0.0000 
      3 O3         -1.9314   52.0686   23.1259 O.3       1 UNK         0.0000 
      4 C4         -1.6111   51.8896   21.8217 C.2       1 UNK         0.0000 
      5 O5         -2.4636   51.7136   20.9479 O.2       1 UNK         0.0000 
      6 C6         -0.1464   51.9620   21.5492 C.2       1 UNK         0.0000 
      7 C7          0.3892   51.6216   20.3335 C.2       1 UNK         0.0000 
      8 N8          1.7213   51.6966   20.0572 N.2       1 UNK         0.0000 
      9 C9          2.5061   52.2331   20.9053 C.2       1 UNK         0.0000 
     10 N10         2.1860   52.7054   22.1772 N.pl3     1 UNK         0.0000 
     11 C11         0.7965   52.4912   22.6880 C.3       1 UNK         0.0000 
     12 H12         0.4468   53.4973   22.9213 H         1 UNK         0.0000 
     13 C13         0.7211   51.6958   24.0106 C.ar      1 UNK         0.0000 
     14 C14         0.3923   52.3960   25.1775 C.ar      1 UNK         0.0000 
     15 C15         0.1060   51.7323   26.3689 C.ar      1 UNK         0.0000 
     16 C16         0.1585   50.3413   26.4057 C.ar      1 UNK         0.0000 
     17 C17         0.5180   49.6284   25.2693 C.ar      1 UNK         0.0000 
     18 C18         0.8087   50.2917   24.0722 C.ar      1 UNK         0.0000 
     19 C19         1.2019   49.4473   22.8796 C.3       1 UNK         0.0000 
     20 C20        -0.2793   52.5201   27.6023 C.3       1 UNK         0.0000 
     21 C21         3.2167   53.3925   22.8191 C.2       1 UNK         0.0000 
     22 C22         4.3649   53.3315   22.1146 C.2       1 UNK         0.0000 
     23 S23         4.2371   52.4457   20.6068 S.3       1 UNK         0.0000 
     24 C24         3.1146   54.0542   24.1210 C.2       1 UNK         0.0000 
     25 C25         4.1125   54.3075   24.9939 C.2       1 UNK         0.0000 
     26 O26         5.3795   54.0968   24.9106 O.co2     1 UNK         0.0000 
     27 N27         3.8361   54.8967   26.2056 N.pl3     1 UNK         0.0000 
     28 C28         4.3261   54.5024   27.5243 C.3       1 UNK         0.0000 
     29 C29         3.1974   54.3430   28.5362 C.ar      1 UNK         0.0000 
     30 C30         2.2679   55.3817   28.7637 C.ar      1 UNK         0.0000 
     31 C31         1.2864   55.2679   29.7544 C.ar      1 UNK         0.0000 
     32 C32         1.2257   54.0806   30.4717 C.ar      1 UNK         0.0000 
     33 C33         2.1258   53.0730   30.2630 C.ar      1 UNK         0.0000 
     34 C34         3.1300   53.1682   29.3045 C.ar      1 UNK         0.0000 
     35 O35         1.9171   52.0964   31.1805 O.3       1 UNK         0.0000 
     36 C36         0.6974   52.4149   31.7949 C.3       1 UNK         0.0000 
     37 O37         0.4105   53.7557   31.5069 O.3       1 UNK         0.0000 
     38 C38        -0.3380   51.0263   19.1274 C.3       1 UNK         0.0000 
     39 H39        -4.7742   53.3259   24.4102 H         1 UNK         0.0000 
     40 H40        -3.6589   54.1019   23.2851 H         1 UNK         0.0000 
     41 H41        -3.1331   53.6967   24.9243 H         1 UNK         0.0000 
     42 H42        -3.2708   51.2915   24.4594 H         1 UNK         0.0000 
     43 H43        -3.9594   51.5695   22.8816 H         1 UNK         0.0000 
     44 H44         0.3051   53.4664   25.1395 H         1 UNK         0.0000 
     45 H45        -0.0932   49.8003   27.3029 H         1 UNK         0.0000 
     46 H46         0.5648   48.5491   25.3291 H         1 UNK         0.0000 
     47 H47         1.5045   48.4720   23.2315 H         1 UNK         0.0000 
     48 H48         0.3797   49.3291   22.1779 H         1 UNK         0.0000 
     49 H49         2.0594   49.8704   22.3610 H         1 UNK         0.0000 
     50 H50        -0.2067   51.9213   28.5133 H         1 UNK         0.0000 
     51 H51         0.3827   53.3772   27.7204 H         1 UNK         0.0000 
     52 H52        -1.2955   52.8959   27.4989 H         1 UNK         0.0000 
     53 H53         5.3110   53.7660   22.3988 H         1 UNK         0.0000 
     54 H54         2.1291   54.3754   24.4150 H         1 UNK         0.0000 
     55 H55         3.1512   55.6334   26.2289 H         1 UNK         0.0000 
     56 H56         4.9223   53.5891   27.4518 H         1 UNK         0.0000 
     57 H57         4.9970   55.2815   27.8911 H         1 UNK         0.0000 
     58 H58         2.3049   56.2953   28.1923 H         1 UNK         0.0000 
     59 H59         0.6200   56.0891   29.9646 H         1 UNK         0.0000 
     60 H60         3.8511   52.3759   29.1620 H         1 UNK         0.0000 
     61 H61         0.7233   52.2456   32.8745 H         1 UNK         0.0000 
     62 H62        -0.0945   51.7924   31.3716 H         1 UNK         0.0000 
     63 H63        -0.7673   51.8252   18.5217 H         1 UNK         0.0000 
     64 H64         0.3213   50.4381   18.4863 H         1 UNK         0.0000 
     65 H65        -1.1341   50.3458   19.4278 H         1 UNK         0.0000 
@<TRIPOS>BOND
     1    1    2 1    
     2    1   39 1    
     3    1   40 1    
     4    1   41 1    
     5    2    3 1    
     6    2   42 1    
     7    2   43 1    
     8    3    4 1    
     9    4    5 2    
    10    4    6 1    
    11    6   11 1    
    12    6    7 2    
    13    7    8 1    
    14    7   38 1    
    15    8    9 2    
    16    9   23 1    
    17    9   10 1    
    18   10   11 1    
    19   10   21 1    
    20   11   12 1    
    21   11   13 1    
    22   13   18 ar   
    23   13   14 ar   
    24   14   15 ar   
    25   14   44 1    
    26   15   16 ar   
    27   15   20 1    
    28   16   17 ar   
    29   16   45 1    
    30   17   18 ar   
    31   17   46 1    
    32   18   19 1    
    33   19   47 1    
    34   19   48 1    
    35   19   49 1    
    36   20   50 1    
    37   20   51 1    
    38   20   52 1    
    39   21   22 2    
    40   21   24 1    
    41   22   23 1    
    42   22   53 1    
    43   24   25 2    
    44   24   54 1    
    45   25   26 1    
    46   25   27 1    
    47   27   28 1    
    48   27   55 1    
    49   28   29 1    
    50   28   56 1    
    51   28   57 1    
    52   29   34 ar   
    53   29   30 ar   
    54   30   31 ar   
    55   30   58 1    
    56   31   32 ar   
    57   31   59 1    
    58   32   37 1    
    59   32   33 ar   
    60   33   34 ar   
    61   33   35 1    
    62   34   60 1    
    63   35   36 1    
    64   36   37 1    
    65   36   61 1    
    66   36   62 1    
    67   38   63 1    
    68   38   64 1    
    69   38   65 1    
@<TRIPOS>SUBSTRUCTURE
     1 UNK         1 GROUP             0       ****    0 ROOT    
