@<TRIPOS>MOLECULE
ZINC12428860_5431
70   75    1
SMALL
USER_CHARGES


@<TRIPOS>ATOM
      1 C1         -0.9321   51.5343   19.6106 C.ar      1 UNK         0.0000 
      2 C2          0.0558   52.1076   18.8097 C.ar      1 UNK         0.0000 
      3 C3          1.4002   52.0953   19.2121 C.ar      1 UNK         0.0000 
      4 C4          1.7322   51.4694   20.4241 C.ar      1 UNK         0.0000 
      5 C5          0.7460   50.8730   21.2150 C.ar      1 UNK         0.0000 
      6 C6         -0.5905   50.9185   20.8138 C.ar      1 UNK         0.0000 
      7 S7          1.2064   50.0203   22.7202 S.o2      1 UNK         0.0000 
      8 O8          0.2769   48.8968   22.8817 O.2       1 UNK         0.0000 
      9 O9          2.6564   49.7975   22.6446 O.2       1 UNK         0.0000 
     10 N10         0.9196   51.1776   24.0363 N.pl3     1 UNK         0.0000 
     11 C11        -0.2637   51.0566   24.9023 C.3       1 UNK         0.0000 
     12 C12         0.1517   51.3398   26.3590 C.3       1 UNK         0.0000 
     13 C13         1.9659   52.9928   25.3366 C.3       1 UNK         0.0000 
     14 C14         1.4763   52.5295   23.9484 C.3       1 UNK         0.0000 
     15 C15         1.3902   53.0932   27.9189 C.3       1 UNK         0.0000 
     16 C16         2.1935   54.4411   27.8835 C.3       1 UNK         0.0000 
     17 C17         2.6091   54.8673   29.3096 C.3       1 UNK         0.0000 
     18 C18         3.5049   53.7473   29.9021 C.3       1 UNK         0.0000 
     19 C19         2.7024   52.4258   29.9871 C.3       1 UNK         0.0000 
     20 C20         2.2772   51.9854   28.5599 C.3       1 UNK         0.0000 
     21 C21         1.4297   52.6318   30.8550 C.3       1 UNK         0.0000 
     22 C22         0.5324   53.7342   30.2274 C.3       1 UNK         0.0000 
     23 C23         1.3129   55.0688   30.1419 C.3       1 UNK         0.0000 
     24 C24         0.1221   53.3073   28.7977 C.3       1 UNK         0.0000 
     25 C25         2.4637   52.7005   18.3284 C.2       1 UNK         0.0000 
     26 O26         2.3207   52.7106   17.1023 O.2       1 UNK         0.0000 
     27 N27         3.5042   53.2618   18.9779 N.am      1 UNK         0.0000 
     28 C28         4.6810   53.7910   18.4267 C.ar      1 UNK         0.0000 
     29 C29         5.2631   53.2972   17.2518 C.ar      1 UNK         0.0000 
     30 C30         6.4566   53.8376   16.7801 C.ar      1 UNK         0.0000 
     31 C31         7.0729   54.8790   17.4744 C.ar      1 UNK         0.0000 
     32 C32         6.5112   55.3858   18.6582 C.ar      1 UNK         0.0000 
     33 C33         5.3140   54.8201   19.1277 C.ar      1 UNK         0.0000 
     34 N34         7.1648   56.4961   19.3904 N.pl3     1 UNK         0.0000 
     35 O35         6.7043   56.8442   20.4772 O.co2     1 UNK         0.0000 
     36 O36         8.1460   57.0308   18.8818 O.co2     1 UNK         0.0000 
     37 H37        -1.9631   51.5452   19.2856 H         1 UNK         0.0000 
     38 H38        -0.2271   52.5685   17.8738 H         1 UNK         0.0000 
     39 H39         2.7661   51.4146   20.7385 H         1 UNK         0.0000 
     40 H40        -1.3567   50.4563   21.4187 H         1 UNK         0.0000 
     41 H41        -1.0272   51.7587   24.5685 H         1 UNK         0.0000 
     42 H42        -0.6667   50.0483   24.8140 H         1 UNK         0.0000 
     43 H43         0.7622   50.5312   26.7624 H         1 UNK         0.0000 
     44 H44        -0.7554   51.4332   26.9541 H         1 UNK         0.0000 
     45 H45         2.9161   52.5374   25.6184 H         1 UNK         0.0000 
     46 H46         2.0727   54.0751   25.2979 H         1 UNK         0.0000 
     47 H47         2.3089   52.5020   23.2420 H         1 UNK         0.0000 
     48 H48         0.7097   53.2101   23.5709 H         1 UNK         0.0000 
     49 H49         3.0951   54.3639   27.2748 H         1 UNK         0.0000 
     50 H50         1.5832   55.2368   27.4637 H         1 UNK         0.0000 
     51 H51         3.1668   55.8041   29.2707 H         1 UNK         0.0000 
     52 H52         4.3898   53.6053   29.2777 H         1 UNK         0.0000 
     53 H53         3.9047   54.0219   30.8796 H         1 UNK         0.0000 
     54 H54         3.3423   51.6659   30.4331 H         1 UNK         0.0000 
     55 H55         1.7502   51.0330   28.6295 H         1 UNK         0.0000 
     56 H56         3.1583   51.8095   27.9494 H         1 UNK         0.0000 
     57 H57         0.8722   51.6973   30.9316 H         1 UNK         0.0000 
     58 H58         1.6964   52.8963   31.8795 H         1 UNK         0.0000 
     59 H59        -0.3580   53.8670   30.8425 H         1 UNK         0.0000 
     60 H60         1.5047   55.4496   31.1449 H         1 UNK         0.0000 
     61 H61         0.7045   55.8460   29.6799 H         1 UNK         0.0000 
     62 H62        -0.5058   54.0779   28.3503 H         1 UNK         0.0000 
     63 H63        -0.4831   52.4049   28.8705 H         1 UNK         0.0000 
     64 H64         3.4072   53.3582   19.9772 H         1 UNK         0.0000 
     65 H65         4.8129   52.4720   16.7151 H         1 UNK         0.0000 
     66 H66         6.9069   53.4424   15.8807 H         1 UNK         0.0000 
     67 H67         7.9965   55.2862   17.0854 H         1 UNK         0.0000 
     68 H68         4.8704   55.1913   20.0410 H         1 UNK         0.0000 
     69 N69         0.9304   52.6931   26.4710 N.4       1 UNK         0.0000 
     70 H70         0.1991   53.3475   26.2391 H         1 UNK         0.0000 
@<TRIPOS>BOND
     1    1    6 ar   
     2    1    2 ar   
     3    1   37 1    
     4    2    3 ar   
     5    2   38 1    
     6    3    4 ar   
     7    3   25 1    
     8    4    5 ar   
     9    4   39 1    
    10    5    6 ar   
    11    5    7 1    
    12    6   40 1    
    13    7    8 2    
    14    7    9 2    
    15    7   10 1    
    16   10   14 1    
    17   10   11 1    
    18   11   12 1    
    19   11   41 1    
    20   11   42 1    
    21   12   43 1    
    22   12   44 1    
    23   12   69 1    
    24   13   14 1    
    25   13   45 1    
    26   13   46 1    
    27   13   69 1    
    28   14   47 1    
    29   14   48 1    
    30   15   20 1    
    31   15   24 1    
    32   15   16 1    
    33   15   69 1    
    34   16   17 1    
    35   16   49 1    
    36   16   50 1    
    37   17   23 1    
    38   17   18 1    
    39   17   51 1    
    40   18   19 1    
    41   18   52 1    
    42   18   53 1    
    43   19   20 1    
    44   19   21 1    
    45   19   54 1    
    46   20   55 1    
    47   20   56 1    
    48   21   22 1    
    49   21   57 1    
    50   21   58 1    
    51   22   23 1    
    52   22   24 1    
    53   22   59 1    
    54   23   60 1    
    55   23   61 1    
    56   24   62 1    
    57   24   63 1    
    58   25   26 2    
    59   25   27 am   BACKBONE|DICT|INTERRES
    60   27   28 1    
    61   27   64 1    
    62   28   33 ar   
    63   28   29 ar   
    64   29   30 ar   
    65   29   65 1    
    66   30   31 ar   
    67   30   66 1    
    68   31   32 ar   
    69   31   67 1    
    70   32   33 ar   
    71   32   34 1    
    72   33   68 1    
    73   34   35 2    
    74   34   36 1    
    75   69   70 1    
@<TRIPOS>SUBSTRUCTURE
     1 UNK         1 GROUP             0       ****    0 ROOT    
