@<TRIPOS>MOLECULE
ZINC00683819_4262
44   46    1
SMALL
USER_CHARGES


@<TRIPOS>ATOM
      1 C1          5.5047   54.7231   24.7986 C.ar      1 UNK         0.0000 
      2 C2          6.7041   54.7225   25.5016 C.ar      1 UNK         0.0000 
      3 C3          6.7037   54.4960   26.8778 C.ar      1 UNK         0.0000 
      4 C4          5.5051   54.2621   27.5524 C.ar      1 UNK         0.0000 
      5 C5          4.2877   54.2596   26.8552 C.ar      1 UNK         0.0000 
      6 C6          4.3049   54.4972   25.4692 C.ar      1 UNK         0.0000 
      7 C7          2.9933   53.9543   27.5686 C.2       1 UNK         0.0000 
      8 O8          2.7378   54.4563   28.6641 O.2       1 UNK         0.0000 
      9 N9          2.1928   53.1239   26.8667 N.am      1 UNK         0.0000 
     10 C10         0.9888   52.5151   27.1208 C.2       1 UNK         0.0000 
     11 S11         0.2387   52.3440   28.6016 S.2       1 UNK         0.0000 
     12 N12         0.3866   51.9580   26.0252 N.pl3     1 UNK         0.0000 
     13 C13         0.8019   52.0784   24.6857 C.ar      1 UNK         0.0000 
     14 C14         1.1047   50.9297   23.9511 C.ar      1 UNK         0.0000 
     15 C15         1.7006   51.0514   22.6942 C.ar      1 UNK         0.0000 
     16 C16         1.9907   52.3204   22.1815 C.ar      1 UNK         0.0000 
     17 C17         1.5949   53.4667   22.8802 C.ar      1 UNK         0.0000 
     18 C18         0.9919   53.3444   24.1226 C.ar      1 UNK         0.0000 
     19 N19         2.6663   52.4129   20.9545 N.am      1 UNK         0.0000 
     20 C20         3.6472   53.2962   20.6541 C.2       1 UNK         0.0000 
     21 O21         4.1705   54.0492   21.4820 O.2       1 UNK         0.0000 
     22 C22         4.1193   53.2972   19.2192 C.ar      1 UNK         0.0000 
     23 C23         5.4297   53.6962   18.9130 C.ar      1 UNK         0.0000 
     24 C24         5.8806   53.7069   17.5932 C.ar      1 UNK         0.0000 
     25 C25         5.0245   53.3330   16.5590 C.ar      1 UNK         0.0000 
     26 C26         3.7158   52.9469   16.8446 C.ar      1 UNK         0.0000 
     27 C27         3.2651   52.9288   18.1648 C.ar      1 UNK         0.0000 
     28 Cl28        2.6509   52.4987   15.5624 Cl        1 UNK         0.0000 
     29 F29         5.5480   54.0193   28.8813 F         1 UNK         0.0000 
     30 H30         5.5023   54.8934   23.7314 H         1 UNK         0.0000 
     31 H31         7.6265   54.8881   24.9674 H         1 UNK         0.0000 
     32 H32         7.6298   54.4893   27.4321 H         1 UNK         0.0000 
     33 H33         3.3914   54.5112   24.8922 H         1 UNK         0.0000 
     34 H34         2.5944   52.8557   25.9827 H         1 UNK         0.0000 
     35 H35        -0.4366   51.3953   26.1925 H         1 UNK         0.0000 
     36 H36         0.9461   49.9464   24.3757 H         1 UNK         0.0000 
     37 H37         1.9822   50.1598   22.1515 H         1 UNK         0.0000 
     38 H38         1.7794   54.4531   22.4782 H         1 UNK         0.0000 
     39 H39         0.7334   54.2374   24.6698 H         1 UNK         0.0000 
     40 H40         2.4299   51.7325   20.2496 H         1 UNK         0.0000 
     41 H41         6.1126   53.9940   19.6968 H         1 UNK         0.0000 
     42 H42         6.8938   54.0081   17.3721 H         1 UNK         0.0000 
     43 H43         5.3766   53.3451   15.5383 H         1 UNK         0.0000 
     44 H44         2.2421   52.6351   18.3509 H         1 UNK         0.0000 
@<TRIPOS>BOND
     1    1    6 ar   
     2    1    2 ar   
     3    1   30 1    
     4    2    3 ar   
     5    2   31 1    
     6    3    4 ar   
     7    3   32 1    
     8    4    5 ar   
     9    4   29 1    
    10    5    6 ar   
    11    5    7 1    
    12    6   33 1    
    13    7    8 2    
    14    7    9 am   BACKBONE|DICT|INTERRES
    15    9   10 am   BACKBONE|DICT|INTERRES
    16    9   34 1    
    17   10   11 2    
    18   10   12 1    
    19   12   13 1    
    20   12   35 1    
    21   13   18 ar   
    22   13   14 ar   
    23   14   15 ar   
    24   14   36 1    
    25   15   16 ar   
    26   15   37 1    
    27   16   17 ar   
    28   16   19 1    
    29   17   18 ar   
    30   17   38 1    
    31   18   39 1    
    32   19   20 am   BACKBONE|DICT|INTERRES
    33   19   40 1    
    34   20   21 2    
    35   20   22 1    
    36   22   27 ar   
    37   22   23 ar   
    38   23   24 ar   
    39   23   41 1    
    40   24   25 ar   
    41   24   42 1    
    42   25   26 ar   
    43   25   43 1    
    44   26   27 ar   
    45   26   28 1    
    46   27   44 1    
@<TRIPOS>SUBSTRUCTURE
     1 UNK         1 GROUP             0       ****    0 ROOT    
