@<TRIPOS>MOLECULE
ZINC20756573_76
56   60    1
SMALL
USER_CHARGES


@<TRIPOS>ATOM
      1 C1          2.1852   52.5385   30.1458 C.ar      1 UNK         0.0000 
      2 C2          2.3416   52.3131   28.7799 C.ar      1 UNK         0.0000 
      3 C3          1.2260   52.0381   27.9938 C.ar      1 UNK         0.0000 
      4 C4         -0.0445   51.9789   28.5758 C.ar      1 UNK         0.0000 
      5 C5         -0.1922   52.2104   29.9459 C.ar      1 UNK         0.0000 
      6 C6          0.9214   52.4967   30.7318 C.ar      1 UNK         0.0000 
      7 C7         -1.2706   51.7040   27.7142 C.3       1 UNK         0.0000 
      8 N8         -1.1109   50.4971   26.8817 N.pl3     1 UNK         0.0000 
      9 S9         -1.6447   50.4197   25.2165 S.o2      1 UNK         0.0000 
     10 O10        -1.5808   49.0198   24.7830 O.2       1 UNK         0.0000 
     11 O11        -2.8863   51.1946   25.1037 O.2       1 UNK         0.0000 
     12 C12        -0.3870   51.3151   24.3254 C.ar      1 UNK         0.0000 
     13 C13        -0.4155   52.7042   24.3586 C.ar      1 UNK         0.0000 
     14 C14         0.5570   53.4293   23.6881 C.ar      1 UNK         0.0000 
     15 C15         1.5323   52.7828   22.9389 C.ar      1 UNK         0.0000 
     16 C16         1.6003   51.3741   22.9133 C.ar      1 UNK         0.0000 
     17 C17         0.6243   50.6557   23.6215 C.ar      1 UNK         0.0000 
     18 C18         2.7061   50.6508   22.1429 C.3       1 UNK         0.0000 
     19 H19         3.2866   50.0958   22.8774 H         1 UNK         0.0000 
     20 C20         2.1851   49.6968   21.0843 C.2       1 UNK         0.0000 
     21 C21         2.3485   50.1979   19.8495 C.2       1 UNK         0.0000 
     22 C22         3.0013   51.5590   19.9035 C.3       1 UNK         0.0000 
     23 C23         3.5940   51.6129   21.3207 C.3       1 UNK         0.0000 
     24 H24         4.5908   51.1710   21.2547 H         1 UNK         0.0000 
     25 C25         3.7833   53.0269   21.9661 C.3       1 UNK         0.0000 
     26 H26         4.2868   52.8966   22.9239 H         1 UNK         0.0000 
     27 N27         2.4887   53.5943   22.3092 N.pl3     1 UNK         0.0000 
     28 C28         4.6871   53.9924   21.1822 C.ar      1 UNK         0.0000 
     29 C29         5.8611   54.4821   21.7670 C.ar      1 UNK         0.0000 
     30 C30         6.7269   55.2967   21.0398 C.ar      1 UNK         0.0000 
     31 C31         6.4277   55.6419   19.7150 C.ar      1 UNK         0.0000 
     32 C32         5.2178   55.2132   19.1578 C.ar      1 UNK         0.0000 
     33 C33         4.3532   54.4060   19.8881 C.ar      1 UNK         0.0000 
     34 N34         7.3842   56.4273   18.9023 N.pl3     1 UNK         0.0000 
     35 O35         6.9781   56.9673   17.8778 O.co2     1 UNK         0.0000 
     36 O36         8.5480   56.4968   19.2837 O.co2     1 UNK         0.0000 
     37 H37         3.0528   52.7430   30.7549 H         1 UNK         0.0000 
     38 H38         3.3236   52.3501   28.3306 H         1 UNK         0.0000 
     39 H39         1.3477   51.8686   26.9334 H         1 UNK         0.0000 
     40 H40        -1.1644   52.1459   30.4125 H         1 UNK         0.0000 
     41 H41         0.8002   52.6589   31.7938 H         1 UNK         0.0000 
     42 H42        -2.1404   51.5258   28.3478 H         1 UNK         0.0000 
     43 H43        -1.5432   52.5604   27.0988 H         1 UNK         0.0000 
     44 H44        -0.8958   49.6071   27.3618 H         1 UNK         0.0000 
     45 H45        -1.1883   53.2252   24.9039 H         1 UNK         0.0000 
     46 H46         0.5345   54.5034   23.7351 H         1 UNK         0.0000 
     47 H47         0.6554   49.5748   23.6190 H         1 UNK         0.0000 
     48 H48         1.7320   48.7495   21.3349 H         1 UNK         0.0000 
     49 H49         2.0633   49.7321   18.9165 H         1 UNK         0.0000 
     50 H50         2.2516   52.3324   19.7355 H         1 UNK         0.0000 
     51 H51         3.7793   51.6785   19.1484 H         1 UNK         0.0000 
     52 H52         2.4598   54.5999   22.3871 H         1 UNK         0.0000 
     53 H53         6.1286   54.2006   22.7754 H         1 UNK         0.0000 
     54 H54         7.6492   55.6249   21.5005 H         1 UNK         0.0000 
     55 H55         4.9491   55.4842   18.1461 H         1 UNK         0.0000 
     56 H56         3.4289   54.1011   19.4264 H         1 UNK         0.0000 
@<TRIPOS>BOND
     1    1    6 ar   
     2    1    2 ar   
     3    1   37 1    
     4    2    3 ar   
     5    2   38 1    
     6    3    4 ar   
     7    3   39 1    
     8    4    5 ar   
     9    4    7 1    
    10    5    6 ar   
    11    5   40 1    
    12    6   41 1    
    13    7    8 1    
    14    7   42 1    
    15    7   43 1    
    16    8    9 1    
    17    8   44 1    
    18    9   10 2    
    19    9   11 2    
    20    9   12 1    
    21   12   17 ar   
    22   12   13 ar   
    23   13   14 ar   
    24   13   45 1    
    25   14   15 ar   
    26   14   46 1    
    27   15   27 1    
    28   15   16 ar   
    29   16   17 ar   
    30   16   18 1    
    31   17   47 1    
    32   18   19 1    
    33   18   23 1    
    34   18   20 1    
    35   20   21 2    
    36   20   48 1    
    37   21   22 1    
    38   21   49 1    
    39   22   23 1    
    40   22   50 1    
    41   22   51 1    
    42   23   24 1    
    43   23   25 1    
    44   25   26 1    
    45   25   27 1    
    46   25   28 1    
    47   27   52 1    
    48   28   33 ar   
    49   28   29 ar   
    50   29   30 ar   
    51   29   53 1    
    52   30   31 ar   
    53   30   54 1    
    54   31   32 ar   
    55   31   34 1    
    56   32   33 ar   
    57   32   55 1    
    58   33   56 1    
    59   34   35 2    
    60   34   36 1    
@<TRIPOS>SUBSTRUCTURE
     1 UNK         1 GROUP             0       ****    0 ROOT    
