@<TRIPOS>MOLECULE
ZINC36836444_1538
50   52    1
SMALL
USER_CHARGES


@<TRIPOS>ATOM
      1 C1          3.4721   55.6368   17.9843 C.3       1 UNK         0.0000 
      2 C2          4.3898   54.6401   17.2408 C.3       1 UNK         0.0000 
      3 H3          3.9778   53.6377   17.3958 H         1 UNK         0.0000 
      4 C4          4.2924   54.9084   15.7147 C.3       1 UNK         0.0000 
      5 C5          5.0843   53.8903   14.8704 C.3       1 UNK         0.0000 
      6 C6          6.5584   53.8114   15.3091 C.3       1 UNK         0.0000 
      7 C7          6.6534   53.5274   16.8191 C.3       1 UNK         0.0000 
      8 C8          5.8975   54.5903   17.6731 C.3       1 UNK         0.0000 
      9 C9          5.9859   54.1622   19.1327 C.2       1 UNK         0.0000 
     10 O10         5.6222   53.0750   19.5830 O.2       1 UNK         0.0000 
     11 N11         6.5202   55.2195   19.8007 N.am      1 UNK         0.0000 
     12 C12         6.8708   56.2480   18.9840 C.2       1 UNK         0.0000 
     13 O13         7.4859   57.2708   19.2824 O.2       1 UNK         0.0000 
     14 N14         6.5358   55.8739   17.7452 N.am      1 UNK         0.0000 
     15 C15         6.9660   55.2172   21.2267 C.3       1 UNK         0.0000 
     16 C16         5.9042   54.7505   22.2465 C.2       1 UNK         0.0000 
     17 O17         4.7553   54.4967   21.8877 O.2       1 UNK         0.0000 
     18 N18         6.3229   54.7080   23.5304 N.am      1 UNK         0.0000 
     19 C19         5.5684   54.4871   24.7054 C.ar      1 UNK         0.0000 
     20 C20         6.2878   54.4275   25.9024 C.ar      1 UNK         0.0000 
     21 C21         5.6289   54.2762   27.1221 C.ar      1 UNK         0.0000 
     22 C22         4.2370   54.1707   27.1468 C.ar      1 UNK         0.0000 
     23 C23         3.5111   54.1873   25.9575 C.ar      1 UNK         0.0000 
     24 C24         4.1691   54.3536   24.7451 C.ar      1 UNK         0.0000 
     25 S25         3.3612   54.0369   28.7005 S.o2      1 UNK         0.0000 
     26 O26         2.0498   54.6718   28.5228 O.2       1 UNK         0.0000 
     27 O27         4.2663   54.4885   29.7615 O.2       1 UNK         0.0000 
     28 C28         3.0926   52.1897   28.9055 C.3       1 UNK         0.0000 
     29 H29         3.7725   56.6705   17.8149 H         1 UNK         0.0000 
     30 H30         2.4324   55.5377   17.6733 H         1 UNK         0.0000 
     31 H31         3.5044   55.4568   19.0576 H         1 UNK         0.0000 
     32 H32         3.2468   54.8899   15.4029 H         1 UNK         0.0000 
     33 H33         4.6280   55.9241   15.4917 H         1 UNK         0.0000 
     34 H34         4.6261   52.9049   14.9648 H         1 UNK         0.0000 
     35 H35         5.0252   54.1532   13.8134 H         1 UNK         0.0000 
     36 H36         7.0767   53.0299   14.7500 H         1 UNK         0.0000 
     37 H37         7.0682   54.7473   15.0710 H         1 UNK         0.0000 
     38 H38         7.7114   53.5368   17.0850 H         1 UNK         0.0000 
     39 H39         6.3346   52.5070   17.0564 H         1 UNK         0.0000 
     40 H40         6.3910   56.5419   17.0026 H         1 UNK         0.0000 
     41 H41         7.2191   56.2341   21.5297 H         1 UNK         0.0000 
     42 H42         7.8881   54.6474   21.3386 H         1 UNK         0.0000 
     43 H43         7.3072   54.8812   23.6815 H         1 UNK         0.0000 
     44 H44         7.3623   54.5015   25.9007 H         1 UNK         0.0000 
     45 H45         6.1987   54.2555   28.0412 H         1 UNK         0.0000 
     46 H46         2.4353   54.0967   25.9697 H         1 UNK         0.0000 
     47 H47         3.5579   54.3888   23.8605 H         1 UNK         0.0000 
     48 H48         2.5268   52.0307   29.8226 H         1 UNK         0.0000 
     49 H49         4.0638   51.6993   28.9632 H         1 UNK         0.0000 
     50 H50         2.5285   51.8216   28.0494 H         1 UNK         0.0000 
@<TRIPOS>BOND
     1    1    2 1    
     2    1   29 1    
     3    1   30 1    
     4    1   31 1    
     5    2    3 1    
     6    2    8 1    
     7    2    4 1    
     8    4    5 1    
     9    4   32 1    
    10    4   33 1    
    11    5    6 1    
    12    5   34 1    
    13    5   35 1    
    14    6    7 1    
    15    6   36 1    
    16    6   37 1    
    17    7    8 1    
    18    7   38 1    
    19    7   39 1    
    20    8   14 1    
    21    8    9 1    
    22    9   10 2    
    23    9   11 am   BACKBONE|DICT|INTERRES
    24   11   12 am   BACKBONE|DICT|INTERRES
    25   11   15 1    
    26   12   13 2    
    27   12   14 am   BACKBONE|DICT|INTERRES
    28   14   40 1    
    29   15   16 1    
    30   15   41 1    
    31   15   42 1    
    32   16   17 2    
    33   16   18 am   BACKBONE|DICT|INTERRES
    34   18   19 1    
    35   18   43 1    
    36   19   24 ar   
    37   19   20 ar   
    38   20   21 ar   
    39   20   44 1    
    40   21   22 ar   
    41   21   45 1    
    42   22   23 ar   
    43   22   25 1    
    44   23   24 ar   
    45   23   46 1    
    46   24   47 1    
    47   25   26 2    
    48   25   27 2    
    49   25   28 1    
    50   28   48 1    
    51   28   49 1    
    52   28   50 1    
@<TRIPOS>SUBSTRUCTURE
     1 UNK         1 GROUP             0       ****    0 ROOT    
