@<TRIPOS>MOLECULE
ZINC35729091_4240
55   58    1
SMALL
USER_CHARGES


@<TRIPOS>ATOM
      1 C1          5.6336   54.5931   28.3984 C.3       1 UNK         0.0000 
      2 N2          4.4870   54.4933   27.4940 N.pl3     1 UNK         0.0000 
      3 C3          3.1892   54.1805   28.0925 C.3       1 UNK         0.0000 
      4 C4          4.6839   54.3662   26.0913 C.ar      1 UNK         0.0000 
      5 C5          3.6057   54.0974   25.2305 C.ar      1 UNK         0.0000 
      6 C6          3.7938   53.9870   23.8548 C.ar      1 UNK         0.0000 
      7 C7          5.0673   54.1476   23.3106 C.ar      1 UNK         0.0000 
      8 C8          6.1486   54.4228   24.1468 C.ar      1 UNK         0.0000 
      9 C9          5.9588   54.5236   25.5218 C.ar      1 UNK         0.0000 
     10 C10         5.2672   54.0814   21.8415 C.2       1 UNK         0.0000 
     11 N11         5.9025   54.9943   21.1445 N.2       1 UNK         0.0000 
     12 N12         5.9631   54.6840   19.7920 N.2       1 UNK         0.0000 
     13 C13         5.4000   53.5268   19.5134 C.2       1 UNK         0.0000 
     14 S14         4.7043   52.7305   20.8931 S.3       1 UNK         0.0000 
     15 N15         5.3246   52.9217   18.2685 N.am      1 UNK         0.0000 
     16 C16         5.1795   53.6033   17.1095 C.2       1 UNK         0.0000 
     17 O17         5.1043   54.8281   16.9996 O.2       1 UNK         0.0000 
     18 C18         5.0633   52.7392   15.8378 C.3       1 UNK         0.0000 
     19 H19         5.2363   51.6967   16.0817 H         1 UNK         0.0000 
     20 C20         6.0763   53.1548   14.7535 C.3       1 UNK         0.0000 
     21 C21         5.3805   52.8506   13.4411 C.3       1 UNK         0.0000 
     22 C22         3.9302   53.1917   13.7510 C.3       1 UNK         0.0000 
     23 N23         3.7449   52.8173   15.1556 N.am      1 UNK         0.0000 
     24 C24         2.5090   52.6049   15.6878 C.2       1 UNK         0.0000 
     25 O25         1.4840   52.9038   15.0722 O.2       1 UNK         0.0000 
     26 N26         2.5076   52.0435   16.9203 N.am      1 UNK         0.0000 
     27 C27         1.4632   51.8974   17.8502 C.ar      1 UNK         0.0000 
     28 C28         1.8393   51.4178   19.1075 C.ar      1 UNK         0.0000 
     29 C29         0.9033   51.3291   20.1335 C.ar      1 UNK         0.0000 
     30 C30        -0.4200   51.6898   19.8937 C.ar      1 UNK         0.0000 
     31 C31        -0.8200   52.1034   18.6261 C.ar      1 UNK         0.0000 
     32 C32         0.1199   52.2246   17.6079 C.ar      1 UNK         0.0000 
     33 Br33       -1.6913   51.6277   21.3080 Br        1 UNK         0.0000 
     34 H34         6.3044   55.3927   28.0816 H         1 UNK         0.0000 
     35 H35         6.2014   53.6611   28.3998 H         1 UNK         0.0000 
     36 H36         5.3316   54.8090   29.4243 H         1 UNK         0.0000 
     37 H37         2.3981   54.7853   27.6447 H         1 UNK         0.0000 
     38 H38         2.9391   53.1304   27.9291 H         1 UNK         0.0000 
     39 H39         3.1759   54.3641   29.1692 H         1 UNK         0.0000 
     40 H40         2.6044   53.9681   25.6078 H         1 UNK         0.0000 
     41 H41         2.9452   53.7895   23.2144 H         1 UNK         0.0000 
     42 H42         7.1400   54.5581   23.7364 H         1 UNK         0.0000 
     43 H43         6.8235   54.7243   26.1307 H         1 UNK         0.0000 
     44 H44         5.3336   51.8947   18.2347 H         1 UNK         0.0000 
     45 H45         6.2938   54.2228   14.8036 H         1 UNK         0.0000 
     46 H46         7.0279   52.6278   14.8479 H         1 UNK         0.0000 
     47 H47         5.7848   53.4024   12.5927 H         1 UNK         0.0000 
     48 H48         5.4648   51.7844   13.2239 H         1 UNK         0.0000 
     49 H49         3.7523   54.2637   13.6458 H         1 UNK         0.0000 
     50 H50         3.2487   52.6668   13.0798 H         1 UNK         0.0000 
     51 H51         3.4045   51.7265   17.2576 H         1 UNK         0.0000 
     52 H52         2.8643   51.1366   19.2997 H         1 UNK         0.0000 
     53 H53         1.2054   50.9912   21.1137 H         1 UNK         0.0000 
     54 H54        -1.8487   52.3696   18.4415 H         1 UNK         0.0000 
     55 H55        -0.2205   52.5878   16.6510 H         1 UNK         0.0000 
@<TRIPOS>BOND
     1    1    2 1    
     2    1   34 1    
     3    1   35 1    
     4    1   36 1    
     5    2    3 1    
     6    2    4 1    
     7    3   37 1    
     8    3   38 1    
     9    3   39 1    
    10    4    9 ar   
    11    4    5 ar   
    12    5    6 ar   
    13    5   40 1    
    14    6    7 ar   
    15    6   41 1    
    16    7    8 ar   
    17    7   10 1    
    18    8    9 ar   
    19    8   42 1    
    20    9   43 1    
    21   10   14 1    
    22   10   11 2    
    23   11   12 1    
    24   12   13 2    
    25   13   14 1    
    26   13   15 am   BACKBONE|DICT|INTERRES
    27   15   16 am   BACKBONE|DICT|INTERRES
    28   15   44 1    
    29   16   17 2    
    30   16   18 1    
    31   18   19 1    
    32   18   23 1    
    33   18   20 1    
    34   20   21 1    
    35   20   45 1    
    36   20   46 1    
    37   21   22 1    
    38   21   47 1    
    39   21   48 1    
    40   22   23 1    
    41   22   49 1    
    42   22   50 1    
    43   23   24 am   BACKBONE|DICT|INTERRES
    44   24   25 2    
    45   24   26 am   BACKBONE|DICT|INTERRES
    46   26   27 1    
    47   26   51 1    
    48   27   32 ar   
    49   27   28 ar   
    50   28   29 ar   
    51   28   52 1    
    52   29   30 ar   
    53   29   53 1    
    54   30   31 ar   
    55   30   33 1    
    56   31   32 ar   
    57   31   54 1    
    58   32   55 1    
@<TRIPOS>SUBSTRUCTURE
     1 UNK         1 GROUP             0       ****    0 ROOT    
