@<TRIPOS>MOLECULE
ZINC04869591_3813
45   48    1
SMALL
USER_CHARGES


@<TRIPOS>ATOM
      1 C1         -0.6388   51.5936   29.1171 C.3       1 UNK         0.0000 
      2 C2          0.3721   52.5293   28.4778 C.ar      1 UNK         0.0000 
      3 C3          0.9654   53.5246   29.2612 C.ar      1 UNK         0.0000 
      4 C4          1.9011   54.3877   28.6905 C.ar      1 UNK         0.0000 
      5 N5          2.2994   54.3219   27.3959 N.ar      1 UNK         0.0000 
      6 C6          1.7037   53.3948   26.6429 C.ar      1 UNK         0.0000 
      7 C7          0.7401   52.4567   27.1124 C.ar      1 UNK         0.0000 
      8 C8          0.3292   51.5934   26.0529 C.2       1 UNK         0.0000 
      9 C9          0.8970   51.8727   24.8181 C.2       1 UNK         0.0000 
     10 S10         1.9943   53.2457   24.9145 S.3       1 UNK         0.0000 
     11 C11         0.6073   51.0621   23.5335 C.3       1 UNK         0.0000 
     12 C12         1.9386   50.4681   22.9696 C.3       1 UNK         0.0000 
     13 C13         1.8698   49.9148   21.5274 C.3       1 UNK         0.0000 
     14 C14         1.2997   50.9467   20.5302 C.3       1 UNK         0.0000 
     15 C15        -0.0875   51.4169   21.0205 C.3       1 UNK         0.0000 
     16 C16        -0.0492   51.9881   22.4594 C.3       1 UNK         0.0000 
     17 C17         2.2689   52.1199   20.2661 C.3       1 UNK         0.0000 
     18 C18        -0.3669   49.9247   23.9654 C.2       1 UNK         0.0000 
     19 C19        -0.8318   49.7786   25.2318 C.2       1 UNK         0.0000 
     20 O20        -0.5505   50.5703   26.2965 O.3       1 UNK         0.0000 
     21 N21        -1.6662   48.7925   25.6817 N.pl3     1 UNK         0.0000 
     22 C22        -0.8205   48.9725   22.9988 C.1       1 UNK         0.0000 
     23 N23        -1.2374   48.1790   22.2646 N.1       1 UNK         0.0000 
     24 C24         2.5354   55.5003   29.5034 C.3       1 UNK         0.0000 
     25 H25        -0.7186   51.7175   30.1993 H         1 UNK         0.0000 
     26 H26        -1.6251   51.7299   28.6730 H         1 UNK         0.0000 
     27 H27        -0.3420   50.5642   28.9198 H         1 UNK         0.0000 
     28 H28         0.6967   53.6270   30.3031 H         1 UNK         0.0000 
     29 H29         2.3176   49.6970   23.6429 H         1 UNK         0.0000 
     30 H30         2.7022   51.2433   22.9650 H         1 UNK         0.0000 
     31 H31         2.8725   49.6182   21.2134 H         1 UNK         0.0000 
     32 H32         1.2826   48.9982   21.4970 H         1 UNK         0.0000 
     33 H33         1.1440   50.4216   19.5848 H         1 UNK         0.0000 
     34 H34        -0.4714   52.1832   20.3456 H         1 UNK         0.0000 
     35 H35        -0.7995   50.5956   20.9589 H         1 UNK         0.0000 
     36 H36         0.4988   52.9296   22.4170 H         1 UNK         0.0000 
     37 H37        -1.0577   52.2637   22.7708 H         1 UNK         0.0000 
     38 H38         2.4734   52.7078   21.1606 H         1 UNK         0.0000 
     39 H39         3.2253   51.7590   19.8842 H         1 UNK         0.0000 
     40 H40         1.8644   52.8030   19.5183 H         1 UNK         0.0000 
     41 H41        -2.0323   48.0975   25.0501 H         1 UNK         0.0000 
     42 H42        -1.6792   48.5662   26.6797 H         1 UNK         0.0000 
     43 H43         2.0546   55.6175   30.4766 H         1 UNK         0.0000 
     44 H44         3.5952   55.2955   29.6623 H         1 UNK         0.0000 
     45 H45         2.4491   56.4545   28.9808 H         1 UNK         0.0000 
@<TRIPOS>BOND
     1    1    2 1    
     2    1   25 1    
     3    1   26 1    
     4    1   27 1    
     5    2    7 ar   
     6    2    3 ar   
     7    3    4 ar   
     8    3   28 1    
     9    4    5 ar   
    10    4   24 1    
    11    5    6 ar   
    12    6   10 1    
    13    6    7 ar   
    14    7    8 1    
    15    8   20 1    
    16    8    9 2    
    17    9   10 1    
    18    9   11 1    
    19   11   16 1    
    20   11   12 1    
    21   11   18 1    
    22   12   13 1    
    23   12   29 1    
    24   12   30 1    
    25   13   14 1    
    26   13   31 1    
    27   13   32 1    
    28   14   15 1    
    29   14   17 1    
    30   14   33 1    
    31   15   16 1    
    32   15   34 1    
    33   15   35 1    
    34   16   36 1    
    35   16   37 1    
    36   17   38 1    
    37   17   39 1    
    38   17   40 1    
    39   18   19 2    
    40   18   22 1    
    41   19   20 1    
    42   19   21 1    
    43   21   41 1    
    44   21   42 1    
    45   22   23 3    
    46   24   43 1    
    47   24   44 1    
    48   24   45 1    
@<TRIPOS>SUBSTRUCTURE
     1 UNK         1 GROUP             0       ****    0 ROOT    
