@<TRIPOS>MOLECULE
ZINC19499176_4754
39   41    1
SMALL
USER_CHARGES


@<TRIPOS>ATOM
      1 C1          7.3196   56.1210   18.1396 C.3       1 UNK         0.0000 
      2 C2          6.2111   55.3424   18.8783 C.3       1 UNK         0.0000 
      3 C3          6.3673   55.2969   20.4151 C.2       1 UNK         0.0000 
      4 O4          7.2617   55.9667   20.9383 O.2       1 UNK         0.0000 
      5 N5          5.5084   54.5245   21.1390 N.am      1 UNK         0.0000 
      6 C6          4.2752   54.0031   20.5335 C.3       1 UNK         0.0000 
      7 C7          3.4649   53.4045   21.6749 C.3       1 UNK         0.0000 
      8 C8          4.1537   53.9393   22.8952 C.ar      1 UNK         0.0000 
      9 C9          5.3799   54.4967   22.5424 C.ar      1 UNK         0.0000 
     10 C10         6.3044   54.8275   23.5411 C.ar      1 UNK         0.0000 
     11 C11         5.9416   54.7138   24.8837 C.ar      1 UNK         0.0000 
     12 C12         4.6782   54.2276   25.2537 C.ar      1 UNK         0.0000 
     13 C13         3.7962   53.8227   24.2380 C.ar      1 UNK         0.0000 
     14 C14         4.3057   54.0962   26.7055 C.2       1 UNK         0.0000 
     15 C15         5.0827   54.4966   27.7982 C.2       1 UNK         0.0000 
     16 S16         4.2754   54.1086   29.2817 S.3       1 UNK         0.0000 
     17 C17         2.9521   53.4707   28.3452 C.2       1 UNK         0.0000 
     18 N18         3.1520   53.5381   27.0524 N.2       1 UNK         0.0000 
     19 N19         1.8823   52.8609   28.9335 N.2       1 UNK         0.0000 
     20 C20         1.1205   53.4790   29.7428 C.2       1 UNK         0.0000 
     21 N21         0.0612   52.8267   30.3962 N.pl3     1 UNK         0.0000 
     22 N22         1.1737   54.8462   30.0916 N.pl3     1 UNK         0.0000 
     23 H23         7.1496   56.0900   17.0629 H         1 UNK         0.0000 
     24 H24         8.3064   55.6898   18.3163 H         1 UNK         0.0000 
     25 H25         7.3330   57.1747   18.4233 H         1 UNK         0.0000 
     26 H26         5.2501   55.7991   18.6386 H         1 UNK         0.0000 
     27 H27         6.1923   54.3207   18.4963 H         1 UNK         0.0000 
     28 H28         3.7165   54.8868   20.2213 H         1 UNK         0.0000 
     29 H29         4.3688   53.3884   19.6367 H         1 UNK         0.0000 
     30 H30         2.4021   53.6340   21.5909 H         1 UNK         0.0000 
     31 H31         3.5536   52.3177   21.6457 H         1 UNK         0.0000 
     32 H32         7.2896   55.1978   23.2985 H         1 UNK         0.0000 
     33 H33         6.6622   54.9990   25.6333 H         1 UNK         0.0000 
     34 H34         2.8446   53.3810   24.4951 H         1 UNK         0.0000 
     35 H35         6.0545   54.9669   27.8180 H         1 UNK         0.0000 
     36 H36         0.0038   51.8265   30.2746 H         1 UNK         0.0000 
     37 H37        -0.0995   53.0541   31.3669 H         1 UNK         0.0000 
     38 H38         1.7263   55.4437   29.4962 H         1 UNK         0.0000 
     39 H39         0.2913   55.2892   30.2926 H         1 UNK         0.0000 
@<TRIPOS>BOND
     1    1    2 1    
     2    1   23 1    
     3    1   24 1    
     4    1   25 1    
     5    2    3 1    
     6    2   26 1    
     7    2   27 1    
     8    3    4 2    
     9    3    5 am   BACKBONE|DICT|INTERRES
    10    5    9 1    
    11    5    6 1    
    12    6    7 1    
    13    6   28 1    
    14    6   29 1    
    15    7    8 1    
    16    7   30 1    
    17    7   31 1    
    18    8   13 ar   
    19    8    9 ar   
    20    9   10 ar   
    21   10   11 ar   
    22   10   32 1    
    23   11   12 ar   
    24   11   33 1    
    25   12   13 ar   
    26   12   14 1    
    27   13   34 1    
    28   14   18 1    
    29   14   15 2    
    30   15   16 1    
    31   15   35 1    
    32   16   17 1    
    33   17   18 2    
    34   17   19 1    
    35   19   20 2    
    36   20   21 1    
    37   20   22 1    
    38   21   36 1    
    39   21   37 1    
    40   22   38 1    
    41   22   39 1    
@<TRIPOS>SUBSTRUCTURE
     1 UNK         1 GROUP             0       ****    0 ROOT    
