@<TRIPOS>MOLECULE
ZINC35693139_1574
39   40    1
SMALL
USER_CHARGES


@<TRIPOS>ATOM
      1 C1          2.5013   55.4942   29.3523 C.3       1 UNK         0.0000 
      2 C2          2.5717   54.6824   28.0485 C.3       1 UNK         0.0000 
      3 H3          2.0996   55.2890   27.2820 H         1 UNK         0.0000 
      4 C4          4.0264   54.4316   27.6195 C.ar      1 UNK         0.0000 
      5 C5          4.4931   54.8967   26.3800 C.ar      1 UNK         0.0000 
      6 C6          5.8357   54.7209   26.0446 C.ar      1 UNK         0.0000 
      7 N7          6.7296   54.1420   26.8817 N.ar      1 UNK         0.0000 
      8 C8          6.2773   53.7033   28.0823 C.ar      1 UNK         0.0000 
      9 C9          4.9425   53.8110   28.4808 C.ar      1 UNK         0.0000 
     10 N10         1.7975   53.4442   28.1750 N.pl3     1 UNK         0.0000 
     11 C11         1.3042   52.7127   27.0686 C.ar      1 UNK         0.0000 
     12 C12         1.6931   53.0062   25.7523 C.ar      1 UNK         0.0000 
     13 C13         1.2302   52.2604   24.6742 C.ar      1 UNK         0.0000 
     14 C14         0.3511   51.2022   24.8874 C.ar      1 UNK         0.0000 
     15 C15        -0.1033   50.9346   26.1799 C.ar      1 UNK         0.0000 
     16 C16         0.3738   51.6672   27.2689 C.ar      1 UNK         0.0000 
     17 N17        -0.1092   51.3038   28.5323 N.pl3     1 UNK         0.0000 
     18 S18        -0.1492   50.1714   23.5140 S.o2      1 UNK         0.0000 
     19 O19        -1.6118   50.2465   23.4301 O.2       1 UNK         0.0000 
     20 O20         0.6889   50.5355   22.3667 O.2       1 UNK         0.0000 
     21 N21         0.2931   48.5329   23.9816 N.pl3     1 UNK         0.0000 
     22 C22        -0.5117   47.8325   24.9997 C.3       1 UNK         0.0000 
     23 H23         3.0618   56.4259   29.2789 H         1 UNK         0.0000 
     24 H24         1.4716   55.7580   29.5985 H         1 UNK         0.0000 
     25 H25         2.9070   54.9316   30.1898 H         1 UNK         0.0000 
     26 H26         3.8382   55.4071   25.6901 H         1 UNK         0.0000 
     27 H27         6.2186   55.0665   25.0951 H         1 UNK         0.0000 
     28 H28         7.0235   53.2946   28.7453 H         1 UNK         0.0000 
     29 H29         4.6354   53.4529   29.4515 H         1 UNK         0.0000 
     30 H30         1.1729   53.4269   28.9668 H         1 UNK         0.0000 
     31 H31         2.3667   53.8098   25.5296 H         1 UNK         0.0000 
     32 H32         1.5775   52.4982   23.6784 H         1 UNK         0.0000 
     33 H33        -0.8177   50.1422   26.3469 H         1 UNK         0.0000 
     34 H34        -0.6830   50.4670   28.5960 H         1 UNK         0.0000 
     35 H35         0.3301   51.6698   29.3627 H         1 UNK         0.0000 
     36 H36         1.3033   48.3466   24.0101 H         1 UNK         0.0000 
     37 H37        -0.4050   46.7560   24.8812 H         1 UNK         0.0000 
     38 H38        -0.1473   48.0965   25.9930 H         1 UNK         0.0000 
     39 H39        -1.5630   48.1139   24.9254 H         1 UNK         0.0000 
@<TRIPOS>BOND
     1    1    2 1    
     2    1   23 1    
     3    1   24 1    
     4    1   25 1    
     5    2    3 1    
     6    2    4 1    
     7    2   10 1    
     8    4    9 ar   
     9    4    5 ar   
    10    5    6 ar   
    11    5   26 1    
    12    6    7 ar   
    13    6   27 1    
    14    7    8 ar   
    15    8    9 ar   
    16    8   28 1    
    17    9   29 1    
    18   10   11 1    
    19   10   30 1    
    20   11   16 ar   
    21   11   12 ar   
    22   12   13 ar   
    23   12   31 1    
    24   13   14 ar   
    25   13   32 1    
    26   14   15 ar   
    27   14   18 1    
    28   15   16 ar   
    29   15   33 1    
    30   16   17 1    
    31   17   34 1    
    32   17   35 1    
    33   18   19 2    
    34   18   20 2    
    35   18   21 1    
    36   21   22 1    
    37   21   36 1    
    38   22   37 1    
    39   22   38 1    
    40   22   39 1    
@<TRIPOS>SUBSTRUCTURE
     1 UNK         1 GROUP             0       ****    0 ROOT    
