@<TRIPOS>MOLECULE
ZINC09010261_3409
63   67    1
SMALL
USER_CHARGES


@<TRIPOS>ATOM
      1 C1          2.7013   52.0979   17.0243 C.3       1 UNK         0.0000 
      2 C2          2.0653   51.0626   17.9742 C.2       1 UNK         0.0000 
      3 N3          1.5020   49.9709   17.5949 N.2       1 UNK         0.0000 
      4 N4          1.5044   49.6689   16.2745 N.am      1 UNK         0.0000 
      5 C5          1.1522   48.4509   15.8152 C.2       1 UNK         0.0000 
      6 O6          0.7036   47.5421   16.5224 O.2       1 UNK         0.0000 
      7 C7          1.2607   48.2445   14.3220 C.ar      1 UNK         0.0000 
      8 C8          0.1810   47.6300   13.6660 C.ar      1 UNK         0.0000 
      9 C9          0.2006   47.4217   12.2874 C.ar      1 UNK         0.0000 
     10 C10         1.3036   47.8212   11.5400 C.ar      1 UNK         0.0000 
     11 C11         2.3890   48.4192   12.1746 C.ar      1 UNK         0.0000 
     12 C12         2.3862   48.6262   13.5558 C.ar      1 UNK         0.0000 
     13 O13         3.5233   49.1876   14.0817 O.3       1 UNK         0.0000 
     14 C14         2.1632   51.3712   19.4324 C.ar      1 UNK         0.0000 
     15 C15         1.5555   50.5323   20.3822 C.ar      1 UNK         0.0000 
     16 C16         1.6165   50.8109   21.7420 C.ar      1 UNK         0.0000 
     17 C17         2.3045   51.9314   22.1954 C.ar      1 UNK         0.0000 
     18 C18         2.9318   52.8029   21.2943 C.ar      1 UNK         0.0000 
     19 C19         2.8534   52.4949   19.9273 C.ar      1 UNK         0.0000 
     20 C20         3.6385   54.0684   21.7829 C.3       1 UNK         0.0000 
     21 H21         3.1045   54.8967   21.3367 H         1 UNK         0.0000 
     22 C22         5.1037   54.1450   21.4005 C.2       1 UNK         0.0000 
     23 C23         5.9040   54.0670   22.4755 C.2       1 UNK         0.0000 
     24 C24         5.1059   53.9021   23.7418 C.3       1 UNK         0.0000 
     25 C25         3.6638   54.2341   23.3174 C.3       1 UNK         0.0000 
     26 H26         3.5361   55.2968   23.5110 H         1 UNK         0.0000 
     27 C27         2.4684   53.5653   24.0740 C.3       1 UNK         0.0000 
     28 H28         1.5685   54.1255   23.8157 H         1 UNK         0.0000 
     29 N29         2.2483   52.2093   23.5661 N.pl3     1 UNK         0.0000 
     30 C30         2.4990   53.6093   25.6185 C.ar      1 UNK         0.0000 
     31 C31         3.3941   54.4128   26.3365 C.ar      1 UNK         0.0000 
     32 C32         3.5184   54.2748   27.7141 C.ar      1 UNK         0.0000 
     33 C33         2.7192   53.3621   28.4126 C.ar      1 UNK         0.0000 
     34 C34         1.7322   52.6528   27.7159 C.ar      1 UNK         0.0000 
     35 C35         1.6207   52.7870   26.3372 C.ar      1 UNK         0.0000 
     36 C36         2.9593   53.1500   29.8745 C.2       1 UNK         0.0000 
     37 O37         3.9003   53.6682   30.4813 O.2       1 UNK         0.0000 
     38 O38         2.0376   52.3419   30.4595 O.3       1 UNK         0.0000 
     39 C39         2.0462   52.0967   31.8586 C.3       1 UNK         0.0000 
     40 H40         2.3239   53.1014   17.2193 H         1 UNK         0.0000 
     41 H41         3.7870   52.0978   17.1378 H         1 UNK         0.0000 
     42 H42         2.5165   51.9067   15.9676 H         1 UNK         0.0000 
     43 H43         1.9189   50.3599   15.6675 H         1 UNK         0.0000 
     44 H44        -0.6904   47.3140   14.2230 H         1 UNK         0.0000 
     45 H45        -0.6417   46.9535   11.7999 H         1 UNK         0.0000 
     46 H46         1.3198   47.6632   10.4711 H         1 UNK         0.0000 
     47 H47         3.2468   48.7169   11.5899 H         1 UNK         0.0000 
     48 H48         3.6373   49.1599   15.0527 H         1 UNK         0.0000 
     49 H49         1.0126   49.6510   20.0719 H         1 UNK         0.0000 
     50 H50         1.1221   50.1521   22.4404 H         1 UNK         0.0000 
     51 H51         3.3402   53.1773   19.2487 H         1 UNK         0.0000 
     52 H52         5.4249   54.2468   20.3743 H         1 UNK         0.0000 
     53 H53         6.9831   54.0966   22.4814 H         1 UNK         0.0000 
     54 H54         5.4985   54.5889   24.4885 H         1 UNK         0.0000 
     55 H55         5.2100   52.8972   24.1296 H         1 UNK         0.0000 
     56 H56         1.6977   51.6194   24.1697 H         1 UNK         0.0000 
     57 H57         4.0196   55.1372   25.8461 H         1 UNK         0.0000 
     58 H58         4.2620   54.8701   28.2282 H         1 UNK         0.0000 
     59 H59         1.0715   51.9590   28.2171 H         1 UNK         0.0000 
     60 H60         0.8789   52.1931   25.8245 H         1 UNK         0.0000 
     61 H61         1.5046   51.1843   32.0860 H         1 UNK         0.0000 
     62 H62         3.0559   51.9900   32.2591 H         1 UNK         0.0000 
     63 H63         1.5341   52.8968   32.3905 H         1 UNK         0.0000 
@<TRIPOS>BOND
     1    1    2 1    
     2    1   40 1    
     3    1   41 1    
     4    1   42 1    
     5    2    3 2    
     6    2   14 1    
     7    3    4 1    
     8    4    5 am   BACKBONE|DICT|INTERRES
     9    4   43 1    
    10    5    6 2    
    11    5    7 1    
    12    7   12 ar   
    13    7    8 ar   
    14    8    9 ar   
    15    8   44 1    
    16    9   10 ar   
    17    9   45 1    
    18   10   11 ar   
    19   10   46 1    
    20   11   12 ar   
    21   11   47 1    
    22   12   13 1    
    23   13   48 1    
    24   14   19 ar   
    25   14   15 ar   
    26   15   16 ar   
    27   15   49 1    
    28   16   17 ar   
    29   16   50 1    
    30   17   29 1    
    31   17   18 ar   
    32   18   19 ar   
    33   18   20 1    
    34   19   51 1    
    35   20   21 1    
    36   20   25 1    
    37   20   22 1    
    38   22   23 2    
    39   22   52 1    
    40   23   24 1    
    41   23   53 1    
    42   24   25 1    
    43   24   54 1    
    44   24   55 1    
    45   25   26 1    
    46   25   27 1    
    47   27   28 1    
    48   27   29 1    
    49   27   30 1    
    50   29   56 1    
    51   30   35 ar   
    52   30   31 ar   
    53   31   32 ar   
    54   31   57 1    
    55   32   33 ar   
    56   32   58 1    
    57   33   34 ar   
    58   33   36 1    
    59   34   35 ar   
    60   34   59 1    
    61   35   60 1    
    62   36   37 2    
    63   36   38 1    
    64   38   39 1    
    65   39   61 1    
    66   39   62 1    
    67   39   63 1    
@<TRIPOS>SUBSTRUCTURE
     1 UNK         1 GROUP             0       ****    0 ROOT    
