@<TRIPOS>MOLECULE
ZINC08881015_4057
64   69    1
SMALL
USER_CHARGES


@<TRIPOS>ATOM
      1 C1          1.4728   51.9550   18.8314 C.ar      1 UNK         0.0000 
      2 C2          0.3240   52.2240   19.5710 C.ar      1 UNK         0.0000 
      3 C3          0.3321   52.0354   20.9509 C.ar      1 UNK         0.0000 
      4 C4          1.4791   51.5376   21.5852 C.ar      1 UNK         0.0000 
      5 C5          2.6194   51.2461   20.8276 C.ar      1 UNK         0.0000 
      6 C6          2.6201   51.4751   19.4544 C.ar      1 UNK         0.0000 
      7 C7          1.4828   51.2648   23.0963 C.3       1 UNK         0.0000 
      8 H8          2.3900   50.7133   23.3474 H         1 UNK         0.0000 
      9 C9          1.5114   52.6096   23.8784 C.2       1 UNK         0.0000 
     10 O10         0.5965   52.9014   24.6498 O.2       1 UNK         0.0000 
     11 C11         2.7378   53.3956   23.8288 C.ar      1 UNK         0.0000 
     12 C12         3.4090   53.8535   22.7080 C.ar      1 UNK         0.0000 
     13 N13         4.5694   54.4758   23.0913 N.pl3     1 UNK         0.0000 
     14 H14         5.2207   54.8672   22.4260 H         1 UNK         0.0000 
     15 C15         4.6842   54.4649   24.4666 C.ar      1 UNK         0.0000 
     16 C16         3.5077   53.8262   24.9700 C.ar      1 UNK         0.0000 
     17 C17         3.3617   53.6991   26.3626 C.ar      1 UNK         0.0000 
     18 C18         4.3730   54.1732   27.1978 C.ar      1 UNK         0.0000 
     19 C19         5.5181   54.7713   26.6782 C.ar      1 UNK         0.0000 
     20 C20         5.7002   54.9435   25.3046 C.ar      1 UNK         0.0000 
     21 C21         0.2919   49.0389   22.6358 C.3       1 UNK         0.0000 
     22 C22        -0.9217   48.1878   23.0409 C.3       1 UNK         0.0000 
     23 C23        -0.8457   47.7553   24.5278 C.3       1 UNK         0.0000 
     24 C24        -0.6365   48.9738   25.4629 C.3       1 UNK         0.0000 
     25 C25         0.5847   49.7943   25.0197 C.3       1 UNK         0.0000 
     26 C26        -2.1062   46.9213   24.8815 C.2       1 UNK         0.0000 
     27 O27        -2.5090   46.0971   24.0601 O.2       1 UNK         0.0000 
     28 N28        -2.6937   47.1221   26.0807 N.am      1 UNK         0.0000 
     29 C29        -3.9280   46.6416   26.5584 C.ar      1 UNK         0.0000 
     30 C30        -4.9376   46.0772   25.7379 C.ar      1 UNK         0.0000 
     31 C31        -6.1663   45.6724   26.2786 C.ar      1 UNK         0.0000 
     32 C32        -6.3699   45.8753   27.6375 C.ar      1 UNK         0.0000 
     33 C33        -5.4090   46.4320   28.4330 C.ar      1 UNK         0.0000 
     34 C34        -4.1694   46.8131   27.9325 C.ar      1 UNK         0.0000 
     35 O35        -5.8696   46.4968   29.7093 O.3       1 UNK         0.0000 
     36 C36        -7.2366   46.1917   29.6291 C.3       1 UNK         0.0000 
     37 O37        -7.4579   45.5678   28.3920 O.3       1 UNK         0.0000 
     38 H38         1.4778   52.1177   17.7619 H         1 UNK         0.0000 
     39 H39        -0.5576   52.5986   19.0752 H         1 UNK         0.0000 
     40 H40        -0.5541   52.2608   21.5265 H         1 UNK         0.0000 
     41 H41         3.5097   50.8563   21.2985 H         1 UNK         0.0000 
     42 H42         3.5040   51.2857   18.8642 H         1 UNK         0.0000 
     43 H43         3.1671   53.7822   21.6549 H         1 UNK         0.0000 
     44 H44         2.4889   53.2200   26.7801 H         1 UNK         0.0000 
     45 H45         4.2755   54.0658   28.2690 H         1 UNK         0.0000 
     46 H46         6.2780   55.1250   27.3631 H         1 UNK         0.0000 
     47 H47         6.5893   55.4165   24.9106 H         1 UNK         0.0000 
     48 H48         0.1486   49.3707   21.6080 H         1 UNK         0.0000 
     49 H49         1.2486   48.5193   22.7199 H         1 UNK         0.0000 
     50 H50        -1.7968   48.8196   22.8651 H         1 UNK         0.0000 
     51 H51        -0.9291   47.3229   22.3723 H         1 UNK         0.0000 
     52 H52        -0.0187   47.0595   24.6704 H         1 UNK         0.0000 
     53 H53        -0.4156   48.6510   26.4815 H         1 UNK         0.0000 
     54 H54        -1.4884   49.6581   25.4367 H         1 UNK         0.0000 
     55 H55         1.5037   49.2076   25.0444 H         1 UNK         0.0000 
     56 H56         0.6890   50.6594   25.6733 H         1 UNK         0.0000 
     57 H57        -2.1797   47.6792   26.7605 H         1 UNK         0.0000 
     58 H58        -4.8025   45.9616   24.6740 H         1 UNK         0.0000 
     59 H59        -6.9318   45.2398   25.6534 H         1 UNK         0.0000 
     60 H60        -3.4241   47.2516   28.5850 H         1 UNK         0.0000 
     61 H61        -7.8147   47.1193   29.6753 H         1 UNK         0.0000 
     62 H62        -7.5485   45.5478   30.4540 H         1 UNK         0.0000 
     63 N63         0.3602   50.2798   23.5612 N.4       1 UNK         0.0000 
     64 H64        -0.5085   50.7922   23.5058 H         1 UNK         0.0000 
@<TRIPOS>BOND
     1    1    6 ar   
     2    1    2 ar   
     3    1   38 1    
     4    2    3 ar   
     5    2   39 1    
     6    3    4 ar   
     7    3   40 1    
     8    4    5 ar   
     9    4    7 1    
    10    5    6 ar   
    11    5   41 1    
    12    6   42 1    
    13    7    8 1    
    14    7    9 1    
    15    7   63 1    
    16    9   10 2    
    17    9   11 1    
    18   11   16 ar   
    19   11   12 ar   
    20   12   13 ar   
    21   12   43 1    
    22   13   14 1    
    23   13   15 ar   
    24   15   20 ar   
    25   15   16 ar   
    26   16   17 ar   
    27   17   18 ar   
    28   17   44 1    
    29   18   19 ar   
    30   18   45 1    
    31   19   20 ar   
    32   19   46 1    
    33   20   47 1    
    34   21   22 1    
    35   21   48 1    
    36   21   49 1    
    37   21   63 1    
    38   22   23 1    
    39   22   50 1    
    40   22   51 1    
    41   23   24 1    
    42   23   26 1    
    43   23   52 1    
    44   24   25 1    
    45   24   53 1    
    46   24   54 1    
    47   25   55 1    
    48   25   56 1    
    49   25   63 1    
    50   26   27 2    
    51   26   28 am   BACKBONE|DICT|INTERRES
    52   28   29 1    
    53   28   57 1    
    54   29   34 ar   
    55   29   30 ar   
    56   30   31 ar   
    57   30   58 1    
    58   31   32 ar   
    59   31   59 1    
    60   32   37 1    
    61   32   33 ar   
    62   33   34 ar   
    63   33   35 1    
    64   34   60 1    
    65   35   36 1    
    66   36   37 1    
    67   36   61 1    
    68   36   62 1    
    69   63   64 1    
@<TRIPOS>SUBSTRUCTURE
     1 UNK         1 GROUP             0       ****    0 ROOT    
