@<TRIPOS>MOLECULE
ZINC25582124_5153
61   64    1
SMALL
USER_CHARGES


@<TRIPOS>ATOM
      1 C1          5.7015   54.0350   23.6008 C.3       1 UNK         0.0000 
      2 C2          5.0328   54.1125   24.9628 C.ar      1 UNK         0.0000 
      3 C3          5.8010   54.3642   26.1024 C.ar      1 UNK         0.0000 
      4 C4          5.1817   54.4967   27.3445 C.ar      1 UNK         0.0000 
      5 C5          3.7919   54.3857   27.4453 C.ar      1 UNK         0.0000 
      6 C6          3.0307   54.0997   26.3105 C.ar      1 UNK         0.0000 
      7 C7          3.6469   53.9780   25.0685 C.ar      1 UNK         0.0000 
      8 S8          2.9862   54.6996   29.0178 S.o2      1 UNK         0.0000 
      9 O9          2.2962   55.9882   28.8816 O.2       1 UNK         0.0000 
     10 O10         4.0082   54.4964   30.0518 O.2       1 UNK         0.0000 
     11 N11         1.7783   53.4306   29.2405 N.pl3     1 UNK         0.0000 
     12 C12         2.2248   52.0536   29.4675 C.3       1 UNK         0.0000 
     13 C13         1.8628   51.2055   28.2453 C.3       1 UNK         0.0000 
     14 C14         0.3412   51.2337   27.9497 C.3       1 UNK         0.0000 
     15 C15        -0.2043   52.6865   27.8737 C.3       1 UNK         0.0000 
     16 C16         0.3357   53.6345   28.9736 C.3       1 UNK         0.0000 
     17 N17        -0.0967   50.3328   26.8818 N.am      1 UNK         0.0000 
     18 C18         0.1421   50.4802   25.5692 C.2       1 UNK         0.0000 
     19 O19         0.7258   51.4666   25.1159 O.2       1 UNK         0.0000 
     20 C20        -0.3193   49.3629   24.5920 C.3       1 UNK         0.0000 
     21 H21         0.5698   48.7418   24.4692 H         1 UNK         0.0000 
     22 C22        -0.6880   49.9398   23.2298 C.ar      1 UNK         0.0000 
     23 C23         0.2937   50.0315   22.2364 C.ar      1 UNK         0.0000 
     24 C24        -0.0124   50.5760   20.9918 C.ar      1 UNK         0.0000 
     25 C25        -1.3031   51.0294   20.7360 C.ar      1 UNK         0.0000 
     26 C26        -2.2876   50.9492   21.7184 C.ar      1 UNK         0.0000 
     27 C27        -1.9800   50.4143   22.9649 C.ar      1 UNK         0.0000 
     28 N28        -1.3421   48.4309   25.1382 N.am      1 UNK         0.0000 
     29 C29        -1.9098   47.4016   24.4726 C.2       1 UNK         0.0000 
     30 O30        -1.6555   47.0985   23.3048 O.2       1 UNK         0.0000 
     31 C31        -2.9175   46.6963   25.2076 C.2       1 UNK         0.0000 
     32 C32        -2.8959   46.2737   26.5360 C.2       1 UNK         0.0000 
     33 C33        -4.0142   45.5133   26.8819 C.2       1 UNK         0.0000 
     34 C34        -4.8924   45.3312   25.8236 C.2       1 UNK         0.0000 
     35 S35        -4.3274   46.0968   24.3750 S.3       1 UNK         0.0000 
     36 H36         6.2894   53.1252   23.5085 H         1 UNK         0.0000 
     37 H37         4.9765   54.0718   22.7877 H         1 UNK         0.0000 
     38 H38         6.3797   54.8791   23.4682 H         1 UNK         0.0000 
     39 H39         6.8739   54.4700   26.0219 H         1 UNK         0.0000 
     40 H40         5.7839   54.7233   28.2161 H         1 UNK         0.0000 
     41 H41         1.9560   54.0282   26.3739 H         1 UNK         0.0000 
     42 H42         3.0412   53.7898   24.1933 H         1 UNK         0.0000 
     43 H43         1.7732   51.6938   30.3918 H         1 UNK         0.0000 
     44 H44         3.3062   52.0539   29.6093 H         1 UNK         0.0000 
     45 H45         2.2473   50.1955   28.3809 H         1 UNK         0.0000 
     46 H46         2.3833   51.6167   27.3801 H         1 UNK         0.0000 
     47 H47        -0.1265   50.8067   28.8373 H         1 UNK         0.0000 
     48 H48         0.0899   53.1174   26.9215 H         1 UNK         0.0000 
     49 H49        -1.2940   52.6762   27.8734 H         1 UNK         0.0000 
     50 H50        -0.1986   53.5030   29.9158 H         1 UNK         0.0000 
     51 H51         0.1826   54.6704   28.6778 H         1 UNK         0.0000 
     52 H52        -0.5232   49.4706   27.2132 H         1 UNK         0.0000 
     53 H53         1.2991   49.6845   22.4297 H         1 UNK         0.0000 
     54 H54         0.7515   50.6437   20.2305 H         1 UNK         0.0000 
     55 H55        -1.5386   51.4430   19.7660 H         1 UNK         0.0000 
     56 H56        -3.2895   51.2975   21.5155 H         1 UNK         0.0000 
     57 H57        -2.7442   50.3605   23.7258 H         1 UNK         0.0000 
     58 H58        -1.5389   48.5003   26.1305 H         1 UNK         0.0000 
     59 H59        -2.0940   46.4958   27.2284 H         1 UNK         0.0000 
     60 H60        -4.1567   45.0955   27.8684 H         1 UNK         0.0000 
     61 H61        -5.8246   44.7856   25.8268 H         1 UNK         0.0000 
@<TRIPOS>BOND
     1    1    2 1    
     2    1   36 1    
     3    1   37 1    
     4    1   38 1    
     5    2    7 ar   
     6    2    3 ar   
     7    3    4 ar   
     8    3   39 1    
     9    4    5 ar   
    10    4   40 1    
    11    5    6 ar   
    12    5    8 1    
    13    6    7 ar   
    14    6   41 1    
    15    7   42 1    
    16    8    9 2    
    17    8   10 2    
    18    8   11 1    
    19   11   16 1    
    20   11   12 1    
    21   12   13 1    
    22   12   43 1    
    23   12   44 1    
    24   13   14 1    
    25   13   45 1    
    26   13   46 1    
    27   14   15 1    
    28   14   17 1    
    29   14   47 1    
    30   15   16 1    
    31   15   48 1    
    32   15   49 1    
    33   16   50 1    
    34   16   51 1    
    35   17   18 am   BACKBONE|DICT|INTERRES
    36   17   52 1    
    37   18   19 2    
    38   18   20 1    
    39   20   21 1    
    40   20   22 1    
    41   20   28 1    
    42   22   27 ar   
    43   22   23 ar   
    44   23   24 ar   
    45   23   53 1    
    46   24   25 ar   
    47   24   54 1    
    48   25   26 ar   
    49   25   55 1    
    50   26   27 ar   
    51   26   56 1    
    52   27   57 1    
    53   28   29 am   BACKBONE|DICT|INTERRES
    54   28   58 1    
    55   29   30 2    
    56   29   31 1    
    57   31   35 1    
    58   31   32 2    
    59   32   33 1    
    60   32   59 1    
    61   33   34 2    
    62   33   60 1    
    63   34   35 1    
    64   34   61 1    
@<TRIPOS>SUBSTRUCTURE
     1 UNK         1 GROUP             0       ****    0 ROOT    
