@<TRIPOS>MOLECULE
ZINC33024668_3384
61   65    1
SMALL
USER_CHARGES


@<TRIPOS>ATOM
      1 C1         -7.3969   49.2361   24.3046 C.3       1 UNK         0.0000 
      2 C2         -6.0769   49.5699   24.9841 C.ar      1 UNK         0.0000 
      3 C3         -5.4260   50.7638   24.6531 C.ar      1 UNK         0.0000 
      4 C4         -4.2187   51.1040   25.2579 C.ar      1 UNK         0.0000 
      5 C5         -3.6421   50.2524   26.2139 C.ar      1 UNK         0.0000 
      6 C6         -4.2885   49.0558   26.5357 C.ar      1 UNK         0.0000 
      7 C7         -5.5015   48.7078   25.9324 C.ar      1 UNK         0.0000 
      8 C8         -6.1715   47.3957   26.3194 C.3       1 UNK         0.0000 
      9 N9         -2.4276   50.4982   26.8819 N.am      1 UNK         0.0000 
     10 C10        -1.6824   51.6202   26.9345 C.2       1 UNK         0.0000 
     11 O11        -1.9800   52.6800   26.3849 O.2       1 UNK         0.0000 
     12 C12        -0.3835   51.5258   27.7713 C.3       1 UNK         0.0000 
     13 C13         0.8155   51.8860   26.8660 C.3       1 UNK         0.0000 
     14 C14         2.1284   51.8414   27.6823 C.3       1 UNK         0.0000 
     15 N15         2.0087   52.7828   28.8155 N.am      1 UNK         0.0000 
     16 C16         0.8657   52.5442   29.7290 C.3       1 UNK         0.0000 
     17 C17        -0.4339   52.5854   28.8973 C.3       1 UNK         0.0000 
     18 C18         2.9148   53.7627   29.0982 C.2       1 UNK         0.0000 
     19 O19         2.8214   54.4965   30.0815 O.2       1 UNK         0.0000 
     20 C20         4.0643   53.9231   28.2456 C.2       1 UNK         0.0000 
     21 N21         5.3309   53.7346   28.5412 N.2       1 UNK         0.0000 
     22 N22         6.1929   54.0240   27.4933 N.2       1 UNK         0.0000 
     23 C23         5.5729   54.4072   26.4022 C.2       1 UNK         0.0000 
     24 S24         3.8378   54.4966   26.6129 S.3       1 UNK         0.0000 
     25 C25         6.1379   54.8133   25.1537 C.2       1 UNK         0.0000 
     26 O26         7.1044   55.5711   25.1336 O.2       1 UNK         0.0000 
     27 N27         5.5221   54.2686   24.0809 N.am      1 UNK         0.0000 
     28 C28         5.7298   54.4961   22.7093 C.ar      1 UNK         0.0000 
     29 C29         4.8016   53.8932   21.8341 C.ar      1 UNK         0.0000 
     30 C30         4.8786   54.0876   20.4477 C.ar      1 UNK         0.0000 
     31 C31         5.9030   54.8933   19.9693 C.ar      1 UNK         0.0000 
     32 C32         6.8115   55.4762   20.8038 C.ar      1 UNK         0.0000 
     33 C33         6.7654   55.2971   22.1816 C.ar      1 UNK         0.0000 
     34 O34         7.6778   56.2250   20.0744 O.3       1 UNK         0.0000 
     35 C35         7.3961   55.9366   18.7291 C.3       1 UNK         0.0000 
     36 O36         6.1700   55.2549   18.6869 O.3       1 UNK         0.0000 
     37 H37        -8.1795   49.0887   25.0492 H         1 UNK         0.0000 
     38 H38        -7.7240   50.0255   23.6266 H         1 UNK         0.0000 
     39 H39        -7.3067   48.3116   23.7341 H         1 UNK         0.0000 
     40 H40        -5.8550   51.4338   23.9227 H         1 UNK         0.0000 
     41 H41        -3.7486   52.0280   24.9613 H         1 UNK         0.0000 
     42 H42        -3.8439   48.3934   27.2671 H         1 UNK         0.0000 
     43 H43        -6.3350   46.7793   25.4354 H         1 UNK         0.0000 
     44 H44        -5.5740   46.8158   27.0240 H         1 UNK         0.0000 
     45 H45        -7.1444   47.5868   26.7727 H         1 UNK         0.0000 
     46 H46        -2.0954   49.7178   27.4481 H         1 UNK         0.0000 
     47 H47        -0.3079   50.5047   28.1591 H         1 UNK         0.0000 
     48 H48         0.7458   52.8966   26.4571 H         1 UNK         0.0000 
     49 H49         0.9307   51.1523   26.0657 H         1 UNK         0.0000 
     50 H50         2.9505   52.0959   27.0189 H         1 UNK         0.0000 
     51 H51         2.2877   50.8401   28.0838 H         1 UNK         0.0000 
     52 H52         0.9888   51.5539   30.1637 H         1 UNK         0.0000 
     53 H53         0.8068   53.2636   30.5471 H         1 UNK         0.0000 
     54 H54        -1.2410   52.3716   29.6010 H         1 UNK         0.0000 
     55 H55        -0.4974   53.6053   28.5127 H         1 UNK         0.0000 
     56 H56         4.7588   53.6428   24.2921 H         1 UNK         0.0000 
     57 H57         4.0041   53.2784   22.2231 H         1 UNK         0.0000 
     58 H58         4.1580   53.6301   19.7834 H         1 UNK         0.0000 
     59 H59         7.5042   55.7755   22.8054 H         1 UNK         0.0000 
     60 H60         7.3303   56.8587   18.1463 H         1 UNK         0.0000 
     61 H61         8.1822   55.2916   18.3253 H         1 UNK         0.0000 
@<TRIPOS>BOND
     1    1    2 1    
     2    1   37 1    
     3    1   38 1    
     4    1   39 1    
     5    2    7 ar   
     6    2    3 ar   
     7    3    4 ar   
     8    3   40 1    
     9    4    5 ar   
    10    4   41 1    
    11    5    6 ar   
    12    5    9 1    
    13    6    7 ar   
    14    6   42 1    
    15    7    8 1    
    16    8   43 1    
    17    8   44 1    
    18    8   45 1    
    19    9   10 am   BACKBONE|DICT|INTERRES
    20    9   46 1    
    21   10   11 2    
    22   10   12 1    
    23   12   17 1    
    24   12   13 1    
    25   12   47 1    
    26   13   14 1    
    27   13   48 1    
    28   13   49 1    
    29   14   15 1    
    30   14   50 1    
    31   14   51 1    
    32   15   16 1    
    33   15   18 am   BACKBONE|DICT|INTERRES
    34   16   17 1    
    35   16   52 1    
    36   16   53 1    
    37   17   54 1    
    38   17   55 1    
    39   18   19 2    
    40   18   20 1    
    41   20   24 1    
    42   20   21 2    
    43   21   22 1    
    44   22   23 2    
    45   23   24 1    
    46   23   25 1    
    47   25   26 2    
    48   25   27 am   BACKBONE|DICT|INTERRES
    49   27   28 1    
    50   27   56 1    
    51   28   33 ar   
    52   28   29 ar   
    53   29   30 ar   
    54   29   57 1    
    55   30   31 ar   
    56   30   58 1    
    57   31   36 1    
    58   31   32 ar   
    59   32   33 ar   
    60   32   34 1    
    61   33   59 1    
    62   34   35 1    
    63   35   36 1    
    64   35   60 1    
    65   35   61 1    
@<TRIPOS>SUBSTRUCTURE
     1 UNK         1 GROUP             0       ****    0 ROOT    
