@<TRIPOS>MOLECULE
ZINC00921957_5767
70   74    1
SMALL
USER_CHARGES


@<TRIPOS>ATOM
      1 C1          7.2515   56.4767   19.0264 C.3       1 UNK         0.0000 
      2 O2          5.9190   56.4122   18.5261 O.3       1 UNK         0.0000 
      3 C3          5.2096   55.2271   18.6270 C.ar      1 UNK         0.0000 
      4 C4          5.7193   54.0659   19.2237 C.ar      1 UNK         0.0000 
      5 C5          4.9405   52.9144   19.3050 C.ar      1 UNK         0.0000 
      6 C6          3.5995   52.8988   18.9029 C.ar      1 UNK         0.0000 
      7 C7          3.1094   54.0548   18.2787 C.ar      1 UNK         0.0000 
      8 C8          3.9048   55.1943   18.1128 C.ar      1 UNK         0.0000 
      9 O9          3.3535   56.2944   17.4990 O.3       1 UNK         0.0000 
     10 C10         3.8406   56.5495   16.1886 C.3       1 UNK         0.0000 
     11 C11         2.7632   51.6284   19.1421 C.3       1 UNK         0.0000 
     12 H12         3.5051   50.8327   19.1364 H         1 UNK         0.0000 
     13 C13         1.8459   51.1856   17.9397 C.2       1 UNK         0.0000 
     14 O14         1.6796   51.9126   16.9590 O.2       1 UNK         0.0000 
     15 N15         1.2446   49.9881   18.0374 N.am      1 UNK         0.0000 
     16 C16         0.4415   49.3373   17.0015 C.3       1 UNK         0.0000 
     17 C17         1.3115   48.4498   16.0767 C.3       1 UNK         0.0000 
     18 C18         1.9838   47.2865   16.8430 C.3       1 UNK         0.0000 
     19 C19         0.9474   46.4182   17.5860 C.3       1 UNK         0.0000 
     20 C20        -0.0199   47.2541   18.4504 C.3       1 UNK         0.0000 
     21 C21        -0.6322   48.4243   17.6427 C.3       1 UNK         0.0000 
     22 N22         2.1590   51.5300   20.5357 N.am      1 UNK         0.0000 
     23 C23         2.4533   52.4472   21.5777 C.ar      1 UNK         0.0000 
     24 C24         1.4463   53.2409   22.1651 C.ar      1 UNK         0.0000 
     25 C25         1.7155   54.0800   23.2570 C.ar      1 UNK         0.0000 
     26 C26         3.0270   54.1501   23.7017 C.ar      1 UNK         0.0000 
     27 C27         4.0211   53.4328   23.1069 C.ar      1 UNK         0.0000 
     28 C28         3.7637   52.5387   22.0749 C.ar      1 UNK         0.0000 
     29 O29         5.2047   53.7027   23.7185 O.3       1 UNK         0.0000 
     30 C30         4.8902   54.4914   24.8354 C.3       1 UNK         0.0000 
     31 O31         3.5455   54.8787   24.7229 O.3       1 UNK         0.0000 
     32 C32         1.6178   50.3479   20.9598 C.2       1 UNK         0.0000 
     33 O33         2.1672   49.2647   20.7500 O.2       1 UNK         0.0000 
     34 C34         0.1941   50.3222   21.5454 C.3       1 UNK         0.0000 
     35 C35         0.1048   49.8388   22.9812 C.2       1 UNK         0.0000 
     36 C36         0.6635   50.3745   24.1440 C.2       1 UNK         0.0000 
     37 C37         0.3090   49.7030   25.3177 C.2       1 UNK         0.0000 
     38 C38        -0.5251   48.6316   25.0817 C.2       1 UNK         0.0000 
     39 S39        -0.8981   48.4725   23.4014 S.3       1 UNK         0.0000 
     40 H40         7.6562   57.4740   18.8561 H         1 UNK         0.0000 
     41 H41         7.2852   56.2892   20.1013 H         1 UNK         0.0000 
     42 H42         7.9058   55.7682   18.5153 H         1 UNK         0.0000 
     43 H43         6.7115   54.0380   19.6472 H         1 UNK         0.0000 
     44 H44         5.3833   52.0270   19.7274 H         1 UNK         0.0000 
     45 H45         2.0827   54.1004   17.9511 H         1 UNK         0.0000 
     46 H46         3.2860   57.3808   15.7561 H         1 UNK         0.0000 
     47 H47         4.8947   56.8240   16.1944 H         1 UNK         0.0000 
     48 H48         3.7082   55.6858   15.5353 H         1 UNK         0.0000 
     49 H49         1.5212   49.4005   18.8149 H         1 UNK         0.0000 
     50 H50        -0.0664   50.1034   16.4099 H         1 UNK         0.0000 
     51 H51         0.6989   48.0489   15.2676 H         1 UNK         0.0000 
     52 H52         2.0773   49.0570   15.5897 H         1 UNK         0.0000 
     53 H53         2.5644   46.6742   16.1531 H         1 UNK         0.0000 
     54 H54         2.7034   47.6807   17.5631 H         1 UNK         0.0000 
     55 H55         0.3742   45.8427   16.8567 H         1 UNK         0.0000 
     56 H56         1.4686   45.6936   18.2110 H         1 UNK         0.0000 
     57 H57        -0.8129   46.6159   18.8422 H         1 UNK         0.0000 
     58 H58         0.5119   47.6396   19.3213 H         1 UNK         0.0000 
     59 H59        -1.2793   49.0160   18.2909 H         1 UNK         0.0000 
     60 H60        -1.2817   48.0288   16.8602 H         1 UNK         0.0000 
     61 H61         0.4427   53.2096   21.7783 H         1 UNK         0.0000 
     62 H62         0.9309   54.6619   23.7159 H         1 UNK         0.0000 
     63 H63         4.5510   51.9143   21.6843 H         1 UNK         0.0000 
     64 H64         5.0209   53.8911   25.7385 H         1 UNK         0.0000 
     65 H65         5.5319   55.3731   24.8633 H         1 UNK         0.0000 
     66 H66        -0.2948   51.2844   21.4290 H         1 UNK         0.0000 
     67 H67        -0.3797   49.6615   20.8940 H         1 UNK         0.0000 
     68 H68         1.3133   51.2358   24.1402 H         1 UNK         0.0000 
     69 H69         0.6439   49.9811   26.3069 H         1 UNK         0.0000 
     70 H70        -0.9297   47.9503   25.8195 H         1 UNK         0.0000 
@<TRIPOS>BOND
     1    1    2 1    
     2    1   40 1    
     3    1   41 1    
     4    1   42 1    
     5    2    3 1    
     6    3    8 ar   
     7    3    4 ar   
     8    4    5 ar   
     9    4   43 1    
    10    5    6 ar   
    11    5   44 1    
    12    6    7 ar   
    13    6   11 1    
    14    7    8 ar   
    15    7   45 1    
    16    8    9 1    
    17    9   10 1    
    18   10   46 1    
    19   10   47 1    
    20   10   48 1    
    21   11   12 1    
    22   11   13 1    
    23   11   22 1    
    24   13   14 2    
    25   13   15 am   BACKBONE|DICT|INTERRES
    26   15   16 1    
    27   15   49 1    
    28   16   21 1    
    29   16   17 1    
    30   16   50 1    
    31   17   18 1    
    32   17   51 1    
    33   17   52 1    
    34   18   19 1    
    35   18   53 1    
    36   18   54 1    
    37   19   20 1    
    38   19   55 1    
    39   19   56 1    
    40   20   21 1    
    41   20   57 1    
    42   20   58 1    
    43   21   59 1    
    44   21   60 1    
    45   22   23 1    
    46   22   32 am   BACKBONE|DICT|INTERRES
    47   23   28 ar   
    48   23   24 ar   
    49   24   25 ar   
    50   24   61 1    
    51   25   26 ar   
    52   25   62 1    
    53   26   31 1    
    54   26   27 ar   
    55   27   28 ar   
    56   27   29 1    
    57   28   63 1    
    58   29   30 1    
    59   30   31 1    
    60   30   64 1    
    61   30   65 1    
    62   32   33 2    
    63   32   34 1    
    64   34   35 1    
    65   34   66 1    
    66   34   67 1    
    67   35   39 1    
    68   35   36 2    
    69   36   37 1    
    70   36   68 1    
    71   37   38 2    
    72   37   69 1    
    73   38   39 1    
    74   38   70 1    
@<TRIPOS>SUBSTRUCTURE
     1 UNK         1 GROUP             0       ****    0 ROOT    
