@<TRIPOS>MOLECULE
ZINC08414412_5178
58   61    1
SMALL
USER_CHARGES


@<TRIPOS>ATOM
      1 C1          5.4685   54.7595   25.7937 C.ar      1 UNK         0.0000 
      2 C2          6.4695   54.5202   24.8575 C.ar      1 UNK         0.0000 
      3 C3          6.1341   54.0505   23.5915 C.ar      1 UNK         0.0000 
      4 C4          4.7974   53.8118   23.2528 C.ar      1 UNK         0.0000 
      5 C5          3.7955   54.0965   24.1924 C.ar      1 UNK         0.0000 
      6 C6          4.1319   54.5514   25.4648 C.ar      1 UNK         0.0000 
      7 C7          4.5058   53.2869   21.8962 C.2       1 UNK         0.0000 
      8 C8          3.4589   52.5401   21.4445 C.2       1 UNK         0.0000 
      9 C9          3.3191   52.2234   20.0068 C.2       1 UNK         0.0000 
     10 O10         2.8390   51.1307   19.6903 O.2       1 UNK         0.0000 
     11 N11         3.6772   53.1323   19.0410 N.am      1 UNK         0.0000 
     12 C12         3.9045   54.5675   19.2819 C.3       1 UNK         0.0000 
     13 C13         5.2834   54.9260   18.7027 C.3       1 UNK         0.0000 
     14 C14         5.2617   54.7706   17.1661 C.3       1 UNK         0.0000 
     15 C15         4.8663   53.2897   16.8899 C.3       1 UNK         0.0000 
     16 C16         3.5704   52.7884   17.6024 C.3       1 UNK         0.0000 
     17 C17         4.3331   55.8478   16.5357 C.ar      1 UNK         0.0000 
     18 C18         3.2065   55.5183   15.7646 C.ar      1 UNK         0.0000 
     19 C19         2.3651   56.5138   15.2728 C.ar      1 UNK         0.0000 
     20 C20         2.6421   57.8515   15.5381 C.ar      1 UNK         0.0000 
     21 C21         3.7687   58.2039   16.2727 C.ar      1 UNK         0.0000 
     22 C22         4.6113   57.2076   16.7587 C.ar      1 UNK         0.0000 
     23 Br23        1.4776   59.2071   14.8824 Br        1 UNK         0.0000 
     24 O24         6.5579   55.0134   16.6543 O.3       1 UNK         0.0000 
     25 N25         2.5595   51.9905   22.3345 N.am      1 UNK         0.0000 
     26 C26         1.2063   52.0013   22.2846 C.2       1 UNK         0.0000 
     27 O27         0.5390   52.4968   21.3755 O.2       1 UNK         0.0000 
     28 C28         0.5191   51.3657   23.4684 C.ar      1 UNK         0.0000 
     29 C29        -0.6408   51.9501   23.9945 C.ar      1 UNK         0.0000 
     30 C30        -1.2904   51.3693   25.0818 C.ar      1 UNK         0.0000 
     31 C31        -0.7925   50.1937   25.6387 C.ar      1 UNK         0.0000 
     32 C32         0.3485   49.5928   25.1166 C.ar      1 UNK         0.0000 
     33 C33         1.0073   50.1783   24.0369 C.ar      1 UNK         0.0000 
     34 H34         5.7289   55.1152   26.7800 H         1 UNK         0.0000 
     35 H35         7.5042   54.6884   25.1095 H         1 UNK         0.0000 
     36 H36         6.9258   53.8581   22.8813 H         1 UNK         0.0000 
     37 H37         2.7504   53.9741   23.9518 H         1 UNK         0.0000 
     38 H38         3.3578   54.7528   26.1902 H         1 UNK         0.0000 
     39 H39         5.2526   53.5928   21.1790 H         1 UNK         0.0000 
     40 H40         3.1297   55.1025   18.7301 H         1 UNK         0.0000 
     41 H41         3.7440   54.8968   20.3040 H         1 UNK         0.0000 
     42 H42         5.4911   55.9594   18.9772 H         1 UNK         0.0000 
     43 H43         6.0892   54.3474   19.1566 H         1 UNK         0.0000 
     44 H44         5.6902   52.6294   17.1710 H         1 UNK         0.0000 
     45 H45         4.7507   53.1258   15.8186 H         1 UNK         0.0000 
     46 H46         3.5148   51.7081   17.4454 H         1 UNK         0.0000 
     47 H47         2.6759   53.2629   17.2036 H         1 UNK         0.0000 
     48 H48         2.9610   54.4967   15.5272 H         1 UNK         0.0000 
     49 H49         1.4965   56.2488   14.6893 H         1 UNK         0.0000 
     50 H50         3.9871   59.2463   16.4661 H         1 UNK         0.0000 
     51 H51         5.4840   57.5015   17.3232 H         1 UNK         0.0000 
     52 H52         6.6757   54.4723   15.8703 H         1 UNK         0.0000 
     53 H53         2.9310   51.8115   23.2532 H         1 UNK         0.0000 
     54 H54        -1.0414   52.8591   23.5688 H         1 UNK         0.0000 
     55 H55        -2.1798   51.8251   25.4902 H         1 UNK         0.0000 
     56 H56        -1.2953   49.7368   26.4810 H         1 UNK         0.0000 
     57 H57         0.7236   48.6762   25.5520 H         1 UNK         0.0000 
     58 H58         1.8890   49.6896   23.6443 H         1 UNK         0.0000 
@<TRIPOS>BOND
     1    1    6 ar   
     2    1    2 ar   
     3    1   34 1    
     4    2    3 ar   
     5    2   35 1    
     6    3    4 ar   
     7    3   36 1    
     8    4    5 ar   
     9    4    7 1    
    10    5    6 ar   
    11    5   37 1    
    12    6   38 1    
    13    7    8 2    
    14    7   39 1    
    15    8    9 1    
    16    8   25 1    
    17    9   10 2    
    18    9   11 am   BACKBONE|DICT|INTERRES
    19   11   16 1    
    20   11   12 1    
    21   12   13 1    
    22   12   40 1    
    23   12   41 1    
    24   13   14 1    
    25   13   42 1    
    26   13   43 1    
    27   14   15 1    
    28   14   17 1    
    29   14   24 1    
    30   15   16 1    
    31   15   44 1    
    32   15   45 1    
    33   16   46 1    
    34   16   47 1    
    35   17   22 ar   
    36   17   18 ar   
    37   18   19 ar   
    38   18   48 1    
    39   19   20 ar   
    40   19   49 1    
    41   20   21 ar   
    42   20   23 1    
    43   21   22 ar   
    44   21   50 1    
    45   22   51 1    
    46   24   52 1    
    47   25   26 am   BACKBONE|DICT|INTERRES
    48   25   53 1    
    49   26   27 2    
    50   26   28 1    
    51   28   33 ar   
    52   28   29 ar   
    53   29   30 ar   
    54   29   54 1    
    55   30   31 ar   
    56   30   55 1    
    57   31   32 ar   
    58   31   56 1    
    59   32   33 ar   
    60   32   57 1    
    61   33   58 1    
@<TRIPOS>SUBSTRUCTURE
     1 UNK         1 GROUP             0       ****    0 ROOT    
