@<TRIPOS>MOLECULE
ZINC09295270_2289
53   57    1
SMALL
USER_CHARGES


@<TRIPOS>ATOM
      1 C1         10.6717   49.8690   15.2764 C.ar      1 UNK         0.0000 
      2 C2         10.1046   50.2608   16.4884 C.ar      1 UNK         0.0000 
      3 C3          9.1046   51.2307   16.5017 C.ar      1 UNK         0.0000 
      4 C4          8.6660   51.8088   15.3025 C.ar      1 UNK         0.0000 
      5 C5          9.2608   51.4246   14.0982 C.ar      1 UNK         0.0000 
      6 C6         10.2560   50.4493   14.0815 C.ar      1 UNK         0.0000 
      7 O7          7.6656   52.7608   15.2346 O.3       1 UNK         0.0000 
      8 C8          6.6019   52.7228   16.1923 C.3       1 UNK         0.0000 
      9 C9          6.8627   53.6153   17.3982 C.ar      1 UNK         0.0000 
     10 N10         7.8483   54.4746   17.4994 N.2       1 UNK         0.0000 
     11 N11         7.6914   55.1431   18.7074 N.2       1 UNK         0.0000 
     12 C12         6.6166   54.6697   19.2843 C.ar      1 UNK         0.0000 
     13 N13         6.0616   53.6648   18.5219 N.pl3     1 UNK         0.0000 
     14 N14         4.9226   52.8968   18.7864 N.3       1 UNK         0.0000 
     15 C15         4.5781   52.7902   20.2076 C.3       1 UNK         0.0000 
     16 H16         5.4141   52.2793   20.6901 H         1 UNK         0.0000 
     17 C17         4.4255   54.1955   20.8748 C.3       1 UNK         0.0000 
     18 H18         3.6380   54.7585   20.3716 H         1 UNK         0.0000 
     19 S19         5.9573   55.2224   20.8216 S.3       1 UNK         0.0000 
     20 C20         3.9631   54.0967   22.3629 C.2       1 UNK         0.0000 
     21 O21         2.7534   54.0540   22.5850 O.2       1 UNK         0.0000 
     22 N22         4.9001   54.0981   23.3416 N.am      1 UNK         0.0000 
     23 C23         4.7524   54.1601   24.7464 C.ar      1 UNK         0.0000 
     24 C24         3.5330   54.0002   25.4287 C.ar      1 UNK         0.0000 
     25 C25         3.4877   54.0830   26.8218 C.ar      1 UNK         0.0000 
     26 C26         4.6506   54.3255   27.5500 C.ar      1 UNK         0.0000 
     27 C27         5.8625   54.4958   26.8848 C.ar      1 UNK         0.0000 
     28 C28         5.9141   54.4183   25.4925 C.ar      1 UNK         0.0000 
     29 F29         7.1044   54.5959   24.8736 F         1 UNK         0.0000 
     30 C30         3.3483   51.8896   20.3915 C.ar      1 UNK         0.0000 
     31 C31         3.3464   50.9489   21.4197 C.ar      1 UNK         0.0000 
     32 C32         2.2503   50.1145   21.6167 C.ar      1 UNK         0.0000 
     33 C33         1.1420   50.2315   20.7821 C.ar      1 UNK         0.0000 
     34 C34         1.1198   51.1857   19.7671 C.ar      1 UNK         0.0000 
     35 C35         2.2187   52.0194   19.5734 C.ar      1 UNK         0.0000 
     36 F36         0.0769   49.4188   20.9646 F         1 UNK         0.0000 
     37 H37        11.4456   49.1146   15.2614 H         1 UNK         0.0000 
     38 H38        10.4391   49.8144   17.4142 H         1 UNK         0.0000 
     39 H39         8.6764   51.5216   17.4488 H         1 UNK         0.0000 
     40 H40         8.9330   51.8716   13.1720 H         1 UNK         0.0000 
     41 H41        10.7026   50.1445   13.1445 H         1 UNK         0.0000 
     42 H42         6.3926   51.6967   16.4867 H         1 UNK         0.0000 
     43 H43         5.7020   53.0614   15.6789 H         1 UNK         0.0000 
     44 H44         5.1048   51.9358   18.4720 H         1 UNK         0.0000 
     45 H45         5.8579   54.1709   23.0298 H         1 UNK         0.0000 
     46 H46         2.6107   53.7957   24.9105 H         1 UNK         0.0000 
     47 H47         2.5462   53.9513   27.3346 H         1 UNK         0.0000 
     48 H48         4.6123   54.3852   28.6282 H         1 UNK         0.0000 
     49 H49         6.7611   54.6910   27.4514 H         1 UNK         0.0000 
     50 H50         4.1997   50.8962   22.0742 H         1 UNK         0.0000 
     51 H51         2.2585   49.3843   22.4138 H         1 UNK         0.0000 
     52 H52         0.2518   51.2760   19.1323 H         1 UNK         0.0000 
     53 H53         2.1922   52.7616   18.7887 H         1 UNK         0.0000 
@<TRIPOS>BOND
     1    1    6 ar   
     2    1    2 ar   
     3    1   37 1    
     4    2    3 ar   
     5    2   38 1    
     6    3    4 ar   
     7    3   39 1    
     8    4    5 ar   
     9    4    7 1    
    10    5    6 ar   
    11    5   40 1    
    12    6   41 1    
    13    7    8 1    
    14    8    9 1    
    15    8   42 1    
    16    8   43 1    
    17    9   13 ar   
    18    9   10 ar   
    19   10   11 ar   
    20   11   12 ar   
    21   12   19 1    
    22   12   13 ar   
    23   13   14 1    
    24   14   15 1    
    25   14   44 1    
    26   15   16 1    
    27   15   17 1    
    28   15   30 1    
    29   17   18 1    
    30   17   19 1    
    31   17   20 1    
    32   20   21 2    
    33   20   22 am   BACKBONE|DICT|INTERRES
    34   22   23 1    
    35   22   45 1    
    36   23   28 ar   
    37   23   24 ar   
    38   24   25 ar   
    39   24   46 1    
    40   25   26 ar   
    41   25   47 1    
    42   26   27 ar   
    43   26   48 1    
    44   27   28 ar   
    45   27   49 1    
    46   28   29 1    
    47   30   35 ar   
    48   30   31 ar   
    49   31   32 ar   
    50   31   50 1    
    51   32   33 ar   
    52   32   51 1    
    53   33   34 ar   
    54   33   36 1    
    55   34   35 ar   
    56   34   52 1    
    57   35   53 1    
@<TRIPOS>SUBSTRUCTURE
     1 UNK         1 GROUP             0       ****    0 ROOT    
