@<TRIPOS>MOLECULE
ZINC12716786_3135
66   69    1
SMALL
USER_CHARGES


@<TRIPOS>ATOM
      1 C1          3.5337   54.5447   27.5002 C.3       1 UNK         0.0000 
      2 O2          4.2500   54.7472   26.2863 O.3       1 UNK         0.0000 
      3 C3          3.7451   54.2359   25.1036 C.ar      1 UNK         0.0000 
      4 C4          2.4570   53.6973   24.9810 C.ar      1 UNK         0.0000 
      5 C5          2.0195   53.1760   23.7679 C.ar      1 UNK         0.0000 
      6 C6          2.8614   53.1231   22.6470 C.ar      1 UNK         0.0000 
      7 C7          4.1286   53.7213   22.7664 C.ar      1 UNK         0.0000 
      8 C8          4.5782   54.2785   23.9772 C.ar      1 UNK         0.0000 
      9 O9          5.8131   54.8854   24.1365 O.3       1 UNK         0.0000 
     10 C10         6.6906   55.0157   23.0249 C.3       1 UNK         0.0000 
     11 C11         2.3964   52.4703   21.3304 C.3       1 UNK         0.0000 
     12 H12         1.9699   53.2757   20.7408 H         1 UNK         0.0000 
     13 C13         3.5600   51.8939   20.4616 C.2       1 UNK         0.0000 
     14 O14         4.1998   50.9343   20.8817 O.2       1 UNK         0.0000 
     15 N15         3.9476   52.4967   19.3237 N.am      1 UNK         0.0000 
     16 C16         3.4817   53.7394   18.7179 C.3       1 UNK         0.0000 
     17 C17         4.6115   54.4447   17.9617 C.3       1 UNK         0.0000 
     18 C18         3.8915   55.3647   16.9761 C.3       1 UNK         0.0000 
     19 C19         2.6458   54.5807   16.5505 C.3       1 UNK         0.0000 
     20 C20         2.3983   53.5314   17.6488 C.3       1 UNK         0.0000 
     21 N21         1.2803   51.4722   21.5229 N.am      1 UNK         0.0000 
     22 C22         0.0099   51.9034   20.9092 C.3       1 UNK         0.0000 
     23 C23        -0.0884   51.5445   19.4399 C.2       1 UNK         0.0000 
     24 C24         0.6581   50.7555   18.5719 C.2       1 UNK         0.0000 
     25 C25         0.0478   50.8320   17.3209 C.2       1 UNK         0.0000 
     26 C26        -1.0457   51.6654   17.4762 C.2       1 UNK         0.0000 
     27 O27        -1.1282   52.0975   18.7611 O.3       1 UNK         0.0000 
     28 C28         1.3936   50.3504   22.3103 C.2       1 UNK         0.0000 
     29 O29         2.4367   50.0520   22.8819 O.2       1 UNK         0.0000 
     30 C30         0.2455   49.4979   22.5575 C.2       1 UNK         0.0000 
     31 C31        -0.1953   48.9599   23.7688 C.2       1 UNK         0.0000 
     32 C32        -1.2826   48.0772   23.5782 C.2       1 UNK         0.0000 
     33 N33        -1.6723   47.8710   22.3336 N.2       1 UNK         0.0000 
     34 S34        -0.6834   48.7783   21.2764 S.3       1 UNK         0.0000 
     35 C35        -1.9524   47.3039   24.6010 C.2       1 UNK         0.0000 
     36 O36        -2.1543   46.0964   24.4932 O.2       1 UNK         0.0000 
     37 N37        -2.3216   47.9929   25.6816 N.am      1 UNK         0.0000 
     38 N38         0.3776   49.2526   24.9827 N.pl3     1 UNK         0.0000 
     39 H39         4.1314   54.9155   28.3334 H         1 UNK         0.0000 
     40 H40         2.5885   55.0887   27.5055 H         1 UNK         0.0000 
     41 H41         3.3408   53.4861   27.6813 H         1 UNK         0.0000 
     42 H42         1.7772   53.6753   25.8182 H         1 UNK         0.0000 
     43 H43         1.0188   52.7755   23.7263 H         1 UNK         0.0000 
     44 H44         4.7786   53.7356   21.9066 H         1 UNK         0.0000 
     45 H45         7.5047   55.6834   23.3019 H         1 UNK         0.0000 
     46 H46         7.1242   54.0541   22.7531 H         1 UNK         0.0000 
     47 H47         6.2055   55.4511   22.1508 H         1 UNK         0.0000 
     48 H48         4.6219   51.9614   18.7790 H         1 UNK         0.0000 
     49 H49         3.1062   54.4622   19.4355 H         1 UNK         0.0000 
     50 H50         5.2205   53.7169   17.4208 H         1 UNK         0.0000 
     51 H51         5.2921   54.9715   18.6324 H         1 UNK         0.0000 
     52 H52         4.5190   55.6385   16.1283 H         1 UNK         0.0000 
     53 H53         3.5987   56.2890   17.4775 H         1 UNK         0.0000 
     54 H54         2.8157   54.0858   15.5917 H         1 UNK         0.0000 
     55 H55         1.7880   55.2431   16.4245 H         1 UNK         0.0000 
     56 H56         1.3994   53.6000   18.0778 H         1 UNK         0.0000 
     57 H57         2.4814   52.5356   17.2083 H         1 UNK         0.0000 
     58 H58        -0.8420   51.4834   21.4433 H         1 UNK         0.0000 
     59 H59        -0.0824   52.9742   21.0558 H         1 UNK         0.0000 
     60 H60         1.5513   50.1957   18.8143 H         1 UNK         0.0000 
     61 H61         0.3739   50.3443   16.4130 H         1 UNK         0.0000 
     62 H62        -1.8054   52.0253   16.7987 H         1 UNK         0.0000 
     63 H63        -2.0756   48.9657   25.7780 H         1 UNK         0.0000 
     64 H64        -2.6505   47.5113   26.5081 H         1 UNK         0.0000 
     65 H65         0.1288   48.7539   25.8296 H         1 UNK         0.0000 
     66 H66         1.2530   49.7570   25.0066 H         1 UNK         0.0000 
@<TRIPOS>BOND
     1    1    2 1    
     2    1   39 1    
     3    1   40 1    
     4    1   41 1    
     5    2    3 1    
     6    3    8 ar   
     7    3    4 ar   
     8    4    5 ar   
     9    4   42 1    
    10    5    6 ar   
    11    5   43 1    
    12    6    7 ar   
    13    6   11 1    
    14    7    8 ar   
    15    7   44 1    
    16    8    9 1    
    17    9   10 1    
    18   10   45 1    
    19   10   46 1    
    20   10   47 1    
    21   11   12 1    
    22   11   13 1    
    23   11   21 1    
    24   13   14 2    
    25   13   15 am   BACKBONE|DICT|INTERRES
    26   15   16 1    
    27   15   48 1    
    28   16   20 1    
    29   16   17 1    
    30   16   49 1    
    31   17   18 1    
    32   17   50 1    
    33   17   51 1    
    34   18   19 1    
    35   18   52 1    
    36   18   53 1    
    37   19   20 1    
    38   19   54 1    
    39   19   55 1    
    40   20   56 1    
    41   20   57 1    
    42   21   22 1    
    43   21   28 am   BACKBONE|DICT|INTERRES
    44   22   23 1    
    45   22   58 1    
    46   22   59 1    
    47   23   27 1    
    48   23   24 2    
    49   24   25 1    
    50   24   60 1    
    51   25   26 2    
    52   25   61 1    
    53   26   27 1    
    54   26   62 1    
    55   28   29 2    
    56   28   30 1    
    57   30   34 1    
    58   30   31 2    
    59   31   32 1    
    60   31   38 1    
    61   32   33 2    
    62   32   35 1    
    63   33   34 1    
    64   35   36 2    
    65   35   37 am   BACKBONE|DICT|INTERRES
    66   37   63 1    
    67   37   64 1    
    68   38   65 1    
    69   38   66 1    
@<TRIPOS>SUBSTRUCTURE
     1 UNK         1 GROUP             0       ****    0 ROOT    
