ZINC62828311_1664
                    3D
 Schrodinger Suite 2024-2.
 33 34  0  0  1  0            999 V2000
   -3.5370   50.7774   28.6197 C   0  0  0  0  0  0
   -2.2143   51.2966   28.1166 C   0  0  0  0  0  0
   -1.6522   51.4471   26.8618 C   0  0  0  0  0  0
   -0.3711   51.9589   27.0577 C   0  0  0  0  0  0
   -0.1954   52.1172   28.4287 C   0  0  0  0  0  0
   -1.3231   51.6967   29.0601 O   0  0  0  0  0  0
    0.9249   52.6344   29.3202 C   0  0  2  0  0  0
    1.3482   51.7753   29.8438 H   0  0  0  0  0  0
    0.3654   53.6272   30.3674 C   0  0  0  0  0  0
    1.9928   53.2016   28.4877 N   0  0  0  0  0  0
    3.1997   53.6362   28.8919 C   0  0  0  0  0  0
    3.5046   53.7006   30.0816 O   0  0  0  0  0  0
    4.1052   53.9894   27.9502 N   0  0  0  0  0  0
    4.0368   54.0766   26.5518 C   0  0  0  0  0  0
    5.0931   54.4961   25.7175 C   0  0  0  0  0  0
    4.7221   54.4966   24.3593 C   0  0  0  0  0  0
    3.4177   54.0970   24.1318 C   0  0  0  0  0  0
    2.6119   53.6967   25.6025 S   0  0  0  0  0  0
    6.4355   54.8966   26.1633 C   0  0  0  0  0  0
    6.8243   54.4968   27.2818 O   0  0  0  0  0  0
    7.1044   55.6212   25.3925 O   0  5  0  0  0  0
   -4.1769   50.4411   27.8042 H   0  0  0  0  0  0
   -3.3921   49.9238   29.2834 H   0  0  0  0  0  0
   -4.0872   51.5336   29.1777 H   0  0  0  0  0  0
   -2.1130   51.1960   25.9181 H   0  0  0  0  0  0
    0.3423   52.1837   26.2818 H   0  0  0  0  0  0
   -0.3917   53.1546   30.9953 H   0  0  0  0  0  0
    1.1364   53.9947   31.0415 H   0  0  0  0  0  0
   -0.0929   54.4934   29.8894 H   0  0  0  0  0  0
    1.9182   52.9915   27.5034 H   0  0  0  0  0  0
    5.0178   54.2423   28.3099 H   0  0  0  0  0  0
    5.3984   54.7817   23.5654 H   0  0  0  0  0  0
    2.9046   54.0178   23.1840 H   0  0  0  0  0  0
  1  2  1  0  0  0
  1 22  1  0  0  0
  1 23  1  0  0  0
  1 24  1  0  0  0
  2  6  1  0  0  0
  2  3  2  0  0  0
  3  4  1  0  0  0
  3 25  1  0  0  0
  4  5  2  0  0  0
  4 26  1  0  0  0
  5  6  1  0  0  0
  5  7  1  0  0  0
  7  8  1  0  0  0
  7  9  1  0  0  0
  7 10  1  0  0  0
  9 27  1  0  0  0
  9 28  1  0  0  0
  9 29  1  0  0  0
 10 11  1  0  0  0
 10 30  1  0  0  0
 11 12  2  0  0  0
 11 13  1  0  0  0
 13 14  1  0  0  0
 13 31  1  0  0  0
 14 18  1  0  0  0
 14 15  2  0  0  0
 15 16  1  0  0  0
 15 19  1  0  0  0
 16 17  2  0  0  0
 16 32  1  0  0  0
 17 18  1  0  0  0
 17 33  1  0  0  0
 19 20  2  0  0  0
 19 21  1  0  0  0
M  CHG  1  21  -1
M  END
> <i_i_glide_confnum>
43

> <i_i_glide_lignum>
1665

> <i_i_glide_posenum>
253

> <i_i_glide_rotatable_bonds>
6

> <i_m_Source_File_Index>
5810

> <b_m_subgroup_collapsed>
0

> <r_i_docking_score>
-4.90519

> <r_i_glide_ecoul>
-6.39324

> <r_i_glide_eff_state_penalty>
0

> <r_i_glide_einternal>
6.42127

> <r_i_glide_emodel>
-48.978

> <r_i_glide_energy>
-39.3284

> <r_i_glide_erotb>
1.06182

> <r_i_glide_esite>
0

> <r_i_glide_evdw>
-32.9352

> <r_i_glide_gscore>
-4.90519

> <r_i_glide_hbond>
-0.48

> <r_i_glide_ligand_efficiency>
-0.245259

> <r_i_glide_ligand_efficiency_ln>
-1.22761

> <r_i_glide_ligand_efficiency_sa>
-0.665736

> <r_i_glide_lipo>
-1.41228

> <r_i_glide_metal>
0

> <r_i_glide_rewards>
-1.46897

> <s_i_glide_gridfile>
wee1_glide-grid

> <s_m_Source_File>
wee1_decoys_glide_SP.sdf

> <s_m_Source_Path>
/Users/zhangxujun/Desktop

> <s_m_entry_id>
6085

> <s_m_entry_name>
wee1_decoys_glide_SP.5810

> <s_m_subgroup_title>
wee1_decoys_glide_SP

> <s_m_subgroupid>
wee1_decoys_glide_SP


$$$$
