ZINC63600767_2078
                    3D
 Schrodinger Suite 2024-2.
 53 58  0  0  1  0            999 V2000
    1.0650   52.4964   31.5324 C   0  0  0  0  0  0
    0.5719   53.2641   30.4833 C   0  0  0  0  0  0
    1.4165   53.6332   29.4409 C   0  0  0  0  0  0
    2.7623   53.2277   29.4463 C   0  0  0  0  0  0
    3.2472   52.4675   30.5173 C   0  0  0  0  0  0
    2.3977   52.0967   31.5551 C   0  0  0  0  0  0
    3.6952   53.5886   28.3183 C   0  0  0  0  0  0
    4.8982   53.7377   28.5393 O   0  0  0  0  0  0
    3.1131   53.6800   27.1019 N   0  0  0  0  0  0
    3.7475   53.9300   25.8990 C   0  0  0  0  0  0
    4.9917   54.2913   25.7316 N   0  0  0  0  0  0
    5.2960   54.3924   24.4154 C   0  0  0  0  0  0
    6.5527   54.7586   23.9212 C   0  0  0  0  0  0
    6.7043   54.8996   22.5441 C   0  0  0  0  0  0
    5.6381   54.6683   21.6650 C   0  0  0  0  0  0
    4.4014   54.2162   22.1314 C   0  0  0  0  0  0
    4.2296   54.1061   23.5194 C   0  0  0  0  0  0
    2.7953   53.6976   24.4510 S   0  0  0  0  0  0
    5.7750   54.8961   20.2901 N   0  0  0  0  0  0
    6.3019   56.0083   19.7253 C   0  0  0  0  0  0
    6.7045   56.9756   20.3765 O   0  0  0  0  0  0
    6.3876   56.0651   18.1853 C   0  0  1  0  0  0
    6.4475   57.1089   17.8762 H   0  0  0  0  0  0
    7.5064   55.2147   17.6757 C   0  0  0  0  0  0
    6.9315   54.3011   16.8951 C   0  0  0  0  0  0
    7.7150   53.2906   16.1575 C   0  0  0  0  0  0
    7.1314   52.4992   15.1618 C   0  0  0  0  0  0
    7.9114   51.6120   14.4228 C   0  0  0  0  0  0
    9.2769   51.5059   14.6792 C   0  0  0  0  0  0
    9.8608   52.2867   15.6764 C   0  0  0  0  0  0
    9.0937   53.1813   16.4307 C   0  0  0  0  0  0
    9.7001   54.0055   17.5779 C   0  0  0  0  0  0
    9.0136   55.3847   17.7909 C   0  0  0  0  0  0
    5.5862   54.4376   16.8697 N   0  0  0  0  0  0
    5.2340   55.4425   17.5764 N   0  0  0  0  0  0
    0.4044   52.2134   32.3405 H   0  0  0  0  0  0
   -0.4644   53.5667   30.4775 H   0  0  0  0  0  0
    1.0134   54.2357   28.6395 H   0  0  0  0  0  0
    4.2827   52.1518   30.5476 H   0  0  0  0  0  0
    2.7672   51.5146   32.3871 H   0  0  0  0  0  0
    2.1410   53.4210   27.0442 H   0  0  0  0  0  0
    7.3807   54.9571   24.5828 H   0  0  0  0  0  0
    7.6649   55.2155   22.1582 H   0  0  0  0  0  0
    3.5774   54.0342   21.4546 H   0  0  0  0  0  0
    5.3362   54.2349   19.6643 H   0  0  0  0  0  0
    6.0750   52.5780   14.9501 H   0  0  0  0  0  0
    7.4576   51.0049   13.6543 H   0  0  0  0  0  0
    9.8822   50.8144   14.1108 H   0  0  0  0  0  0
   10.9172   52.1810   15.8781 H   0  0  0  0  0  0
    9.5535   53.4173   18.4816 H   0  0  0  0  0  0
   10.7779   54.1265   17.4609 H   0  0  0  0  0  0
    9.3547   56.0719   17.0160 H   0  0  0  0  0  0
    9.3098   55.8326   18.7395 H   0  0  0  0  0  0
  1  6  2  0  0  0
  1  2  1  0  0  0
  1 36  1  0  0  0
  2  3  2  0  0  0
  2 37  1  0  0  0
  3  4  1  0  0  0
  3 38  1  0  0  0
  4  5  2  0  0  0
  4  7  1  0  0  0
  5  6  1  0  0  0
  5 39  1  0  0  0
  6 40  1  0  0  0
  7  8  2  0  0  0
  7  9  1  0  0  0
  9 10  1  0  0  0
  9 41  1  0  0  0
 10 18  1  0  0  0
 10 11  2  0  0  0
 11 12  1  0  0  0
 12 17  2  0  0  0
 12 13  1  0  0  0
 13 14  2  0  0  0
 13 42  1  0  0  0
 14 15  1  0  0  0
 14 43  1  0  0  0
 15 16  2  0  0  0
 15 19  1  0  0  0
 16 17  1  0  0  0
 16 44  1  0  0  0
 17 18  1  0  0  0
 19 20  1  0  0  0
 19 45  1  0  0  0
 20 21  2  0  0  0
 20 22  1  0  0  0
 22 23  1  0  0  0
 22 35  1  0  0  0
 22 24  1  0  0  0
 24 33  1  0  0  0
 24 25  2  0  0  0
 25 26  1  0  0  0
 25 34  1  0  0  0
 26 31  2  0  0  0
 26 27  1  0  0  0
 27 28  2  0  0  0
 27 46  1  0  0  0
 28 29  1  0  0  0
 28 47  1  0  0  0
 29 30  2  0  0  0
 29 48  1  0  0  0
 30 31  1  0  0  0
 30 49  1  0  0  0
 31 32  1  0  0  0
 32 33  1  0  0  0
 32 50  1  0  0  0
 32 51  1  0  0  0
 33 52  1  0  0  0
 33 53  1  0  0  0
 34 35  2  0  0  0
M  END
> <i_i_glide_confnum>
92

> <i_i_glide_lignum>
2079

> <i_i_glide_posenum>
118

> <i_i_glide_rotatable_bonds>
6

> <i_m_Source_File_Index>
1491

> <b_m_subgroup_collapsed>
0

> <r_i_docking_score>
-6.00446

> <r_i_glide_ecoul>
-6.26156

> <r_i_glide_eff_state_penalty>
0

> <r_i_glide_einternal>
5.0206

> <r_i_glide_emodel>
-71.6874

> <r_i_glide_energy>
-54.898

> <r_i_glide_erotb>
0.558365

> <r_i_glide_esite>
-0.00752202

> <r_i_glide_evdw>
-48.6365

> <r_i_glide_gscore>
-6.00446

> <r_i_glide_hbond>
-0.32

> <r_i_glide_ligand_efficiency>
-0.176602

> <r_i_glide_ligand_efficiency_ln>
-1.32655

> <r_i_glide_ligand_efficiency_sa>
-0.572121

> <r_i_glide_lipo>
-2.55514

> <r_i_glide_metal>
0

> <r_i_glide_rewards>
-0.309109

> <s_i_glide_gridfile>
wee1_glide-grid

> <s_m_Source_File>
wee1_decoys_glide_SP.sdf

> <s_m_Source_Path>
/Users/zhangxujun/Desktop

> <s_m_entry_id>
1766

> <s_m_entry_name>
wee1_decoys_glide_SP.1491

> <s_m_subgroup_title>
wee1_decoys_glide_SP

> <s_m_subgroupid>
wee1_decoys_glide_SP


$$$$
