@<TRIPOS>MOLECULE
ZINC01025752_4604
53   56    1
SMALL
USER_CHARGES


@<TRIPOS>ATOM
      1 C1          0.2958   48.4731   24.7361 C.3       1 UNK         0.0000 
      2 C2         -0.7952   49.4264   24.2181 C.3       1 UNK         0.0000 
      3 N3         -0.8992   50.7051   25.0944 N.4       1 UNK         0.0000 
      4 C4         -1.5036   50.3310   26.4800 C.3       1 UNK         0.0000 
      5 C5         -2.6322   51.3036   26.8573 C.3       1 UNK         0.0000 
      6 C6          0.3079   51.6286   25.1031 C.ar      1 UNK         0.0000 
      7 C7          0.5109   52.4963   26.1767 C.ar      1 UNK         0.0000 
      8 C8          1.6068   53.3524   26.1696 C.ar      1 UNK         0.0000 
      9 C9          2.5639   53.3292   25.1520 C.ar      1 UNK         0.0000 
     10 C10         2.3040   52.4979   24.0505 C.ar      1 UNK         0.0000 
     11 C11         1.1881   51.6612   24.0145 C.ar      1 UNK         0.0000 
     12 C12         3.8234   54.2418   25.2610 C.3       1 UNK         0.0000 
     13 H13         3.3701   55.2320   25.3132 H         1 UNK         0.0000 
     14 C14         4.6823   54.1187   26.5517 C.ar      1 UNK         0.0000 
     15 C15         4.4567   53.9820   27.9344 C.ar      1 UNK         0.0000 
     16 N16         5.7056   53.8933   28.4892 N.pl3     1 UNK         0.0000 
     17 N17         6.7067   53.9706   27.6259 N.2       1 UNK         0.0000 
     18 H18         5.8762   53.8086   29.4802 H         1 UNK         0.0000 
     19 C19         6.0947   54.1006   26.4818 C.ar      1 UNK         0.0000 
     20 O20         6.8539   54.2363   25.3523 O.3       1 UNK         0.0000 
     21 C21         6.1609   54.3173   24.1947 C.2       1 UNK         0.0000 
     22 C22         4.8081   54.3094   24.0572 C.2       1 UNK         0.0000 
     23 C23         4.2836   54.4370   22.7387 C.1       1 UNK         0.0000 
     24 N24         3.9076   54.4963   21.6503 N.1       1 UNK         0.0000 
     25 N25         7.0982   54.4425   23.1991 N.pl3     1 UNK         0.0000 
     26 C26         3.2614   53.9339   28.8131 C.ar      1 UNK         0.0000 
     27 C27         2.7734   52.6990   29.2492 C.ar      1 UNK         0.0000 
     28 C28         1.6284   52.6473   30.0413 C.ar      1 UNK         0.0000 
     29 C29         0.9864   53.8290   30.4071 C.ar      1 UNK         0.0000 
     30 C30         1.4835   55.0645   29.9948 C.ar      1 UNK         0.0000 
     31 C31         2.6262   55.1179   29.2002 C.ar      1 UNK         0.0000 
     32 H32         0.3894   47.6067   24.0846 H         1 UNK         0.0000 
     33 H33         0.0641   48.0993   25.7326 H         1 UNK         0.0000 
     34 H34         1.2717   48.9538   24.7860 H         1 UNK         0.0000 
     35 H35        -0.6234   49.7591   23.1950 H         1 UNK         0.0000 
     36 H36        -1.7841   48.9639   24.2329 H         1 UNK         0.0000 
     37 H37        -1.9111   49.3186   26.4297 H         1 UNK         0.0000 
     38 H38        -0.6814   50.2978   27.1979 H         1 UNK         0.0000 
     39 H39        -3.0035   51.0757   27.8578 H         1 UNK         0.0000 
     40 H40        -2.3198   52.3474   26.8540 H         1 UNK         0.0000 
     41 H41        -3.4757   51.2116   26.1719 H         1 UNK         0.0000 
     42 H42        -0.1603   52.5483   27.0183 H         1 UNK         0.0000 
     43 H43         1.6890   54.0650   26.9666 H         1 UNK         0.0000 
     44 H44         2.9783   52.4534   23.2119 H         1 UNK         0.0000 
     45 H45         1.0598   51.0384   23.1440 H         1 UNK         0.0000 
     46 H46         6.8070   54.5349   22.2376 H         1 UNK         0.0000 
     47 H47         8.0485   54.7285   23.4217 H         1 UNK         0.0000 
     48 H48         3.2622   51.7829   28.9488 H         1 UNK         0.0000 
     49 H49         1.2305   51.6970   30.3653 H         1 UNK         0.0000 
     50 H50         0.1004   53.7842   31.0252 H         1 UNK         0.0000 
     51 H51         0.9864   55.9774   30.2917 H         1 UNK         0.0000 
     52 H52         3.0058   56.0774   28.8802 H         1 UNK         0.0000 
     53 H53        -1.6525   51.2145   24.6525 H         1 UNK         0.0000 
@<TRIPOS>BOND
     1    1    2 1    
     2    1   32 1    
     3    1   33 1    
     4    1   34 1    
     5    2    3 1    
     6    2   35 1    
     7    2   36 1    
     8    3    4 1    
     9    3    6 1    
    10    3   53 1    
    11    4    5 1    
    12    4   37 1    
    13    4   38 1    
    14    5   39 1    
    15    5   40 1    
    16    5   41 1    
    17    6   11 ar   
    18    6    7 ar   
    19    7    8 ar   
    20    7   42 1    
    21    8    9 ar   
    22    8   43 1    
    23    9   10 ar   
    24    9   12 1    
    25   10   11 ar   
    26   10   44 1    
    27   11   45 1    
    28   12   13 1    
    29   12   22 1    
    30   12   14 1    
    31   14   19 ar   
    32   14   15 ar   
    33   15   26 1    
    34   15   16 ar   
    35   16   18 1    
    36   16   17 ar   
    37   17   19 ar   
    38   19   20 1    
    39   20   21 1    
    40   21   22 2    
    41   21   25 1    
    42   22   23 1    
    43   23   24 3    
    44   25   46 1    
    45   25   47 1    
    46   26   31 ar   
    47   26   27 ar   
    48   27   28 ar   
    49   27   48 1    
    50   28   29 ar   
    51   28   49 1    
    52   29   30 ar   
    53   29   50 1    
    54   30   31 ar   
    55   30   51 1    
    56   31   52 1    
@<TRIPOS>SUBSTRUCTURE
     1 UNK         1 GROUP             0       ****    0 ROOT    
