@<TRIPOS>MOLECULE
ZINC36065076_4638
65   69    1
SMALL
USER_CHARGES


@<TRIPOS>ATOM
      1 C1         -0.7022   52.0399   27.3731 C.3       1 UNK         0.0000 
      2 C2          0.3151   52.4415   26.3056 C.2       1 UNK         0.0000 
      3 C3          0.1208   52.4932   24.9488 C.2       1 UNK         0.0000 
      4 C4          1.2742   52.9783   24.0082 C.3       1 UNK         0.0000 
      5 H5          0.9113   53.8617   23.4804 H         1 UNK         0.0000 
      6 N6          2.4355   53.4723   24.8127 N.pl3     1 UNK         0.0000 
      7 C7          3.5773   54.0971   24.3156 C.2       1 UNK         0.0000 
      8 C8          4.4120   54.4842   25.2980 C.2       1 UNK         0.0000 
      9 S9          3.8436   54.0946   26.9123 S.3       1 UNK         0.0000 
     10 C10         2.3890   53.3691   26.2044 C.2       1 UNK         0.0000 
     11 N11         1.4580   52.8725   26.9148 N.2       1 UNK         0.0000 
     12 C12         3.9009   54.2860   22.9064 C.2       1 UNK         0.0000 
     13 C13         5.1071   54.0767   22.3427 C.2       1 UNK         0.0000 
     14 O14         6.2092   53.6963   22.8856 O.co2     1 UNK         0.0000 
     15 N15         5.2935   54.2374   20.9881 N.pl3     1 UNK         0.0000 
     16 C16         6.3663   54.9630   20.3076 C.3       1 UNK         0.0000 
     17 C17         5.9669   56.3903   19.8956 C.3       1 UNK         0.0000 
     18 H18         5.5044   56.8978   20.7404 H         1 UNK         0.0000 
     19 C19         5.2130   56.4866   18.5604 C.3       1 UNK         0.0000 
     20 C20         5.7795   57.7083   17.8582 C.3       1 UNK         0.0000 
     21 C21         6.8877   58.2046   18.7795 C.3       1 UNK         0.0000 
     22 O22         7.1742   57.0947   19.6272 O.3       1 UNK         0.0000 
     23 C23         1.6756   51.9545   22.9261 C.ar      1 UNK         0.0000 
     24 C24         1.9039   50.6069   23.2362 C.ar      1 UNK         0.0000 
     25 C25         2.2503   49.6966   22.2355 C.ar      1 UNK         0.0000 
     26 C26         2.3819   50.1267   20.9163 C.ar      1 UNK         0.0000 
     27 C27         2.1516   51.4625   20.5934 C.ar      1 UNK         0.0000 
     28 C28         1.7801   52.3595   21.5921 C.ar      1 UNK         0.0000 
     29 O29         2.3237   51.9122   19.3088 O.3       1 UNK         0.0000 
     30 C30         1.3208   51.7065   18.3931 C.ar      1 UNK         0.0000 
     31 C31         1.6638   51.1635   17.1558 C.ar      1 UNK         0.0000 
     32 C32         0.6836   50.9494   16.1909 C.ar      1 UNK         0.0000 
     33 C33        -0.6388   51.2940   16.4646 C.ar      1 UNK         0.0000 
     34 C34        -0.9881   51.8507   17.6936 C.ar      1 UNK         0.0000 
     35 C35        -0.0075   52.0591   18.6593 C.ar      1 UNK         0.0000 
     36 C36        -1.1525   52.0818   24.3086 C.2       1 UNK         0.0000 
     37 O37        -2.0328   51.4355   24.8800 O.2       1 UNK         0.0000 
     38 O38        -1.2576   52.4737   23.0167 O.3       1 UNK         0.0000 
     39 C39        -2.3802   52.0937   22.2381 C.3       1 UNK         0.0000 
     40 H40        -1.7044   52.3953   27.1336 H         1 UNK         0.0000 
     41 H41        -0.7360   50.9520   27.4598 H         1 UNK         0.0000 
     42 H42        -0.4674   52.4454   28.3603 H         1 UNK         0.0000 
     43 H43         5.3667   54.9702   25.1597 H         1 UNK         0.0000 
     44 H44         3.1070   54.6279   22.2640 H         1 UNK         0.0000 
     45 H45         4.4748   54.1351   20.4086 H         1 UNK         0.0000 
     46 H46         6.6661   54.3911   19.4283 H         1 UNK         0.0000 
     47 H47         7.2425   54.9949   20.9571 H         1 UNK         0.0000 
     48 H48         4.1321   56.5220   18.6943 H         1 UNK         0.0000 
     49 H49         5.4190   55.6131   17.9393 H         1 UNK         0.0000 
     50 H50         5.0304   58.4798   17.6817 H         1 UNK         0.0000 
     51 H51         6.1864   57.4336   16.8838 H         1 UNK         0.0000 
     52 H52         6.5847   59.0630   19.3812 H         1 UNK         0.0000 
     53 H53         7.7814   58.5128   18.2378 H         1 UNK         0.0000 
     54 H54         1.8088   50.2596   24.2535 H         1 UNK         0.0000 
     55 H55         2.4316   48.6617   22.4821 H         1 UNK         0.0000 
     56 H56         2.6760   49.4326   20.1433 H         1 UNK         0.0000 
     57 H57         1.5921   53.3811   21.3137 H         1 UNK         0.0000 
     58 H58         2.6930   50.8975   16.9534 H         1 UNK         0.0000 
     59 H59         0.9500   50.5180   15.2379 H         1 UNK         0.0000 
     60 H60        -1.4000   51.1297   15.7153 H         1 UNK         0.0000 
     61 H61        -2.0140   52.1202   17.8944 H         1 UNK         0.0000 
     62 H62        -0.2693   52.4952   19.6107 H         1 UNK         0.0000 
     63 H63        -2.2904   52.4962   21.2303 H         1 UNK         0.0000 
     64 H64        -2.4582   51.0076   22.1647 H         1 UNK         0.0000 
     65 H65        -3.2955   52.4782   22.6852 H         1 UNK         0.0000 
@<TRIPOS>BOND
     1    1    2 1    
     2    1   40 1    
     3    1   41 1    
     4    1   42 1    
     5    2   11 1    
     6    2    3 2    
     7    3    4 1    
     8    3   36 1    
     9    4    5 1    
    10    4    6 1    
    11    4   23 1    
    12    6   10 1    
    13    6    7 1    
    14    7    8 2    
    15    7   12 1    
    16    8    9 1    
    17    8   43 1    
    18    9   10 1    
    19   10   11 2    
    20   12   13 2    
    21   12   44 1    
    22   13   14 1    
    23   13   15 1    
    24   15   16 1    
    25   15   45 1    
    26   16   17 1    
    27   16   46 1    
    28   16   47 1    
    29   17   18 1    
    30   17   22 1    
    31   17   19 1    
    32   19   20 1    
    33   19   48 1    
    34   19   49 1    
    35   20   21 1    
    36   20   50 1    
    37   20   51 1    
    38   21   22 1    
    39   21   52 1    
    40   21   53 1    
    41   23   28 ar   
    42   23   24 ar   
    43   24   25 ar   
    44   24   54 1    
    45   25   26 ar   
    46   25   55 1    
    47   26   27 ar   
    48   26   56 1    
    49   27   28 ar   
    50   27   29 1    
    51   28   57 1    
    52   29   30 1    
    53   30   35 ar   
    54   30   31 ar   
    55   31   32 ar   
    56   31   58 1    
    57   32   33 ar   
    58   32   59 1    
    59   33   34 ar   
    60   33   60 1    
    61   34   35 ar   
    62   34   61 1    
    63   35   62 1    
    64   36   37 2    
    65   36   38 1    
    66   38   39 1    
    67   39   63 1    
    68   39   64 1    
    69   39   65 1    
@<TRIPOS>SUBSTRUCTURE
     1 UNK         1 GROUP             0       ****    0 ROOT    
