ZINC53169794_3898
                    3D
 Schrodinger Suite 2024-2.
 27 29  0  0  1  0            999 V2000
    2.2130   53.0801   27.1542 C   0  0  0  0  0  0
    1.1316   52.7826   27.9756 C   0  0  0  0  0  0
    0.9223   53.5311   29.1284 C   0  0  0  0  0  0
    1.7536   54.6028   29.4430 C   0  0  0  0  0  0
    2.8507   54.8824   28.6321 C   0  0  0  0  0  0
    3.1079   54.0951   27.5012 C   0  0  0  0  0  0
    4.2655   54.3134   26.7054 N   0  0  0  0  0  0
    4.3737   54.2915   25.3158 C   0  0  0  0  0  0
    5.7651   54.4608   25.0677 C   0  0  0  0  0  0
    6.2589   54.4234   23.7568 C   0  0  0  0  0  0
    5.3543   54.2137   22.7184 C   0  0  0  0  0  0
    3.9893   54.0851   22.9627 C   0  0  0  0  0  0
    3.4631   54.1370   24.2560 C   0  0  0  0  0  0
    2.1266   54.0493   24.4478 F   0  0  0  0  0  0
    3.1547   53.9010   21.9168 F   0  0  0  0  0  0
    6.4643   54.6343   26.2250 N   0  0  0  0  0  0
    5.5684   54.4972   27.1617 C   0  0  0  0  0  0
    5.9046   54.4968   28.4815 N   0  0  0  0  0  0
   -0.4953   53.0580   30.2972 Br  0  0  0  0  0  0
    2.3676   52.4968   26.2625 H   0  0  0  0  0  0
    0.4673   51.9654   27.7298 H   0  0  0  0  0  0
    1.5556   55.1968   30.3234 H   0  0  0  0  0  0
    3.5034   55.6966   28.9028 H   0  0  0  0  0  0
    7.3130   54.5302   23.5564 H   0  0  0  0  0  0
    5.7102   54.1679   21.6990 H   0  0  0  0  0  0
    6.7355   54.9840   28.8096 H   0  0  0  0  0  0
    5.2737   54.1486   29.1865 H   0  0  0  0  0  0
  1  6  2  0  0  0
  1  2  1  0  0  0
  1 20  1  0  0  0
  2  3  2  0  0  0
  2 21  1  0  0  0
  3  4  1  0  0  0
  3 19  1  0  0  0
  4  5  2  0  0  0
  4 22  1  0  0  0
  5  6  1  0  0  0
  5 23  1  0  0  0
  6  7  1  0  0  0
  7 17  1  0  0  0
  7  8  1  0  0  0
  8 13  2  0  0  0
  8  9  1  0  0  0
  9 10  2  0  0  0
  9 16  1  0  0  0
 10 11  1  0  0  0
 10 24  1  0  0  0
 11 12  2  0  0  0
 11 25  1  0  0  0
 12 13  1  0  0  0
 12 15  1  0  0  0
 13 14  1  0  0  0
 16 17  2  0  0  0
 17 18  1  0  0  0
 18 26  1  0  0  0
 18 27  1  0  0  0
M  END
> <i_i_glide_confnum>
1

> <i_i_glide_lignum>
3899

> <i_i_glide_posenum>
291

> <i_i_glide_rotatable_bonds>
1

> <i_m_Source_File_Index>
1188

> <b_m_subgroup_collapsed>
0

> <r_i_docking_score>
-8.25693

> <r_i_glide_ecoul>
-3.38493

> <r_i_glide_eff_state_penalty>
0

> <r_i_glide_einternal>
1.10844

> <r_i_glide_emodel>
-53.2634

> <r_i_glide_energy>
-36.8598

> <r_i_glide_erotb>
0.178223

> <r_i_glide_esite>
0

> <r_i_glide_evdw>
-33.4749

> <r_i_glide_gscore>
-8.25693

> <r_i_glide_hbond>
-0.32

> <r_i_glide_ligand_efficiency>
-0.434575

> <r_i_glide_ligand_efficiency_ln>
-2.09331

> <r_i_glide_ligand_efficiency_sa>
-1.15962

> <r_i_glide_lipo>
-2.76491

> <r_i_glide_metal>
0

> <r_i_glide_rewards>
-3.16876

> <s_i_glide_gridfile>
wee1_glide-grid

> <s_m_Source_File>
wee1_decoys_glide_SP.sdf

> <s_m_Source_Path>
/Users/zhangxujun/Desktop

> <s_m_entry_id>
1463

> <s_m_entry_name>
wee1_decoys_glide_SP.1188

> <s_m_subgroup_title>
wee1_decoys_glide_SP

> <s_m_subgroupid>
wee1_decoys_glide_SP


$$$$
