@<TRIPOS>MOLECULE
ZINC31991958_2873
66   68    1
SMALL
USER_CHARGES


@<TRIPOS>ATOM
      1 C1          7.7638   58.6393   17.8652 C.3       1 UNK         0.0000 
      2 C2          6.6241   57.8217   17.2791 C.ar      1 UNK         0.0000 
      3 C3          5.5927   58.4961   16.6202 C.ar      1 UNK         0.0000 
      4 C4          4.4971   57.8063   16.1083 C.ar      1 UNK         0.0000 
      5 C5          4.4186   56.4098   16.2116 C.ar      1 UNK         0.0000 
      6 C6          5.4806   55.7377   16.8341 C.ar      1 UNK         0.0000 
      7 C7          6.5634   56.4216   17.3939 C.ar      1 UNK         0.0000 
      8 S8          7.8152   55.4641   18.2747 S.o2      1 UNK         0.0000 
      9 O9          7.5507   54.0374   18.0540 O.2       1 UNK         0.0000 
     10 O10         9.1286   56.0321   17.9575 O.2       1 UNK         0.0000 
     11 N11         7.5349   55.7973   19.9990 N.pl3     1 UNK         0.0000 
     12 C12         6.5552   55.1590   20.7739 C.ar      1 UNK         0.0000 
     13 C13         5.4556   54.5072   20.2040 C.ar      1 UNK         0.0000 
     14 C14         4.5320   53.8416   21.0003 C.ar      1 UNK         0.0000 
     15 C15         4.6872   53.8306   22.3816 C.ar      1 UNK         0.0000 
     16 C16         5.7672   54.4967   22.9920 C.ar      1 UNK         0.0000 
     17 C17         6.6989   55.1522   22.1648 C.ar      1 UNK         0.0000 
     18 C18         5.9265   54.5368   24.5000 C.2       1 UNK         0.0000 
     19 O19         6.9674   54.9706   24.9980 O.2       1 UNK         0.0000 
     20 N20         4.8501   54.1138   25.2081 N.am      1 UNK         0.0000 
     21 C21         4.6073   54.0742   26.5992 C.ar      1 UNK         0.0000 
     22 C22         5.5403   54.5561   27.5261 C.ar      1 UNK         0.0000 
     23 C23         5.2802   54.4966   28.8816 C.ar      1 UNK         0.0000 
     24 C24         4.1104   53.9215   29.3441 C.ar      1 UNK         0.0000 
     25 C25         3.1468   53.4218   28.4620 C.ar      1 UNK         0.0000 
     26 C26         3.3839   53.5207   27.0614 C.ar      1 UNK         0.0000 
     27 C27         2.3645   52.9848   26.0393 C.3       1 UNK         0.0000 
     28 C28         1.9374   52.7660   29.0985 C.2       1 UNK         0.0000 
     29 O29         2.0746   52.0969   30.1254 O.2       1 UNK         0.0000 
     30 N30         0.7398   52.9896   28.5332 N.am      1 UNK         0.0000 
     31 C31        -0.4984   52.3703   28.9955 C.3       1 UNK         0.0000 
     32 C32         3.2060   55.6009   15.6904 C.3       1 UNK         0.0000 
     33 C33         2.0759   56.4936   15.1120 C.3       1 UNK         0.0000 
     34 C34         2.5900   54.7764   16.8515 C.3       1 UNK         0.0000 
     35 C35         3.6668   54.6401   14.5680 C.3       1 UNK         0.0000 
     36 H36         7.5117   59.6972   17.9146 H         1 UNK         0.0000 
     37 H37         7.9880   58.3218   18.8817 H         1 UNK         0.0000 
     38 H38         8.6666   58.5216   17.2634 H         1 UNK         0.0000 
     39 H39         5.6206   59.5722   16.5087 H         1 UNK         0.0000 
     40 H40         3.7207   58.3864   15.6337 H         1 UNK         0.0000 
     41 H41         5.4484   54.6601   16.8994 H         1 UNK         0.0000 
     42 H42         8.2663   56.3056   20.4690 H         1 UNK         0.0000 
     43 H43         5.3061   54.4856   19.1416 H         1 UNK         0.0000 
     44 H44         3.6934   53.3356   20.5418 H         1 UNK         0.0000 
     45 H45         3.9445   53.2998   22.9561 H         1 UNK         0.0000 
     46 H46         7.5444   55.6606   22.6071 H         1 UNK         0.0000 
     47 H47         4.0770   53.7854   24.6552 H         1 UNK         0.0000 
     48 H48         6.4770   55.0055   27.2448 H         1 UNK         0.0000 
     49 H49         5.9918   54.8960   29.5853 H         1 UNK         0.0000 
     50 H50         3.9662   53.8644   30.4133 H         1 UNK         0.0000 
     51 H51         1.8533   52.0968   26.4078 H         1 UNK         0.0000 
     52 H52         1.6188   53.7461   25.8057 H         1 UNK         0.0000 
     53 H53         2.8218   52.6485   25.1093 H         1 UNK         0.0000 
     54 H54         0.6867   53.5988   27.7318 H         1 UNK         0.0000 
     55 H55        -1.2890   52.4964   28.2538 H         1 UNK         0.0000 
     56 H56        -0.3672   51.3005   29.1630 H         1 UNK         0.0000 
     57 H57        -0.8270   52.8200   29.9307 H         1 UNK         0.0000 
     58 H58         1.2303   55.8958   14.7678 H         1 UNK         0.0000 
     59 H59         2.4161   57.0759   14.2534 H         1 UNK         0.0000 
     60 H60         1.6891   57.1898   15.8589 H         1 UNK         0.0000 
     61 H61         3.2865   54.0380   17.2536 H         1 UNK         0.0000 
     62 H62         2.2858   55.4202   17.6809 H         1 UNK         0.0000 
     63 H63         1.7043   54.2279   16.5268 H         1 UNK         0.0000 
     64 H64         4.4084   53.9203   14.9199 H         1 UNK         0.0000 
     65 H65         2.8341   54.0630   14.1636 H         1 UNK         0.0000 
     66 H66         4.1140   55.1885   13.7366 H         1 UNK         0.0000 
@<TRIPOS>BOND
     1    1    2 1    
     2    1   36 1    
     3    1   37 1    
     4    1   38 1    
     5    2    7 ar   
     6    2    3 ar   
     7    3    4 ar   
     8    3   39 1    
     9    4    5 ar   
    10    4   40 1    
    11    5    6 ar   
    12    5   32 1    
    13    6    7 ar   
    14    6   41 1    
    15    7    8 1    
    16    8    9 2    
    17    8   10 2    
    18    8   11 1    
    19   11   12 1    
    20   11   42 1    
    21   12   17 ar   
    22   12   13 ar   
    23   13   14 ar   
    24   13   43 1    
    25   14   15 ar   
    26   14   44 1    
    27   15   16 ar   
    28   15   45 1    
    29   16   17 ar   
    30   16   18 1    
    31   17   46 1    
    32   18   19 2    
    33   18   20 am   BACKBONE|DICT|INTERRES
    34   20   21 1    
    35   20   47 1    
    36   21   26 ar   
    37   21   22 ar   
    38   22   23 ar   
    39   22   48 1    
    40   23   24 ar   
    41   23   49 1    
    42   24   25 ar   
    43   24   50 1    
    44   25   26 ar   
    45   25   28 1    
    46   26   27 1    
    47   27   51 1    
    48   27   52 1    
    49   27   53 1    
    50   28   29 2    
    51   28   30 am   BACKBONE|DICT|INTERRES
    52   30   31 1    
    53   30   54 1    
    54   31   55 1    
    55   31   56 1    
    56   31   57 1    
    57   32   33 1    
    58   32   34 1    
    59   32   35 1    
    60   33   58 1    
    61   33   59 1    
    62   33   60 1    
    63   34   61 1    
    64   34   62 1    
    65   34   63 1    
    66   35   64 1    
    67   35   65 1    
    68   35   66 1    
@<TRIPOS>SUBSTRUCTURE
     1 UNK         1 GROUP             0       ****    0 ROOT    
