@<TRIPOS>MOLECULE
ZINC00659929_3807
39   42    1
SMALL
USER_CHARGES


@<TRIPOS>ATOM
      1 C1         -1.0282   48.7258   25.6817 C.3       1 UNK         0.0000 
      2 C2         -0.3143   49.4538   24.5577 C.ar      1 UNK         0.0000 
      3 C3         -0.3328   48.8974   23.2737 C.ar      1 UNK         0.0000 
      4 C4          0.3450   49.5306   22.2324 C.ar      1 UNK         0.0000 
      5 N5          1.0355   50.6895   22.3726 N.ar      1 UNK         0.0000 
      6 C6          1.0479   51.2179   23.5972 C.ar      1 UNK         0.0000 
      7 C7          0.3964   50.6628   24.7409 C.ar      1 UNK         0.0000 
      8 C8          0.6185   51.4867   25.8876 C.2       1 UNK         0.0000 
      9 C9          1.4558   52.5642   25.6498 C.2       1 UNK         0.0000 
     10 S10         1.9037   52.7050   23.9624 S.3       1 UNK         0.0000 
     11 C11         1.8797   53.5246   26.7580 C.3       1 UNK         0.0000 
     12 H12         1.5050   54.4966   26.4818 H         1 UNK         0.0000 
     13 C13         1.1084   53.1578   28.0396 C.2       1 UNK         0.0000 
     14 C14         0.2868   52.0826   28.1055 C.2       1 UNK         0.0000 
     15 O15         0.0523   51.1843   27.1065 O.3       1 UNK         0.0000 
     16 N16        -0.4588   51.6967   29.1861 N.pl3     1 UNK         0.0000 
     17 C17         1.2281   54.0314   29.1635 C.1       1 UNK         0.0000 
     18 N18         1.3483   54.7314   30.0776 N.1       1 UNK         0.0000 
     19 C19         3.3919   53.7685   26.8767 C.ar      1 UNK         0.0000 
     20 C20         4.1278   53.2969   27.9694 C.ar      1 UNK         0.0000 
     21 C21         5.4956   53.5440   28.0513 C.ar      1 UNK         0.0000 
     22 C22         6.1327   54.2629   27.0451 C.ar      1 UNK         0.0000 
     23 C23         5.4146   54.7422   25.9546 C.ar      1 UNK         0.0000 
     24 C24         4.0462   54.4981   25.8762 C.ar      1 UNK         0.0000 
     25 F25         7.4596   54.4964   27.1300 F         1 UNK         0.0000 
     26 C26         0.3636   48.9372   20.8373 C.3       1 UNK         0.0000 
     27 H27        -1.4784   47.7824   25.3651 H         1 UNK         0.0000 
     28 H28        -0.3169   48.4969   26.4766 H         1 UNK         0.0000 
     29 H29        -1.8102   49.3542   26.1114 H         1 UNK         0.0000 
     30 H30        -0.8604   47.9727   23.0920 H         1 UNK         0.0000 
     31 H31        -0.4140   52.1947   30.0619 H         1 UNK         0.0000 
     32 H32        -0.8991   50.7847   29.1908 H         1 UNK         0.0000 
     33 H33         3.6548   52.7225   28.7504 H         1 UNK         0.0000 
     34 H34         6.0717   53.1743   28.8817 H         1 UNK         0.0000 
     35 H35         5.9150   55.3006   25.1779 H         1 UNK         0.0000 
     36 H36         3.4947   54.8841   25.0319 H         1 UNK         0.0000 
     37 H37        -0.0991   47.9502   20.8147 H         1 UNK         0.0000 
     38 H38        -0.1758   49.5833   20.1450 H         1 UNK         0.0000 
     39 H39         1.3872   48.8321   20.4767 H         1 UNK         0.0000 
@<TRIPOS>BOND
     1    1    2 1    
     2    1   27 1    
     3    1   28 1    
     4    1   29 1    
     5    2    7 ar   
     6    2    3 ar   
     7    3    4 ar   
     8    3   30 1    
     9    4    5 ar   
    10    4   26 1    
    11    5    6 ar   
    12    6   10 1    
    13    6    7 ar   
    14    7    8 1    
    15    8   15 1    
    16    8    9 2    
    17    9   10 1    
    18    9   11 1    
    19   11   12 1    
    20   11   13 1    
    21   11   19 1    
    22   13   14 2    
    23   13   17 1    
    24   14   15 1    
    25   14   16 1    
    26   16   31 1    
    27   16   32 1    
    28   17   18 3    
    29   19   24 ar   
    30   19   20 ar   
    31   20   21 ar   
    32   20   33 1    
    33   21   22 ar   
    34   21   34 1    
    35   22   23 ar   
    36   22   25 1    
    37   23   24 ar   
    38   23   35 1    
    39   24   36 1    
    40   26   37 1    
    41   26   38 1    
    42   26   39 1    
@<TRIPOS>SUBSTRUCTURE
     1 UNK         1 GROUP             0       ****    0 ROOT    
