ZINC37464350_1632
                    3D
 Schrodinger Suite 2024-2.
 33 34  0  0  1  0            999 V2000
    0.8871   51.7534   22.0098 C   0  0  0  0  0  0
    0.9283   52.1646   23.5003 C   0  0  1  0  0  0
    1.0366   51.2459   24.0828 H   0  0  0  0  0  0
    2.1396   53.0260   23.9080 C   0  0  0  0  0  0
    3.1227   53.4138   22.9833 C   0  0  0  0  0  0
    4.2613   54.0970   23.4067 C   0  0  0  0  0  0
    4.4169   54.4247   24.7509 C   0  0  0  0  0  0
    3.4321   54.0845   25.6743 C   0  0  0  0  0  0
    2.3044   53.3785   25.2551 C   0  0  0  0  0  0
    5.8454   55.2409   25.2813 Cl  0  0  0  0  0  0
   -0.3281   52.8225   23.9552 N   0  0  0  0  0  0
   -1.9358   52.2078   23.5646 S   0  0  0  0  0  0
   -2.0955   52.0971   22.1095 O   0  0  0  0  0  0
   -2.8955   52.9556   24.3835 O   0  0  0  0  0  0
   -1.8658   50.5263   24.2451 C   0  0  0  0  0  0
   -2.0334   49.3267   23.5354 C   0  0  0  0  0  0
   -1.9859   48.2646   24.4335 C   0  0  0  0  0  0
   -1.7556   48.7975   25.6813 N   0  0  0  0  0  0
   -1.6820   48.2753   26.5573 H   0  0  0  0  0  0
   -1.6716   50.1644   25.5750 C   0  0  0  0  0  0
   -2.1424   46.8145   24.2706 C   0  0  0  0  0  0
   -2.2409   46.3816   23.1012 O   0  0  0  0  0  0
   -2.1832   46.0990   25.2960 O   0  5  0  0  0  0
    1.8232   51.2903   21.6966 H   0  0  0  0  0  0
    0.1225   51.0026   21.8200 H   0  0  0  0  0  0
    0.6959   52.6131   21.3631 H   0  0  0  0  0  0
    3.0355   53.1785   21.9346 H   0  0  0  0  0  0
    5.0223   54.3696   22.6895 H   0  0  0  0  0  0
    3.5543   54.3350   26.7194 H   0  0  0  0  0  0
    1.5708   53.0822   25.9902 H   0  0  0  0  0  0
   -0.2669   53.2290   24.8897 H   0  0  0  0  0  0
   -2.2082   49.2419   22.4718 H   0  0  0  0  0  0
   -1.5159   50.7575   26.4626 H   0  0  0  0  0  0
  1  2  1  0  0  0
  1 24  1  0  0  0
  1 25  1  0  0  0
  1 26  1  0  0  0
  2  3  1  0  0  0
  2  4  1  0  0  0
  2 11  1  0  0  0
  4  9  2  0  0  0
  4  5  1  0  0  0
  5  6  2  0  0  0
  5 27  1  0  0  0
  6  7  1  0  0  0
  6 28  1  0  0  0
  7  8  2  0  0  0
  7 10  1  0  0  0
  8  9  1  0  0  0
  8 29  1  0  0  0
  9 30  1  0  0  0
 11 12  1  0  0  0
 11 31  1  0  0  0
 12 13  2  0  0  0
 12 14  2  0  0  0
 12 15  1  0  0  0
 15 20  2  0  0  0
 15 16  1  0  0  0
 16 17  2  0  0  0
 16 32  1  0  0  0
 17 18  1  0  0  0
 17 21  1  0  0  0
 18 19  1  0  0  0
 18 20  1  0  0  0
 20 33  1  0  0  0
 21 22  2  0  0  0
 21 23  1  0  0  0
M  CHG  1  23  -1
M  END
> <i_i_glide_confnum>
2

> <i_i_glide_lignum>
1633

> <i_i_glide_posenum>
316

> <i_i_glide_rotatable_bonds>
5

> <i_m_Source_File_Index>
945

> <b_m_subgroup_collapsed>
0

> <r_i_docking_score>
-4.44327

> <r_i_glide_ecoul>
-9.02499

> <r_i_glide_eff_state_penalty>
0

> <r_i_glide_einternal>
2.57952

> <r_i_glide_emodel>
-43.9124

> <r_i_glide_energy>
-35.3476

> <r_i_glide_erotb>
0.52423

> <r_i_glide_esite>
-0.165414

> <r_i_glide_evdw>
-26.3226

> <r_i_glide_gscore>
-4.44327

> <r_i_glide_hbond>
-0.186693

> <r_i_glide_ligand_efficiency>
-0.211584

> <r_i_glide_ligand_efficiency_ln>
-1.09859

> <r_i_glide_ligand_efficiency_sa>
-0.583745

> <r_i_glide_lipo>
-1.64926

> <r_i_glide_metal>
0

> <r_i_glide_rewards>
-0.296259

> <s_i_glide_gridfile>
wee1_glide-grid

> <s_m_Source_File>
wee1_decoys_glide_SP.sdf

> <s_m_Source_Path>
/Users/zhangxujun/Desktop

> <s_m_entry_id>
1220

> <s_m_entry_name>
wee1_decoys_glide_SP.945

> <s_m_subgroup_title>
wee1_decoys_glide_SP

> <s_m_subgroupid>
wee1_decoys_glide_SP


$$$$
