@<TRIPOS>MOLECULE
ZINC22968282_481
55   58    1
SMALL
USER_CHARGES


@<TRIPOS>ATOM
      1 C1          6.4512   54.3979   27.2840 C.ar      1 UNK         0.0000 
      2 C2          5.3204   54.0914   28.0420 C.ar      1 UNK         0.0000 
      3 C3          4.0736   53.9175   27.4260 C.ar      1 UNK         0.0000 
      4 C4          3.9835   54.0962   26.0371 C.ar      1 UNK         0.0000 
      5 C5          5.1115   54.3837   25.2689 C.ar      1 UNK         0.0000 
      6 C6          6.3530   54.5413   25.9006 C.ar      1 UNK         0.0000 
      7 N7          4.8980   54.4922   23.8867 N.am      1 UNK         0.0000 
      8 C8          5.7803   54.3572   22.8766 C.2       1 UNK         0.0000 
      9 O9          6.9739   54.0961   23.0268 O.2       1 UNK         0.0000 
     10 C10         5.1771   54.5115   21.4637 C.3       1 UNK         0.0000 
     11 H11         4.1548   54.8912   21.5386 H         1 UNK         0.0000 
     12 C12         6.0326   55.3761   20.5123 C.3       1 UNK         0.0000 
     13 C13         6.1738   54.5266   19.2603 C.3       1 UNK         0.0000 
     14 C14         5.1450   53.4158   19.4330 C.3       1 UNK         0.0000 
     15 O15         5.1045   53.2289   20.8420 O.3       1 UNK         0.0000 
     16 C16         2.8596   53.5423   28.2429 C.2       1 UNK         0.0000 
     17 O17         2.7743   53.8909   29.4225 O.2       1 UNK         0.0000 
     18 N18         1.9398   52.8062   27.5750 N.am      1 UNK         0.0000 
     19 C19         0.6773   52.3310   27.9822 C.ar      1 UNK         0.0000 
     20 C20         0.3455   52.1907   29.3390 C.ar      1 UNK         0.0000 
     21 C21        -0.8952   51.6967   29.7207 C.ar      1 UNK         0.0000 
     22 C22        -1.8368   51.3421   28.7602 C.ar      1 UNK         0.0000 
     23 C23        -1.5216   51.4726   27.4044 C.ar      1 UNK         0.0000 
     24 C24        -0.2648   51.9450   26.9966 C.ar      1 UNK         0.0000 
     25 C25         0.0231   52.0110   25.4857 C.3       1 UNK         0.0000 
     26 F26         0.7369   53.0825   25.1392 F         1 UNK         0.0000 
     27 F27         0.7044   50.9245   25.1358 F         1 UNK         0.0000 
     28 F28        -1.0982   52.0424   24.7625 F         1 UNK         0.0000 
     29 N29        -3.0450   50.8277   29.2327 N.am      1 UNK         0.0000 
     30 C30        -4.2667   50.8864   28.6740 C.2       1 UNK         0.0000 
     31 O31        -4.5670   51.5526   27.6818 O.2       1 UNK         0.0000 
     32 C32        -5.2378   50.1041   29.3898 C.2       1 UNK         0.0000 
     33 C33        -5.1042   48.9761   30.2011 C.2       1 UNK         0.0000 
     34 C34        -6.3928   48.5902   30.5759 C.2       1 UNK         0.0000 
     35 C35        -7.2576   49.4696   29.9466 C.2       1 UNK         0.0000 
     36 O36        -6.5595   50.3727   29.2092 O.3       1 UNK         0.0000 
     37 H37         7.4058   54.5204   27.7748 H         1 UNK         0.0000 
     38 H38         5.4254   53.9776   29.1125 H         1 UNK         0.0000 
     39 H39         3.0327   53.9929   25.5355 H         1 UNK         0.0000 
     40 H40         7.2425   54.7743   25.3358 H         1 UNK         0.0000 
     41 H41         3.9327   54.5913   23.6155 H         1 UNK         0.0000 
     42 H42         5.5048   56.2927   20.2416 H         1 UNK         0.0000 
     43 H43         7.0289   55.6202   20.8901 H         1 UNK         0.0000 
     44 H44         6.0136   55.0969   18.3428 H         1 UNK         0.0000 
     45 H45         7.1776   54.0983   19.2076 H         1 UNK         0.0000 
     46 H46         4.1498   53.6716   19.0632 H         1 UNK         0.0000 
     47 H47         5.4317   52.4968   18.9241 H         1 UNK         0.0000 
     48 H48         2.1542   52.6251   26.6074 H         1 UNK         0.0000 
     49 H49         1.0405   52.4322   30.1262 H         1 UNK         0.0000 
     50 H50        -1.1134   51.5814   30.7752 H         1 UNK         0.0000 
     51 H51        -2.2451   51.1564   26.6670 H         1 UNK         0.0000 
     52 H52        -2.9436   50.2524   30.0598 H         1 UNK         0.0000 
     53 H53        -4.1754   48.4967   30.4845 H         1 UNK         0.0000 
     54 H54        -6.6635   47.7592   31.2117 H         1 UNK         0.0000 
     55 H55        -8.3339   49.5632   29.9209 H         1 UNK         0.0000 
@<TRIPOS>BOND
     1    1    6 ar   
     2    1    2 ar   
     3    1   37 1    
     4    2    3 ar   
     5    2   38 1    
     6    3    4 ar   
     7    3   16 1    
     8    4    5 ar   
     9    4   39 1    
    10    5    6 ar   
    11    5    7 1    
    12    6   40 1    
    13    7    8 am   BACKBONE|DICT|INTERRES
    14    7   41 1    
    15    8    9 2    
    16    8   10 1    
    17   10   11 1    
    18   10   15 1    
    19   10   12 1    
    20   12   13 1    
    21   12   42 1    
    22   12   43 1    
    23   13   14 1    
    24   13   44 1    
    25   13   45 1    
    26   14   15 1    
    27   14   46 1    
    28   14   47 1    
    29   16   17 2    
    30   16   18 am   BACKBONE|DICT|INTERRES
    31   18   19 1    
    32   18   48 1    
    33   19   24 ar   
    34   19   20 ar   
    35   20   21 ar   
    36   20   49 1    
    37   21   22 ar   
    38   21   50 1    
    39   22   23 ar   
    40   22   29 1    
    41   23   24 ar   
    42   23   51 1    
    43   24   25 1    
    44   25   26 1    
    45   25   27 1    
    46   25   28 1    
    47   29   30 am   BACKBONE|DICT|INTERRES
    48   29   52 1    
    49   30   31 2    
    50   30   32 1    
    51   32   36 1    
    52   32   33 2    
    53   33   34 1    
    54   33   53 1    
    55   34   35 2    
    56   34   54 1    
    57   35   36 1    
    58   35   55 1    
@<TRIPOS>SUBSTRUCTURE
     1 UNK         1 GROUP             0       ****    0 ROOT    
