ZINC39684593_286
                    3D
 Schrodinger Suite 2024-2.
 71 74  0  0  1  0            999 V2000
    2.3112   52.2835   28.5849 C   0  0  0  0  0  0
    2.7476   53.4855   27.7071 C   0  0  1  0  0  0
    2.0679   54.2993   27.9724 H   0  0  0  0  0  0
    4.2064   54.0286   27.9924 C   0  0  0  0  0  0
    4.7491   54.8969   26.8196 C   0  0  0  0  0  0
    5.2434   52.8978   28.1766 C   0  0  0  0  0  0
    4.1976   54.8824   29.2820 C   0  0  0  0  0  0
    2.4865   53.3054   26.2747 N   0  0  0  0  0  0
    1.3717   52.8967   25.6384 C   0  0  0  0  0  0
    0.3755   52.4967   26.2388 O   0  0  0  0  0  0
    1.3058   53.0341   24.0856 C   0  0  1  0  0  0
    0.6752   53.9032   23.8927 H   0  0  0  0  0  0
    2.7040   53.3768   23.5118 C   0  0  0  0  0  0
    2.7515   52.7175   22.2109 N   0  0  0  0  0  0
    1.5235   51.9642   21.9415 C   0  0  0  0  0  0
    0.8134   51.7780   23.3057 C   0  0  0  0  0  0
    1.2262   50.4234   23.9642 C   0  0  0  0  0  0
    0.8266   49.1934   23.1289 C   0  0  0  0  0  0
   -0.6964   49.2399   22.8752 N   0  3  0  0  0  0
   -1.2004   50.5768   22.2866 C   0  0  0  0  0  0
   -0.7320   51.7153   23.2149 C   0  0  0  0  0  0
    3.7225   52.8715   21.2658 C   0  0  0  0  0  0
    3.6386   52.3038   20.1778 O   0  0  0  0  0  0
    4.9222   53.7719   21.5436 C   0  0  0  0  0  0
    5.6227   53.6635   22.7594 C   0  0  0  0  0  0
    6.7043   54.4927   23.0431 C   0  0  0  0  0  0
    7.0957   55.4138   22.0819 C   0  0  0  0  0  0
    6.4784   55.5219   20.8846 N   0  0  0  0  0  0
    5.4263   54.7050   20.5970 C   0  0  0  0  0  0
    4.7044   54.8965   18.9645 S   0  0  0  0  0  0
    5.7023   56.0990   18.1226 C   0  0  0  0  0  0
    5.1122   57.2841   17.6817 C   0  0  0  0  0  0
    5.8886   58.2496   17.0447 C   0  0  0  0  0  0
    7.2455   58.0139   16.8360 C   0  0  0  0  0  0
    7.8325   56.8176   17.2482 C   0  0  0  0  0  0
    7.0574   55.8537   17.8881 C   0  0  0  0  0  0
    2.6566   52.3962   29.6114 H   0  0  0  0  0  0
    1.2257   52.2053   28.6509 H   0  0  0  0  0  0
    2.7038   51.3392   28.2103 H   0  0  0  0  0  0
    4.0290   55.6413   26.4815 H   0  0  0  0  0  0
    5.6710   55.4124   27.0940 H   0  0  0  0  0  0
    4.9916   54.2949   25.9424 H   0  0  0  0  0  0
    4.9511   52.1552   28.9189 H   0  0  0  0  0  0
    5.4127   52.3924   27.2309 H   0  0  0  0  0  0
    6.2117   53.2925   28.4896 H   0  0  0  0  0  0
    3.9060   54.2934   30.1497 H   0  0  0  0  0  0
    5.1841   55.2969   29.4972 H   0  0  0  0  0  0
    3.5008   55.7172   29.2099 H   0  0  0  0  0  0
    3.2410   53.6290   25.6919 H   0  0  0  0  0  0
    2.8347   54.4583   23.4292 H   0  0  0  0  0  0
    3.4742   52.8968   24.1069 H   0  0  0  0  0  0
    1.6432   51.0557   21.3532 H   0  0  0  0  0  0
    0.9096   52.6234   21.3249 H   0  0  0  0  0  0
    0.8233   50.3126   24.9724 H   0  0  0  0  0  0
    2.3056   50.3960   24.0814 H   0  0  0  0  0  0
    1.0098   48.2720   23.6820 H   0  0  0  0  0  0
    1.3221   49.1285   22.1593 H   0  0  0  0  0  0
   -1.1638   49.0862   23.7596 H   0  0  0  0  0  0
   -2.2874   50.4986   22.2398 H   0  0  0  0  0  0
   -0.8036   50.6501   21.2723 H   0  0  0  0  0  0
   -1.1043   52.6507   22.7957 H   0  0  0  0  0  0
   -1.1899   51.6441   24.2042 H   0  0  0  0  0  0
    5.3780   52.9031   23.4826 H   0  0  0  0  0  0
    7.2434   54.4051   23.9754 H   0  0  0  0  0  0
    7.9343   56.0717   22.2576 H   0  0  0  0  0  0
    4.0589   57.4627   17.8420 H   0  0  0  0  0  0
    5.4447   59.1828   16.7230 H   0  0  0  0  0  0
    7.8444   58.7686   16.3478 H   0  0  0  0  0  0
    8.8838   56.6405   17.0758 H   0  0  0  0  0  0
    7.5086   54.9275   18.2138 H   0  0  0  0  0  0
   -0.9678   48.4752   22.2715 H   0  0  0  0  0  0
  1  2  1  0  0  0
  1 37  1  0  0  0
  1 38  1  0  0  0
  1 39  1  0  0  0
  2  3  1  0  0  0
  2  4  1  0  0  0
  2  8  1  0  0  0
  4  5  1  0  0  0
  4  6  1  0  0  0
  4  7  1  0  0  0
  5 40  1  0  0  0
  5 41  1  0  0  0
  5 42  1  0  0  0
  6 43  1  0  0  0
  6 44  1  0  0  0
  6 45  1  0  0  0
  7 46  1  0  0  0
  7 47  1  0  0  0
  7 48  1  0  0  0
  8  9  1  0  0  0
  8 49  1  0  0  0
  9 10  2  0  0  0
  9 11  1  0  0  0
 11 12  1  0  0  0
 11 16  1  0  0  0
 11 13  1  0  0  0
 13 14  1  0  0  0
 13 50  1  0  0  0
 13 51  1  0  0  0
 14 15  1  0  0  0
 14 22  1  0  0  0
 15 16  1  0  0  0
 15 52  1  0  0  0
 15 53  1  0  0  0
 16 21  1  0  0  0
 16 17  1  0  0  0
 17 18  1  0  0  0
 17 54  1  0  0  0
 17 55  1  0  0  0
 18 19  1  0  0  0
 18 56  1  0  0  0
 18 57  1  0  0  0
 19 20  1  0  0  0
 19 58  1  0  0  0
 19 71  1  0  0  0
 20 21  1  0  0  0
 20 59  1  0  0  0
 20 60  1  0  0  0
 21 61  1  0  0  0
 21 62  1  0  0  0
 22 23  2  0  0  0
 22 24  1  0  0  0
 24 29  2  0  0  0
 24 25  1  0  0  0
 25 26  2  0  0  0
 25 63  1  0  0  0
 26 27  1  0  0  0
 26 64  1  0  0  0
 27 28  2  0  0  0
 27 65  1  0  0  0
 28 29  1  0  0  0
 29 30  1  0  0  0
 30 31  1  0  0  0
 31 36  2  0  0  0
 31 32  1  0  0  0
 32 33  2  0  0  0
 32 66  1  0  0  0
 33 34  1  0  0  0
 33 67  1  0  0  0
 34 35  2  0  0  0
 34 68  1  0  0  0
 35 36  1  0  0  0
 35 69  1  0  0  0
 36 70  1  0  0  0
M  CHG  1  19   1
M  END
> <i_i_glide_confnum>
15

> <i_i_glide_lignum>
287

> <i_i_glide_posenum>
329

> <i_i_glide_rotatable_bonds>
8

> <i_m_Source_File_Index>
3647

> <b_m_subgroup_collapsed>
0

> <r_i_docking_score>
-5.02212

> <r_i_glide_ecoul>
0.242057

> <r_i_glide_eff_state_penalty>
0

> <r_i_glide_einternal>
8.85831

> <r_i_glide_emodel>
-50.5723

> <r_i_glide_energy>
-41.1241

> <r_i_glide_erotb>
0.612112

> <r_i_glide_esite>
0

> <r_i_glide_evdw>
-41.3661

> <r_i_glide_gscore>
-5.02212

> <r_i_glide_hbond>
0

> <r_i_glide_ligand_efficiency>
-0.147709

> <r_i_glide_ligand_efficiency_ln>
-1.10953

> <r_i_glide_ligand_efficiency_sa>
-0.478521

> <r_i_glide_lipo>
-3.00102

> <r_i_glide_metal>
0

> <r_i_glide_rewards>
-0.601216

> <s_i_glide_gridfile>
wee1_glide-grid

> <s_m_Source_File>
wee1_decoys_glide_SP.sdf

> <s_m_Source_Path>
/Users/zhangxujun/Desktop

> <s_m_entry_id>
3922

> <s_m_entry_name>
wee1_decoys_glide_SP.3647

> <s_m_subgroup_title>
wee1_decoys_glide_SP

> <s_m_subgroupid>
wee1_decoys_glide_SP


$$$$
