@<TRIPOS>MOLECULE
ZINC61692112_1815
39   40    1
SMALL
USER_CHARGES


@<TRIPOS>ATOM
      1 C1         -0.7253   52.0960   22.8282 C.ar      1 UNK         0.0000 
      2 C2         -1.7242   52.3483   23.7607 C.ar      1 UNK         0.0000 
      3 C3         -1.4125   52.4818   25.1147 C.ar      1 UNK         0.0000 
      4 C4         -0.0825   52.3555   25.5792 C.ar      1 UNK         0.0000 
      5 C5          0.9022   52.0928   24.6073 C.ar      1 UNK         0.0000 
      6 C6          0.5964   51.9791   23.2486 C.ar      1 UNK         0.0000 
      7 C7          1.6544   51.7587   22.2718 C.1       1 UNK         0.0000 
      8 C8          2.5479   51.6132   21.4503 C.1       1 UNK         0.0000 
      9 C9          3.6487   51.4742   20.4888 C.3       1 UNK         0.0000 
     10 N10         3.1036   50.7079   19.2818 N.4       1 UNK         0.0000 
     11 N11         0.1661   52.4952   26.9295 N.2       1 UNK         0.0000 
     12 S12         1.5660   52.4965   27.6424 S.o2      1 UNK         0.0000 
     13 O13         1.7806   51.2961   28.4541 O.2       1 UNK         0.0000 
     14 O14         2.6937   52.9483   26.8204 O.2       1 UNK         0.0000 
     15 N15         1.3398   53.7787   28.8436 N.pl3     1 UNK         0.0000 
     16 C16         1.6611   55.1648   28.4399 C.3       1 UNK         0.0000 
     17 C17         2.1575   55.9076   29.6825 C.3       1 UNK         0.0000 
     18 C18         1.0792   55.9080   30.7848 C.3       1 UNK         0.0000 
     19 C19         0.4509   54.5061   31.0458 C.3       1 UNK         0.0000 
     20 C20         0.1782   53.6848   29.7632 C.3       1 UNK         0.0000 
     21 Cl21       -2.7357   52.8250   26.1853 Cl        1 UNK         0.0000 
     22 H22        -0.9855   52.0038   21.7831 H         1 UNK         0.0000 
     23 H23        -2.7482   52.4456   23.4324 H         1 UNK         0.0000 
     24 H24         1.9320   51.9639   24.8908 H         1 UNK         0.0000 
     25 H25         4.4764   50.8944   20.8953 H         1 UNK         0.0000 
     26 H26         3.9958   52.4397   20.1153 H         1 UNK         0.0000 
     27 H27         3.8698   50.5072   18.6297 H         1 UNK         0.0000 
     28 H28         2.4138   51.2535   18.7904 H         1 UNK         0.0000 
     29 H29         2.4177   55.1715   27.6572 H         1 UNK         0.0000 
     30 H30         0.7526   55.6498   28.0806 H         1 UNK         0.0000 
     31 H31         3.0648   55.4187   30.0410 H         1 UNK         0.0000 
     32 H32         2.4340   56.9280   29.4231 H         1 UNK         0.0000 
     33 H33         0.3045   56.6058   30.4812 H         1 UNK         0.0000 
     34 H34         1.4907   56.3299   31.7005 H         1 UNK         0.0000 
     35 H35        -0.4684   54.6090   31.6207 H         1 UNK         0.0000 
     36 H36         1.1041   53.9128   31.6806 H         1 UNK         0.0000 
     37 H37        -0.6824   54.1319   29.2691 H         1 UNK         0.0000 
     38 H38        -0.0338   52.6391   29.9936 H         1 UNK         0.0000 
     39 H39         2.7116   49.8214   19.5631 H         1 UNK         0.0000 
@<TRIPOS>BOND
     1    1    6 ar   
     2    1    2 ar   
     3    1   22 1    
     4    2    3 ar   
     5    2   23 1    
     6    3    4 ar   
     7    3   21 1    
     8    4    5 ar   
     9    4   11 1    
    10    5    6 ar   
    11    5   24 1    
    12    6    7 1    
    13    7    8 3    
    14    8    9 1    
    15    9   10 1    
    16    9   25 1    
    17    9   26 1    
    18   10   27 1    
    19   10   28 1    
    20   10   39 1    
    21   11   12 1    
    22   12   13 2    
    23   12   14 2    
    24   12   15 1    
    25   15   20 1    
    26   15   16 1    
    27   16   17 1    
    28   16   29 1    
    29   16   30 1    
    30   17   18 1    
    31   17   31 1    
    32   17   32 1    
    33   18   19 1    
    34   18   33 1    
    35   18   34 1    
    36   19   20 1    
    37   19   35 1    
    38   19   36 1    
    39   20   37 1    
    40   20   38 1    
@<TRIPOS>SUBSTRUCTURE
     1 UNK         1 GROUP             0       ****    0 ROOT    
