@<TRIPOS>MOLECULE
ZINC02661624_3453
57   61    1
SMALL
USER_CHARGES


@<TRIPOS>ATOM
      1 C1         -3.1436   49.8162   23.9768 C.ar      1 UNK         0.0000 
      2 C2         -2.9730   49.0808   22.8066 C.ar      1 UNK         0.0000 
      3 C3         -2.2395   47.8984   22.8329 C.ar      1 UNK         0.0000 
      4 C4         -1.6784   47.4398   24.0194 C.ar      1 UNK         0.0000 
      5 C5         -1.8439   48.1704   25.1896 C.ar      1 UNK         0.0000 
      6 C6         -2.5697   49.3658   25.1722 C.ar      1 UNK         0.0000 
      7 C7         -2.7375   50.1715   26.4547 C.3       1 UNK         0.0000 
      8 C8         -1.0200   52.0181   25.9293 C.3       1 UNK         0.0000 
      9 C9          0.4157   52.4966   26.0510 C.ar      1 UNK         0.0000 
     10 N10         0.9428   52.9098   24.8793 N.ar      1 UNK         0.0000 
     11 C11         2.2298   53.3352   24.8765 C.ar      1 UNK         0.0000 
     12 C12         2.9660   53.4224   26.0814 C.ar      1 UNK         0.0000 
     13 C13         4.3174   53.8183   26.3628 C.2       1 UNK         0.0000 
     14 C14         4.6130   53.6977   27.7205 C.2       1 UNK         0.0000 
     15 S15         3.2698   53.1131   28.6856 S.3       1 UNK         0.0000 
     16 C16         2.2671   52.9901   27.2530 C.ar      1 UNK         0.0000 
     17 N17         1.0147   52.5167   27.2727 N.ar      1 UNK         0.0000 
     18 C18         5.9923   53.9368   28.3173 C.3       1 UNK         0.0000 
     19 C19         6.8590   54.7628   27.3437 C.3       1 UNK         0.0000 
     20 C20         6.7644   54.2466   25.9041 C.3       1 UNK         0.0000 
     21 C21         5.3369   54.3167   25.3360 C.3       1 UNK         0.0000 
     22 N22         2.8379   53.6336   23.6436 N.pl3     1 UNK         0.0000 
     23 C23         2.1747   53.4857   22.3468 C.3       1 UNK         0.0000 
     24 C24         2.2495   52.0729   21.7553 C.ar      1 UNK         0.0000 
     25 C25         1.9241   50.9348   22.5067 C.ar      1 UNK         0.0000 
     26 C26         1.9458   49.6731   21.9235 C.ar      1 UNK         0.0000 
     27 C27         2.2945   49.5370   20.5848 C.ar      1 UNK         0.0000 
     28 C28         2.6409   50.6556   19.8296 C.ar      1 UNK         0.0000 
     29 C29         2.6087   51.9219   20.4122 C.ar      1 UNK         0.0000 
     30 F30         2.2988   48.3095   20.0148 F         1 UNK         0.0000 
     31 F31        -2.0697   47.1872   21.6963 F         1 UNK         0.0000 
     32 H32        -3.7154   50.7332   23.9523 H         1 UNK         0.0000 
     33 H33        -3.4050   49.4252   21.8792 H         1 UNK         0.0000 
     34 H34        -1.1090   46.5240   24.0287 H         1 UNK         0.0000 
     35 H35        -1.3988   47.8068   26.1078 H         1 UNK         0.0000 
     36 H36        -2.9848   49.5169   27.2899 H         1 UNK         0.0000 
     37 H37        -3.5059   50.9422   26.3813 H         1 UNK         0.0000 
     38 H38        -1.7322   52.8313   26.0825 H         1 UNK         0.0000 
     39 H39        -1.1760   51.6028   24.9313 H         1 UNK         0.0000 
     40 H40         5.9308   54.4472   29.2789 H         1 UNK         0.0000 
     41 H41         6.4756   52.9755   28.4850 H         1 UNK         0.0000 
     42 H42         6.5421   55.8004   27.3763 H         1 UNK         0.0000 
     43 H43         7.8997   54.7525   27.6801 H         1 UNK         0.0000 
     44 H44         7.4407   54.8040   25.2532 H         1 UNK         0.0000 
     45 H45         7.1044   53.2137   25.8791 H         1 UNK         0.0000 
     46 H46         5.3210   53.7168   24.4252 H         1 UNK         0.0000 
     47 H47         5.0972   55.3394   25.0424 H         1 UNK         0.0000 
     48 H48         3.7725   54.0148   23.6470 H         1 UNK         0.0000 
     49 H49         2.6621   54.1948   21.6757 H         1 UNK         0.0000 
     50 H50         1.1286   53.7916   22.4106 H         1 UNK         0.0000 
     51 H51         1.6561   51.0012   23.5450 H         1 UNK         0.0000 
     52 H52         1.6967   48.8024   22.5095 H         1 UNK         0.0000 
     53 H53         2.9369   50.5365   18.7954 H         1 UNK         0.0000 
     54 H54         2.8630   52.7831   19.8110 H         1 UNK         0.0000 
     55 N55        -1.4484   50.8965   26.8917 N.4       1 UNK         0.0000 
     56 H56        -0.7228   50.1936   26.9422 H         1 UNK         0.0000 
     57 H57        -1.5545   51.2531   27.8303 H         1 UNK         0.0000 
@<TRIPOS>BOND
     1    1    6 ar   
     2    1    2 ar   
     3    1   32 1    
     4    2    3 ar   
     5    2   33 1    
     6    3    4 ar   
     7    3   31 1    
     8    4    5 ar   
     9    4   34 1    
    10    5    6 ar   
    11    5   35 1    
    12    6    7 1    
    13    7   36 1    
    14    7   37 1    
    15    7   55 1    
    16    8    9 1    
    17    8   38 1    
    18    8   39 1    
    19    8   55 1    
    20    9   17 ar   
    21    9   10 ar   
    22   10   11 ar   
    23   11   12 ar   
    24   11   22 1    
    25   12   16 ar   
    26   12   13 1    
    27   13   21 1    
    28   13   14 2    
    29   14   15 1    
    30   14   18 1    
    31   15   16 1    
    32   16   17 ar   
    33   18   19 1    
    34   18   40 1    
    35   18   41 1    
    36   19   20 1    
    37   19   42 1    
    38   19   43 1    
    39   20   21 1    
    40   20   44 1    
    41   20   45 1    
    42   21   46 1    
    43   21   47 1    
    44   22   23 1    
    45   22   48 1    
    46   23   24 1    
    47   23   49 1    
    48   23   50 1    
    49   24   29 ar   
    50   24   25 ar   
    51   25   26 ar   
    52   25   51 1    
    53   26   27 ar   
    54   26   52 1    
    55   27   28 ar   
    56   27   30 1    
    57   28   29 ar   
    58   28   53 1    
    59   29   54 1    
    60   55   56 1    
    61   55   57 1    
@<TRIPOS>SUBSTRUCTURE
     1 UNK         1 GROUP             0       ****    0 ROOT    
