ZINC40345980_4795
                    3D
 Schrodinger Suite 2024-2.
 34 35  0  0  1  0            999 V2000
    3.2702   53.7979   22.2013 C   0  0  0  0  0  0
    4.4821   54.0935   23.0483 C   0  0  0  0  0  0
    5.8282   54.2702   22.7790 C   0  0  0  0  0  0
    6.4534   54.4820   24.0048 C   0  0  0  0  0  0
    5.4762   54.4256   24.9868 C   0  0  0  0  0  0
    4.2730   54.2070   24.3849 O   0  0  0  0  0  0
    5.4897   54.5744   26.5050 C   0  0  2  0  0  0
    5.4219   55.6404   26.7246 H   0  0  0  0  0  0
    6.7944   54.0169   27.1074 C   0  0  0  0  0  0
    4.3146   53.9192   27.0737 N   0  0  0  0  0  0
    3.9139   53.9540   28.3559 C   0  0  0  0  0  0
    4.5621   54.5025   29.2486 O   0  0  0  0  0  0
    2.5998   53.2759   28.6639 C   0  0  0  0  0  0
    1.6964   52.8970   27.6551 C   0  0  0  0  0  0
    0.4773   52.3088   27.9805 C   0  0  0  0  0  0
    0.1252   52.1107   29.3136 C   0  0  0  0  0  0
    1.0076   52.4964   30.3314 C   0  0  0  0  0  0
    2.2439   53.0425   29.9982 C   0  0  0  0  0  0
    0.7044   52.3342   31.6823 N   0  0  0  0  0  0
   -1.5565   51.2968   29.6843 Br  0  0  0  0  0  0
    3.5032   53.8166   21.1368 H   0  0  0  0  0  0
    2.8567   52.8142   22.4231 H   0  0  0  0  0  0
    2.4768   54.5269   22.3668 H   0  0  0  0  0  0
    6.3014   54.2448   21.8092 H   0  0  0  0  0  0
    7.5044   54.6569   24.1601 H   0  0  0  0  0  0
    7.6649   54.4973   26.6705 H   0  0  0  0  0  0
    6.8563   54.1806   28.1834 H   0  0  0  0  0  0
    6.8870   52.9447   26.9330 H   0  0  0  0  0  0
    3.6633   53.5588   26.3942 H   0  0  0  0  0  0
    1.9172   53.0504   26.6086 H   0  0  0  0  0  0
   -0.2014   52.0058   27.1966 H   0  0  0  0  0  0
    2.9325   53.2967   30.7889 H   0  0  0  0  0  0
    1.4062   52.4964   32.3900 H   0  0  0  0  0  0
   -0.2480   52.0960   31.9729 H   0  0  0  0  0  0
  1  2  1  0  0  0
  1 21  1  0  0  0
  1 22  1  0  0  0
  1 23  1  0  0  0
  2  6  1  0  0  0
  2  3  2  0  0  0
  3  4  1  0  0  0
  3 24  1  0  0  0
  4  5  2  0  0  0
  4 25  1  0  0  0
  5  6  1  0  0  0
  5  7  1  0  0  0
  7  8  1  0  0  0
  7  9  1  0  0  0
  7 10  1  0  0  0
  9 26  1  0  0  0
  9 27  1  0  0  0
  9 28  1  0  0  0
 10 11  1  0  0  0
 10 29  1  0  0  0
 11 12  2  0  0  0
 11 13  1  0  0  0
 13 18  2  0  0  0
 13 14  1  0  0  0
 14 15  2  0  0  0
 14 30  1  0  0  0
 15 16  1  0  0  0
 15 31  1  0  0  0
 16 17  2  0  0  0
 16 20  1  0  0  0
 17 18  1  0  0  0
 17 19  1  0  0  0
 18 32  1  0  0  0
 19 33  1  0  0  0
 19 34  1  0  0  0
M  END
> <i_i_glide_confnum>
28

> <i_i_glide_lignum>
4796

> <i_i_glide_posenum>
209

> <i_i_glide_rotatable_bonds>
4

> <i_m_Source_File_Index>
4795

> <b_m_subgroup_collapsed>
0

> <r_i_docking_score>
-5.71991

> <r_i_glide_ecoul>
-3.02697

> <r_i_glide_eff_state_penalty>
0

> <r_i_glide_einternal>
4.87676

> <r_i_glide_emodel>
-50.6444

> <r_i_glide_energy>
-39.3098

> <r_i_glide_erotb>
0.716546

> <r_i_glide_esite>
-0.1

> <r_i_glide_evdw>
-36.2829

> <r_i_glide_gscore>
-5.71991

> <r_i_glide_hbond>
-0.16

> <r_i_glide_ligand_efficiency>
-0.301048

> <r_i_glide_ligand_efficiency_ln>
-1.45012

> <r_i_glide_ligand_efficiency_sa>
-0.803317

> <r_i_glide_lipo>
-2.32972

> <r_i_glide_metal>
0

> <r_i_glide_rewards>
-1.57854

> <s_i_glide_gridfile>
wee1_glide-grid

> <s_m_Source_File>
wee1_decoys_glide_SP.sdf

> <s_m_Source_Path>
/Users/zhangxujun/Desktop

> <s_m_entry_id>
5070

> <s_m_entry_name>
wee1_decoys_glide_SP.4795

> <s_m_subgroup_title>
wee1_decoys_glide_SP

> <s_m_subgroupid>
wee1_decoys_glide_SP


$$$$
