@<TRIPOS>MOLECULE
ZINC21558505_2681
53   57    1
SMALL
USER_CHARGES


@<TRIPOS>ATOM
      1 C1          2.0284   53.3816   29.7255 C.ar      1 UNK         0.0000 
      2 C2          1.4312   53.9195   28.5881 C.ar      1 UNK         0.0000 
      3 C3          2.1825   54.0912   27.4278 C.ar      1 UNK         0.0000 
      4 C4          3.5359   53.7315   27.3940 C.ar      1 UNK         0.0000 
      5 C5          4.1200   53.1926   28.5492 C.ar      1 UNK         0.0000 
      6 C6          3.3722   53.0167   29.7103 C.ar      1 UNK         0.0000 
      7 C7          4.4146   53.8863   26.1345 C.3       1 UNK         0.0000 
      8 H8          4.8154   52.8967   25.9451 H         1 UNK         0.0000 
      9 C9          5.6272   54.7911   26.4170 C.3       1 UNK         0.0000 
     10 C10         6.9652   54.2163   26.8093 C.3       1 UNK         0.0000 
     11 C11         6.7832   54.8771   25.4504 C.3       1 UNK         0.0000 
     12 N12         3.8000   54.2859   24.8542 N.am      1 UNK         0.0000 
     13 C13         2.8442   53.6318   24.1704 C.2       1 UNK         0.0000 
     14 O14         2.1960   52.6997   24.6398 O.2       1 UNK         0.0000 
     15 C15         2.6249   54.0625   22.7084 C.3       1 UNK         0.0000 
     16 N16         2.7830   52.8988   21.8008 N.am      1 UNK         0.0000 
     17 C17         1.7491   52.1185   21.4109 C.2       1 UNK         0.0000 
     18 O18         0.5764   52.1717   21.7907 O.2       1 UNK         0.0000 
     19 C19         2.3283   51.1406   20.3878 C.3       1 UNK         0.0000 
     20 C20         2.1577   49.6597   20.8197 C.3       1 UNK         0.0000 
     21 C21         0.7241   49.1609   20.5637 C.3       1 UNK         0.0000 
     22 O22         0.4318   49.2268   19.1684 O.3       1 UNK         0.0000 
     23 C23         0.7088   50.4286   18.5418 C.ar      1 UNK         0.0000 
     24 C24         1.6287   51.3802   19.0349 C.ar      1 UNK         0.0000 
     25 C25         1.8566   52.5243   18.2502 C.ar      1 UNK         0.0000 
     26 C26         1.1971   52.7200   17.0378 C.ar      1 UNK         0.0000 
     27 C27         0.2937   51.7676   16.5750 C.ar      1 UNK         0.0000 
     28 C28         0.0536   50.6201   17.3260 C.ar      1 UNK         0.0000 
     29 N29         3.7047   51.5594   20.3976 N.am      1 UNK         0.0000 
     30 C30         3.9823   52.5235   21.2827 C.2       1 UNK         0.0000 
     31 O31         5.1038   52.8349   21.6837 O.2       1 UNK         0.0000 
     32 H32         1.4397   53.2361   30.6206 H         1 UNK         0.0000 
     33 H33         0.3852   54.1898   28.5993 H         1 UNK         0.0000 
     34 H34         1.6930   54.4777   26.5507 H         1 UNK         0.0000 
     35 H35         5.1594   52.8975   28.5483 H         1 UNK         0.0000 
     36 H36         3.8324   52.5921   30.5909 H         1 UNK         0.0000 
     37 H37         5.3221   55.6966   26.9245 H         1 UNK         0.0000 
     38 H38         7.5072   54.7265   27.6060 H         1 UNK         0.0000 
     39 H39         7.0802   53.1332   26.8627 H         1 UNK         0.0000 
     40 H40         6.7701   54.2525   24.5559 H         1 UNK         0.0000 
     41 H41         7.2044   55.8633   25.2543 H         1 UNK         0.0000 
     42 H42         4.3342   54.9653   24.3353 H         1 UNK         0.0000 
     43 H43         1.6166   54.4696   22.6239 H         1 UNK         0.0000 
     44 H44         3.3088   54.8633   22.4241 H         1 UNK         0.0000 
     45 H45         2.8080   49.0302   20.2117 H         1 UNK         0.0000 
     46 H46         2.4378   49.5021   21.8630 H         1 UNK         0.0000 
     47 H47        -0.0034   49.7465   21.1274 H         1 UNK         0.0000 
     48 H48         0.6213   48.1238   20.8827 H         1 UNK         0.0000 
     49 H49         2.5504   53.2807   18.5871 H         1 UNK         0.0000 
     50 H50         1.3928   53.6087   16.4554 H         1 UNK         0.0000 
     51 H51        -0.2100   51.9123   15.6304 H         1 UNK         0.0000 
     52 H52        -0.6311   49.8697   16.9598 H         1 UNK         0.0000 
     53 H53         4.3230   51.2939   19.6363 H         1 UNK         0.0000 
@<TRIPOS>BOND
     1    1    6 ar   
     2    1    2 ar   
     3    1   32 1    
     4    2    3 ar   
     5    2   33 1    
     6    3    4 ar   
     7    3   34 1    
     8    4    5 ar   
     9    4    7 1    
    10    5    6 ar   
    11    5   35 1    
    12    6   36 1    
    13    7    8 1    
    14    7    9 1    
    15    7   12 1    
    16    9   11 1    
    17    9   10 1    
    18    9   37 1    
    19   10   11 1    
    20   10   38 1    
    21   10   39 1    
    22   11   40 1    
    23   11   41 1    
    24   12   13 am   BACKBONE|DICT|INTERRES
    25   12   42 1    
    26   13   14 2    
    27   13   15 1    
    28   15   16 1    
    29   15   43 1    
    30   15   44 1    
    31   16   30 am   BACKBONE|DICT|INTERRES
    32   16   17 am   BACKBONE|DICT|INTERRES
    33   17   18 2    
    34   17   19 1    
    35   19   24 1    
    36   19   20 1    
    37   19   29 1    
    38   20   21 1    
    39   20   45 1    
    40   20   46 1    
    41   21   22 1    
    42   21   47 1    
    43   21   48 1    
    44   22   23 1    
    45   23   28 ar   
    46   23   24 ar   
    47   24   25 ar   
    48   25   26 ar   
    49   25   49 1    
    50   26   27 ar   
    51   26   50 1    
    52   27   28 ar   
    53   27   51 1    
    54   28   52 1    
    55   29   30 am   BACKBONE|DICT|INTERRES
    56   29   53 1    
    57   30   31 2    
@<TRIPOS>SUBSTRUCTURE
     1 UNK         1 GROUP             0       ****    0 ROOT    
