ZINC13121528_500
                    3D
 Schrodinger Suite 2024-2.
 63 67  0  0  1  0            999 V2000
   -1.5128   51.5806   22.7160 C   0  0  0  0  0  0
   -0.2287   51.2542   23.4898 C   0  0  1  0  0  0
    0.0244   50.2166   23.2561 H   0  0  0  0  0  0
    0.8999   52.2112   22.9915 C   0  0  0  0  0  0
    0.9654   53.3744   23.4013 O   0  0  0  0  0  0
    1.7367   51.7109   22.0554 N   0  0  0  0  0  0
    2.7733   52.4107   21.4123 C   0  0  0  0  0  0
    3.6043   53.3335   22.0811 C   0  0  0  0  0  0
    4.5768   54.0633   21.3886 C   0  0  0  0  0  0
    4.7193   53.8271   20.0244 C   0  0  0  0  0  0
    3.9480   52.9009   19.3781 C   0  0  0  0  0  0
    2.9736   52.1642   20.0478 C   0  0  0  0  0  0
    4.3646   52.8976   18.0681 N   0  0  0  0  0  0
    4.1208   52.1915   17.3870 H   0  0  0  0  0  0
    5.3443   53.8025   17.8604 C   0  0  0  0  0  0
    5.9383   54.0431   16.8128 O   0  0  0  0  0  0
    5.5503   54.3651   19.0699 N   0  0  0  0  0  0
    6.2391   55.0837   19.2307 H   0  0  0  0  0  0
   -0.4278   51.3301   24.9603 N   0  0  0  0  0  0
   -1.2369   52.4436   25.5078 C   0  0  0  0  0  0
   -1.2264   52.6366   27.0520 C   0  0  0  0  0  0
   -0.0647   52.0431   27.7454 N   0  0  0  0  0  0
    0.3579   50.7491   27.2411 C   0  0  0  0  0  0
    0.7047   50.8196   25.7486 C   0  0  0  0  0  0
    0.9821   52.9323   28.8697 S   0  0  0  0  0  0
    0.2994   54.1520   29.3057 O   0  0  0  0  0  0
    1.5502   51.9927   29.8437 O   0  0  0  0  0  0
    2.3490   53.4663   27.8705 C   0  0  0  0  0  0
    2.1112   53.9145   26.5813 C   0  0  0  0  0  0
    3.1658   54.3044   25.7737 C   0  0  0  0  0  0
    4.4782   54.2675   26.2374 C   0  0  0  0  0  0
    4.7192   53.8878   27.5784 C   0  0  0  0  0  0
    3.6475   53.4662   28.3710 C   0  0  0  0  0  0
    6.1017   54.0104   28.2023 C   0  0  0  0  0  0
    7.2278   54.1343   27.1668 C   0  0  0  0  0  0
    6.8648   55.0778   26.0050 C   0  0  0  0  0  0
    5.6178   54.5780   25.2768 C   0  0  0  0  0  0
   -1.3767   51.3729   21.6531 H   0  0  0  0  0  0
   -2.3290   50.9551   23.0818 H   0  0  0  0  0  0
   -1.7923   52.6298   22.8288 H   0  0  0  0  0  0
    1.5119   50.8065   21.6684 H   0  0  0  0  0  0
    3.4936   53.4852   23.1388 H   0  0  0  0  0  0
    5.1934   54.7805   21.9098 H   0  0  0  0  0  0
    2.3715   51.4403   19.5173 H   0  0  0  0  0  0
   -0.6482   53.2922   25.1845 H   0  0  0  0  0  0
   -2.2516   52.4922   25.1091 H   0  0  0  0  0  0
   -2.0798   52.0987   27.4680 H   0  0  0  0  0  0
   -1.2971   53.6950   27.2831 H   0  0  0  0  0  0
   -0.4248   50.0311   27.4537 H   0  0  0  0  0  0
    1.2581   50.4950   27.7960 H   0  0  0  0  0  0
    1.0809   49.8616   25.3853 H   0  0  0  0  0  0
    1.4638   51.5956   25.6586 H   0  0  0  0  0  0
    1.1087   53.9619   26.1911 H   0  0  0  0  0  0
    2.9457   54.6500   24.7760 H   0  0  0  0  0  0
    3.8262   53.1652   29.3936 H   0  0  0  0  0  0
    6.0944   54.8974   28.8320 H   0  0  0  0  0  0
    6.2915   53.1771   28.8785 H   0  0  0  0  0  0
    7.4709   53.1430   26.7821 H   0  0  0  0  0  0
    8.1110   54.5018   27.6826 H   0  0  0  0  0  0
    7.6712   55.1309   25.2732 H   0  0  0  0  0  0
    6.7021   56.0903   26.3766 H   0  0  0  0  0  0
    5.8665   53.6592   24.7427 H   0  0  0  0  0  0
    5.3078   55.2968   24.5170 H   0  0  0  0  0  0
  1  2  1  0  0  0
  1 38  1  0  0  0
  1 39  1  0  0  0
  1 40  1  0  0  0
  2  3  1  0  0  0
  2  4  1  0  0  0
  2 19  1  0  0  0
  4  5  2  0  0  0
  4  6  1  0  0  0
  6  7  1  0  0  0
  6 41  1  0  0  0
  7 12  2  0  0  0
  7  8  1  0  0  0
  8  9  2  0  0  0
  8 42  1  0  0  0
  9 10  1  0  0  0
  9 43  1  0  0  0
 10 17  1  0  0  0
 10 11  2  0  0  0
 11 12  1  0  0  0
 11 13  1  0  0  0
 12 44  1  0  0  0
 13 14  1  0  0  0
 13 15  1  0  0  0
 15 16  2  0  0  0
 15 17  1  0  0  0
 17 18  1  0  0  0
 19 24  1  0  0  0
 19 20  1  0  0  0
 20 21  1  0  0  0
 20 45  1  0  0  0
 20 46  1  0  0  0
 21 22  1  0  0  0
 21 47  1  0  0  0
 21 48  1  0  0  0
 22 23  1  0  0  0
 22 25  1  0  0  0
 23 24  1  0  0  0
 23 49  1  0  0  0
 23 50  1  0  0  0
 24 51  1  0  0  0
 24 52  1  0  0  0
 25 26  2  0  0  0
 25 27  2  0  0  0
 25 28  1  0  0  0
 28 33  2  0  0  0
 28 29  1  0  0  0
 29 30  2  0  0  0
 29 53  1  0  0  0
 30 31  1  0  0  0
 30 54  1  0  0  0
 31 37  1  0  0  0
 31 32  2  0  0  0
 32 33  1  0  0  0
 32 34  1  0  0  0
 33 55  1  0  0  0
 34 35  1  0  0  0
 34 56  1  0  0  0
 34 57  1  0  0  0
 35 36  1  0  0  0
 35 58  1  0  0  0
 35 59  1  0  0  0
 36 37  1  0  0  0
 36 60  1  0  0  0
 36 61  1  0  0  0
 37 62  1  0  0  0
 37 63  1  0  0  0
M  END
> <i_i_glide_confnum>
78

> <i_i_glide_lignum>
501

> <i_i_glide_posenum>
318

> <i_i_glide_rotatable_bonds>
6

> <i_m_Source_File_Index>
3115

> <b_m_subgroup_collapsed>
0

> <r_i_docking_score>
-4.19095

> <r_i_glide_ecoul>
-1.3828

> <r_i_glide_eff_state_penalty>
0

> <r_i_glide_einternal>
8.64182

> <r_i_glide_emodel>
-48.0623

> <r_i_glide_energy>
-42.2701

> <r_i_glide_erotb>
0.434071

> <r_i_glide_esite>
-0.15577

> <r_i_glide_evdw>
-40.8873

> <r_i_glide_gscore>
-4.19095

> <r_i_glide_hbond>
-0.00156373

> <r_i_glide_ligand_efficiency>
-0.123263

> <r_i_glide_ligand_efficiency_ln>
-0.925898

> <r_i_glide_ligand_efficiency_sa>
-0.399325

> <r_i_glide_lipo>
-2.32351

> <r_i_glide_metal>
0

> <r_i_glide_rewards>
0.107604

> <s_i_glide_gridfile>
wee1_glide-grid

> <s_m_Source_File>
wee1_decoys_glide_SP.sdf

> <s_m_Source_Path>
/Users/zhangxujun/Desktop

> <s_m_entry_id>
3390

> <s_m_entry_name>
wee1_decoys_glide_SP.3115

> <s_m_subgroup_title>
wee1_decoys_glide_SP

> <s_m_subgroupid>
wee1_decoys_glide_SP


$$$$
