@<TRIPOS>MOLECULE
ZINC02546462_5079
62   65    1
SMALL
USER_CHARGES


@<TRIPOS>ATOM
      1 C1         -3.2288   51.3040   27.0766 C.3       1 UNK         0.0000 
      2 C2         -2.5651   52.0285   25.9189 C.2       1 UNK         0.0000 
      3 C3         -3.3244   52.8067   25.0362 C.2       1 UNK         0.0000 
      4 S4         -2.3870   53.2923   23.6815 S.3       1 UNK         0.0000 
      5 C5         -0.9822   52.5261   24.2938 C.2       1 UNK         0.0000 
      6 C6         -1.1896   51.9181   25.5366 C.2       1 UNK         0.0000 
      7 C7         -0.0963   51.1373   26.2792 C.3       1 UNK         0.0000 
      8 H8          0.8270   51.1570   25.7010 H         1 UNK         0.0000 
      9 C9          0.2442   51.7551   27.6409 C.ar      1 UNK         0.0000 
     10 C10        -0.5055   51.4704   28.7825 C.ar      1 UNK         0.0000 
     11 C11        -0.2389   52.0967   29.9921 C.ar      1 UNK         0.0000 
     12 C12         0.8060   53.0230   30.0978 C.ar      1 UNK         0.0000 
     13 C13         1.6082   53.2875   28.9759 C.ar      1 UNK         0.0000 
     14 C14         1.3137   52.6487   27.7566 C.ar      1 UNK         0.0000 
     15 O15         2.6553   54.1789   29.1396 O.3       1 UNK         0.0000 
     16 C16         3.5186   54.4523   28.0408 C.3       1 UNK         0.0000 
     17 O17         1.1004   53.6964   31.2664 O.3       1 UNK         0.0000 
     18 C18         0.3070   53.4720   32.4306 C.3       1 UNK         0.0000 
     19 N19        -0.3885   49.6971   26.3394 N.pl3     1 UNK         0.0000 
     20 C20        -0.6411   48.9177   25.1781 C.ar      1 UNK         0.0000 
     21 C21        -1.3363   47.7107   25.2812 C.ar      1 UNK         0.0000 
     22 C22        -1.6958   47.0197   24.1214 C.ar      1 UNK         0.0000 
     23 C23        -1.3340   47.5354   22.8718 C.ar      1 UNK         0.0000 
     24 C24        -0.6066   48.7266   22.8071 C.ar      1 UNK         0.0000 
     25 N25         0.1219   52.5037   23.4562 N.am      1 UNK         0.0000 
     26 C26         1.2970   53.1211   23.7008 C.2       1 UNK         0.0000 
     27 O27         1.5046   53.8330   24.6846 O.2       1 UNK         0.0000 
     28 C28         2.3747   52.9259   22.6546 C.ar      1 UNK         0.0000 
     29 C29         3.4279   53.8505   22.5637 C.ar      1 UNK         0.0000 
     30 C30         4.4374   53.6850   21.6175 C.ar      1 UNK         0.0000 
     31 C31         4.4067   52.5917   20.7564 C.ar      1 UNK         0.0000 
     32 C32         3.3737   51.6625   20.8335 C.ar      1 UNK         0.0000 
     33 C33         2.3636   51.8250   21.7791 C.ar      1 UNK         0.0000 
     34 C34        -4.7897   53.1775   25.0922 C.3       1 UNK         0.0000 
     35 H35        -2.8106   50.3125   27.2435 H         1 UNK         0.0000 
     36 H36        -3.1634   51.8592   28.0100 H         1 UNK         0.0000 
     37 H37        -4.2870   51.1139   26.8923 H         1 UNK         0.0000 
     38 H38        -1.3068   50.7522   28.7563 H         1 UNK         0.0000 
     39 H39        -0.8565   51.8394   30.8417 H         1 UNK         0.0000 
     40 H40         1.9139   52.8438   26.8842 H         1 UNK         0.0000 
     41 H41         4.2817   55.1635   28.3546 H         1 UNK         0.0000 
     42 H42         4.0267   53.5512   27.6959 H         1 UNK         0.0000 
     43 H43         2.9761   54.8969   27.2062 H         1 UNK         0.0000 
     44 H44         0.6513   54.1132   33.2394 H         1 UNK         0.0000 
     45 H45        -0.7442   53.6995   32.2639 H         1 UNK         0.0000 
     46 H46         0.4115   52.4430   32.7733 H         1 UNK         0.0000 
     47 H47        -0.7046   49.3082   27.2287 H         1 UNK         0.0000 
     48 H48        -1.6189   47.3336   26.2573 H         1 UNK         0.0000 
     49 H49        -2.2531   46.0978   24.1931 H         1 UNK         0.0000 
     50 H50        -1.6086   47.0112   21.9666 H         1 UNK         0.0000 
     51 H51        -0.2753   49.1924   21.8887 H         1 UNK         0.0000 
     52 H52        -0.0238   52.1669   22.5160 H         1 UNK         0.0000 
     53 H53         3.4682   54.7071   23.2210 H         1 UNK         0.0000 
     54 H54         5.2394   54.4059   21.5493 H         1 UNK         0.0000 
     55 H55         5.1814   52.4632   20.0133 H         1 UNK         0.0000 
     56 H56         3.3631   50.8211   20.1549 H         1 UNK         0.0000 
     57 H57         1.5848   51.0793   21.8174 H         1 UNK         0.0000 
     58 H58        -5.1369   53.3139   26.1197 H         1 UNK         0.0000 
     59 H59        -5.0008   54.1108   24.5619 H         1 UNK         0.0000 
     60 H60        -5.4175   52.4046   24.6384 H         1 UNK         0.0000 
     61 N61        -0.2888   49.3610   23.9528 N.pl3     1 UNK         0.0000 
     62 H62         0.2147   50.2346   23.9047 H         1 UNK         0.0000 
@<TRIPOS>BOND
     1    1    2 1    
     2    1   35 1    
     3    1   36 1    
     4    1   37 1    
     5    2    6 1    
     6    2    3 2    
     7    3    4 1    
     8    3   34 1    
     9    4    5 1    
    10    5    6 2    
    11    5   25 am   BACKBONE|DICT|INTERRES
    12    6    7 1    
    13    7    8 1    
    14    7    9 1    
    15    7   19 1    
    16    9   14 ar   
    17    9   10 ar   
    18   10   11 ar   
    19   10   38 1    
    20   11   12 ar   
    21   11   39 1    
    22   12   13 ar   
    23   12   17 1    
    24   13   14 ar   
    25   13   15 1    
    26   14   40 1    
    27   15   16 1    
    28   16   41 1    
    29   16   42 1    
    30   16   43 1    
    31   17   18 1    
    32   18   44 1    
    33   18   45 1    
    34   18   46 1    
    35   19   20 1    
    36   19   47 1    
    37   20   21 ar   
    38   20   61 ar   
    39   21   22 ar   
    40   21   48 1    
    41   22   23 ar   
    42   22   49 1    
    43   23   24 ar   
    44   23   50 1    
    45   24   51 1    
    46   24   61 ar   
    47   25   26 am   BACKBONE|DICT|INTERRES
    48   25   52 1    
    49   26   27 2    
    50   26   28 1    
    51   28   33 ar   
    52   28   29 ar   
    53   29   30 ar   
    54   29   53 1    
    55   30   31 ar   
    56   30   54 1    
    57   31   32 ar   
    58   31   55 1    
    59   32   33 ar   
    60   32   56 1    
    61   33   57 1    
    62   34   58 1    
    63   34   59 1    
    64   34   60 1    
    65   61   62 1    
@<TRIPOS>SUBSTRUCTURE
     1 UNK         1 GROUP             0       ****    0 ROOT    
