ZINC39659773_177
                    3D
 Schrodinger Suite 2024-2.
 73 76  0  0  1  0            999 V2000
    5.8927   54.4990   21.1023 C   0  0  0  0  0  0
    6.3181   54.4873   22.4631 O   0  0  0  0  0  0
    5.3752   54.3225   23.4559 C   0  0  0  0  0  0
    3.9995   54.2292   23.2205 C   0  0  0  0  0  0
    3.1144   54.0969   24.2783 C   0  0  0  0  0  0
    3.5614   53.9779   25.6021 C   0  0  0  0  0  0
    4.9511   54.0959   25.8526 C   0  0  0  0  0  0
    5.8320   54.2738   24.7688 C   0  0  0  0  0  0
    5.4030   53.9808   27.1585 O   0  0  0  0  0  0
    6.7952   54.0588   27.4530 C   0  0  0  0  0  0
    2.5783   53.7896   26.7536 C   0  0  0  0  0  0
    2.8172   54.3445   27.8296 O   0  0  0  0  0  0
    1.4531   53.0316   26.6076 N   0  0  0  0  0  0
    0.5033   52.8948   27.7150 C   0  0  0  0  0  0
   -0.7920   52.3973   27.0387 C   0  0  1  0  0  0
   -1.3175   53.2962   26.7227 H   0  0  0  0  0  0
   -0.2769   51.5205   25.8602 C   0  0  0  0  0  0
    0.9807   52.3040   25.4216 C   0  0  0  0  0  0
   -1.3409   51.3676   24.7384 C   0  0  0  0  0  0
   -0.8015   50.5929   23.5214 C   0  0  0  0  0  0
   -0.4150   49.1785   24.0054 N   0  3  0  0  0  0
    0.6210   49.1888   25.1483 C   0  0  0  0  0  0
    0.0880   50.0694   26.2974 C   0  0  0  0  0  0
   -1.6697   51.6966   28.1089 C   0  0  0  0  0  0
   -1.2980   51.5698   29.2773 O   0  0  0  0  0  0
   -2.8430   51.2206   27.6531 N   0  0  0  0  0  0
   -3.7967   50.3559   28.3580 C   0  0  0  0  0  0
   -4.9708   51.1510   28.9826 C   0  0  0  0  0  0
   -5.8779   51.9437   28.0083 C   0  0  0  0  0  0
   -7.2418   51.2953   27.6869 C   0  0  0  0  0  0
   -7.2569   49.7825   27.3793 C   0  0  0  0  0  0
   -6.4777   49.3155   26.1317 C   0  0  0  0  0  0
   -4.9473   49.5265   26.1273 C   0  0  0  0  0  0
   -4.2135   49.1730   27.4448 C   0  0  0  0  0  0
    6.7531   54.6223   20.4447 H   0  0  0  0  0  0
    5.4078   53.5579   20.8285 H   0  0  0  0  0  0
    5.2053   55.3221   20.8999 H   0  0  0  0  0  0
    3.5932   54.3026   22.2235 H   0  0  0  0  0  0
    2.0698   54.1338   24.0264 H   0  0  0  0  0  0
    6.8962   54.3551   24.9253 H   0  0  0  0  0  0
    6.9467   53.9071   28.5225 H   0  0  0  0  0  0
    7.3600   53.2858   26.9305 H   0  0  0  0  0  0
    7.1967   55.0406   27.2005 H   0  0  0  0  0  0
    0.3316   53.8189   28.2681 H   0  0  0  0  0  0
    0.9210   52.1251   28.3676 H   0  0  0  0  0  0
    1.7215   51.7098   24.8837 H   0  0  0  0  0  0
    0.5959   53.0535   24.7327 H   0  0  0  0  0  0
   -2.2493   50.8920   25.1058 H   0  0  0  0  0  0
   -1.6511   52.3582   24.4001 H   0  0  0  0  0  0
   -1.5629   50.4573   22.7508 H   0  0  0  0  0  0
    0.0844   51.0419   23.0719 H   0  0  0  0  0  0
   -1.2476   48.7113   24.3419 H   0  0  0  0  0  0
    0.7566   48.1514   25.4509 H   0  0  0  0  0  0
    1.5361   49.5455   24.6936 H   0  0  0  0  0  0
    0.8338   50.0965   27.0940 H   0  0  0  0  0  0
   -0.7723   49.5750   26.7368 H   0  0  0  0  0  0
   -3.0745   51.4076   26.6927 H   0  0  0  0  0  0
   -3.2887   49.8869   29.2041 H   0  0  0  0  0  0
   -4.5353   51.8605   29.6819 H   0  0  0  0  0  0
   -5.5686   50.4960   29.6166 H   0  0  0  0  0  0
   -5.3456   52.1891   27.0913 H   0  0  0  0  0  0
   -6.0971   52.9142   28.4546 H   0  0  0  0  0  0
   -7.7064   51.8362   26.8590 H   0  0  0  0  0  0
   -7.9023   51.4615   28.5411 H   0  0  0  0  0  0
   -8.2983   49.4860   27.2500 H   0  0  0  0  0  0
   -6.9268   49.2248   28.2541 H   0  0  0  0  0  0
   -6.9067   49.7881   25.2471 H   0  0  0  0  0  0
   -6.6716   48.2488   26.0069 H   0  0  0  0  0  0
   -4.7113   50.5406   25.8086 H   0  0  0  0  0  0
   -4.5403   48.9033   25.3296 H   0  0  0  0  0  0
   -4.7781   48.4410   28.0190 H   0  0  0  0  0  0
   -3.2957   48.6394   27.1806 H   0  0  0  0  0  0
   -0.0625   48.6308   23.2313 H   0  0  0  0  0  0
  1  2  1  0  0  0
  1 35  1  0  0  0
  1 36  1  0  0  0
  1 37  1  0  0  0
  2  3  1  0  0  0
  3  8  2  0  0  0
  3  4  1  0  0  0
  4  5  2  0  0  0
  4 38  1  0  0  0
  5  6  1  0  0  0
  5 39  1  0  0  0
  6  7  2  0  0  0
  6 11  1  0  0  0
  7  8  1  0  0  0
  7  9  1  0  0  0
  8 40  1  0  0  0
  9 10  1  0  0  0
 10 41  1  0  0  0
 10 42  1  0  0  0
 10 43  1  0  0  0
 11 12  2  0  0  0
 11 13  1  0  0  0
 13 18  1  0  0  0
 13 14  1  0  0  0
 14 15  1  0  0  0
 14 44  1  0  0  0
 14 45  1  0  0  0
 15 16  1  0  0  0
 15 17  1  0  0  0
 15 24  1  0  0  0
 17 23  1  0  0  0
 17 18  1  0  0  0
 17 19  1  0  0  0
 18 46  1  0  0  0
 18 47  1  0  0  0
 19 20  1  0  0  0
 19 48  1  0  0  0
 19 49  1  0  0  0
 20 21  1  0  0  0
 20 50  1  0  0  0
 20 51  1  0  0  0
 21 22  1  0  0  0
 21 52  1  0  0  0
 21 73  1  0  0  0
 22 23  1  0  0  0
 22 53  1  0  0  0
 22 54  1  0  0  0
 23 55  1  0  0  0
 23 56  1  0  0  0
 24 25  2  0  0  0
 24 26  1  0  0  0
 26 27  1  0  0  0
 26 57  1  0  0  0
 27 34  1  0  0  0
 27 28  1  0  0  0
 27 58  1  0  0  0
 28 29  1  0  0  0
 28 59  1  0  0  0
 28 60  1  0  0  0
 29 30  1  0  0  0
 29 61  1  0  0  0
 29 62  1  0  0  0
 30 31  1  0  0  0
 30 63  1  0  0  0
 30 64  1  0  0  0
 31 32  1  0  0  0
 31 65  1  0  0  0
 31 66  1  0  0  0
 32 33  1  0  0  0
 32 67  1  0  0  0
 32 68  1  0  0  0
 33 34  1  0  0  0
 33 69  1  0  0  0
 33 70  1  0  0  0
 34 71  1  0  0  0
 34 72  1  0  0  0
M  CHG  1  21   1
M  END
> <i_i_glide_confnum>
404

> <i_i_glide_lignum>
178

> <i_i_glide_posenum>
324

> <i_i_glide_rotatable_bonds>
7

> <i_m_Source_File_Index>
2101

> <b_m_subgroup_collapsed>
0

> <r_i_docking_score>
-4.60066

> <r_i_glide_ecoul>
-2.63458

> <r_i_glide_eff_state_penalty>
0

> <r_i_glide_einternal>
3.52658

> <r_i_glide_emodel>
-45.4416

> <r_i_glide_energy>
-36.1478

> <r_i_glide_erotb>
0.478165

> <r_i_glide_esite>
-0.167198

> <r_i_glide_evdw>
-33.5133

> <r_i_glide_gscore>
-4.60066

> <r_i_glide_hbond>
0

> <r_i_glide_ligand_efficiency>
-0.139414

> <r_i_glide_ligand_efficiency_ln>
-1.02316

> <r_i_glide_ligand_efficiency_sa>
-0.447175

> <r_i_glide_lipo>
-2.04562

> <r_i_glide_metal>
0

> <r_i_glide_rewards>
-0.795159

> <s_i_glide_gridfile>
wee1_glide-grid

> <s_m_Source_File>
wee1_decoys_glide_SP.sdf

> <s_m_Source_Path>
/Users/zhangxujun/Desktop

> <s_m_entry_id>
2376

> <s_m_entry_name>
wee1_decoys_glide_SP.2101

> <s_m_subgroup_title>
wee1_decoys_glide_SP

> <s_m_subgroupid>
wee1_decoys_glide_SP


$$$$
