ZINC16572409_3967
                    3D
 Schrodinger Suite 2024-2.
 53 56  0  0  1  0            999 V2000
    0.8942   52.5116   17.1186 C   0  0  0  0  0  0
    1.5527   53.8793   16.9881 C   0  0  0  0  0  0
    0.7605   54.9569   16.5865 C   0  0  0  0  0  0
    1.3052   56.2319   16.4812 C   0  0  0  0  0  0
    2.6470   56.4427   16.7767 C   0  0  0  0  0  0
    3.4696   55.3781   17.1800 C   0  0  0  0  0  0
    2.9173   54.0797   17.2854 C   0  0  0  0  0  0
    3.7964   52.8978   17.7195 C   0  0  0  0  0  0
    4.8334   55.5401   17.5117 N   0  0  0  0  0  0
    5.6500   56.6146   17.4074 C   0  0  0  0  0  0
    5.3056   57.6909   16.9250 O   0  0  0  0  0  0
    6.9221   56.4045   17.8455 N   0  0  0  0  0  0
    8.0111   57.3426   17.5444 C   0  0  0  0  0  0
    9.2307   56.8305   18.3030 C   0  0  0  0  0  0
    8.9489   55.3423   18.4588 C   0  0  0  0  0  0
    7.4207   55.2457   18.6231 C   0  0  1  0  0  0
    7.0897   54.3012   18.1827 H   0  0  0  0  0  0
    6.9608   55.2968   20.0957 C   0  0  0  0  0  0
    7.6186   55.9498   20.9053 O   0  0  0  0  0  0
    5.8413   54.6001   20.3792 N   0  0  0  0  0  0
    5.2698   54.4303   21.6280 C   0  0  0  0  0  0
    4.0138   54.0919   21.7589 N   0  0  0  0  0  0
    3.6380   53.9490   23.0870 N   0  0  0  0  0  0
    4.6276   54.1407   23.9339 C   0  0  0  0  0  0
    6.1448   54.4963   23.1440 S   0  0  0  0  0  0
    4.4839   54.0978   25.4275 C   0  0  0  0  0  0
    3.2364   53.7903   25.9873 C   0  0  0  0  0  0
    3.0692   53.7567   27.3672 C   0  0  0  0  0  0
    4.1495   54.0378   28.1980 C   0  0  0  0  0  0
    5.3985   54.3419   27.6624 C   0  0  0  0  0  0
    5.5638   54.3732   26.2797 C   0  0  0  0  0  0
    3.9041   54.0054   30.0818 Br  0  0  0  0  0  0
    1.3226   51.8150   16.3984 H   0  0  0  0  0  0
    1.0637   52.1091   18.1195 H   0  0  0  0  0  0
   -0.1844   52.5558   16.9606 H   0  0  0  0  0  0
   -0.2858   54.8135   16.3606 H   0  0  0  0  0  0
    0.6845   57.0636   16.1786 H   0  0  0  0  0  0
    3.0099   57.4553   16.6965 H   0  0  0  0  0  0
    3.3738   51.9190   17.4828 H   0  0  0  0  0  0
    4.7601   52.9201   17.2097 H   0  0  0  0  0  0
    3.9800   52.9367   18.7957 H   0  0  0  0  0  0
    5.2720   54.6861   17.8127 H   0  0  0  0  0  0
    7.7647   58.3701   17.8250 H   0  0  0  0  0  0
    8.1963   57.3222   16.4693 H   0  0  0  0  0  0
    9.2724   57.3032   19.2823 H   0  0  0  0  0  0
   10.1751   57.0404   17.7985 H   0  0  0  0  0  0
    9.5055   54.9008   19.2855 H   0  0  0  0  0  0
    9.2435   54.8155   17.5505 H   0  0  0  0  0  0
    5.3222   54.2066   19.6120 H   0  0  0  0  0  0
    2.3852   53.5753   25.3581 H   0  0  0  0  0  0
    2.1046   53.5172   27.7922 H   0  0  0  0  0  0
    6.2319   54.5587   28.3159 H   0  0  0  0  0  0
    6.5366   54.6171   25.8805 H   0  0  0  0  0  0
  1  2  1  0  0  0
  1 33  1  0  0  0
  1 34  1  0  0  0
  1 35  1  0  0  0
  2  7  2  0  0  0
  2  3  1  0  0  0
  3  4  2  0  0  0
  3 36  1  0  0  0
  4  5  1  0  0  0
  4 37  1  0  0  0
  5  6  2  0  0  0
  5 38  1  0  0  0
  6  7  1  0  0  0
  6  9  1  0  0  0
  7  8  1  0  0  0
  8 39  1  0  0  0
  8 40  1  0  0  0
  8 41  1  0  0  0
  9 10  1  0  0  0
  9 42  1  0  0  0
 10 11  2  0  0  0
 10 12  1  0  0  0
 12 16  1  0  0  0
 12 13  1  0  0  0
 13 14  1  0  0  0
 13 43  1  0  0  0
 13 44  1  0  0  0
 14 15  1  0  0  0
 14 45  1  0  0  0
 14 46  1  0  0  0
 15 16  1  0  0  0
 15 47  1  0  0  0
 15 48  1  0  0  0
 16 17  1  0  0  0
 16 18  1  0  0  0
 18 19  2  0  0  0
 18 20  1  0  0  0
 20 21  1  0  0  0
 20 49  1  0  0  0
 21 25  1  0  0  0
 21 22  2  0  0  0
 22 23  1  0  0  0
 23 24  2  0  0  0
 24 25  1  0  0  0
 24 26  1  0  0  0
 26 31  2  0  0  0
 26 27  1  0  0  0
 27 28  2  0  0  0
 27 50  1  0  0  0
 28 29  1  0  0  0
 28 51  1  0  0  0
 29 30  2  0  0  0
 29 32  1  0  0  0
 30 31  1  0  0  0
 30 52  1  0  0  0
 31 53  1  0  0  0
M  END
> <i_i_glide_confnum>
271

> <i_i_glide_lignum>
3968

> <i_i_glide_posenum>
216

> <i_i_glide_rotatable_bonds>
7

> <i_m_Source_File_Index>
5274

> <b_m_subgroup_collapsed>
0

> <r_i_docking_score>
-4.64721

> <r_i_glide_ecoul>
-2.21762

> <r_i_glide_eff_state_penalty>
0

> <r_i_glide_einternal>
4.11072

> <r_i_glide_emodel>
-57.3545

> <r_i_glide_energy>
-44.9105

> <r_i_glide_erotb>
0.570803

> <r_i_glide_esite>
0

> <r_i_glide_evdw>
-42.6928

> <r_i_glide_gscore>
-4.64721

> <r_i_glide_hbond>
-0.0498862

> <r_i_glide_ligand_efficiency>
-0.14991

> <r_i_glide_ligand_efficiency_ln>
-1.04809

> <r_i_glide_ligand_efficiency_sa>
-0.470925

> <r_i_glide_lipo>
-2.43499

> <r_i_glide_metal>
0

> <r_i_glide_rewards>
-0.265853

> <s_i_glide_gridfile>
wee1_glide-grid

> <s_m_Source_File>
wee1_decoys_glide_SP.sdf

> <s_m_Source_Path>
/Users/zhangxujun/Desktop

> <s_m_entry_id>
5549

> <s_m_entry_name>
wee1_decoys_glide_SP.5274

> <s_m_subgroup_title>
wee1_decoys_glide_SP

> <s_m_subgroupid>
wee1_decoys_glide_SP


$$$$
