ZINC12658186_156
                    3D
 Schrodinger Suite 2024-2.
 64 67  0  0  1  0            999 V2000
    5.8152   52.6824   15.3790 C   0  0  0  0  0  0
    4.9815   54.3423   17.2214 C   0  0  1  0  0  0
    5.9316   54.7507   16.8673 H   0  0  0  0  0  0
    3.8200   55.0741   16.5195 C   0  0  0  0  0  0
    2.4551   54.9376   17.2146 C   0  0  0  0  0  0
    2.0834   53.5206   17.6507 C   0  0  0  0  0  0
    1.0364   52.8807   16.9858 C   0  0  0  0  0  0
    0.6400   51.5809   17.3051 C   0  0  0  0  0  0
    1.3297   50.8988   18.3061 C   0  0  0  0  0  0
    2.3881   51.5170   18.9978 C   0  0  0  0  0  0
    2.7870   52.8481   18.6850 C   0  0  0  0  0  0
    3.9118   53.5336   19.4514 C   0  0  0  0  0  0
    4.9024   54.3929   18.7530 C   0  0  0  0  0  0
    5.7907   55.2428   19.3264 C   0  0  0  0  0  0
    6.1184   55.5891   20.7002 C   0  0  0  0  0  0
    6.7083   56.6593   20.8823 O   0  0  0  0  0  0
    5.7889   54.6802   21.8150 C   0  0  0  0  0  0
    4.8712   53.6933   21.8170 C   0  0  0  0  0  0
    3.9311   53.3010   20.7876 C   0  0  0  0  0  0
    6.6196   54.9076   22.9067 N   0  0  0  0  0  0
    6.8508   54.0682   24.0807 C   0  0  0  0  0  0
    5.9650   54.3377   25.2981 C   0  0  0  0  0  0
    4.5732   54.4452   25.1913 C   0  0  0  0  0  0
    3.7866   54.4959   26.3397 C   0  0  0  0  0  0
    4.3876   54.4949   27.5954 C   0  0  0  0  0  0
    5.7722   54.4402   27.7124 C   0  0  0  0  0  0
    6.5556   54.3473   26.5668 C   0  0  0  0  0  0
    3.6219   54.5551   28.7086 F   0  0  0  0  0  0
    3.0975   50.7856   19.9349 O   0  0  0  0  0  0
    2.3699   50.2616   21.0459 C   0  0  0  0  0  0
    0.9332   49.6161   18.6120 O   0  0  0  0  0  0
    1.7361   48.5981   18.0298 C   0  0  0  0  0  0
   -0.3986   50.9148   16.6773 O   0  0  0  0  0  0
   -1.1132   51.5545   15.6257 C   0  0  0  0  0  0
    5.7435   51.6163   15.1579 H   0  0  0  0  0  0
    5.3252   53.2800   14.6100 H   0  0  0  0  0  0
    6.8524   52.9841   15.5333 H   0  0  0  0  0  0
    4.0589   56.1381   16.4693 H   0  0  0  0  0  0
    3.7339   54.7587   15.4788 H   0  0  0  0  0  0
    2.4158   55.5918   18.0805 H   0  0  0  0  0  0
    1.6899   55.3390   16.5479 H   0  0  0  0  0  0
    0.5248   53.4204   16.2044 H   0  0  0  0  0  0
    6.4283   55.8030   18.6558 H   0  0  0  0  0  0
    4.8089   53.0750   22.6982 H   0  0  0  0  0  0
    3.0974   52.7578   21.1993 H   0  0  0  0  0  0
    7.1584   55.7640   22.9222 H   0  0  0  0  0  0
    7.9029   54.0970   24.3482 H   0  0  0  0  0  0
    6.6585   53.0390   23.7894 H   0  0  0  0  0  0
    4.0816   54.4420   24.2327 H   0  0  0  0  0  0
    2.7104   54.5116   26.2597 H   0  0  0  0  0  0
    6.2350   54.4443   28.6890 H   0  0  0  0  0  0
    7.6213   54.2482   26.6842 H   0  0  0  0  0  0
    3.0275   50.2208   21.9141 H   0  0  0  0  0  0
    1.5050   50.8703   21.3168 H   0  0  0  0  0  0
    2.0333   49.2436   20.8520 H   0  0  0  0  0  0
    1.2736   47.6272   18.2057 H   0  0  0  0  0  0
    1.8372   48.7264   16.9504 H   0  0  0  0  0  0
    2.7287   48.5739   18.4811 H   0  0  0  0  0  0
   -1.8830   50.8790   15.2526 H   0  0  0  0  0  0
   -1.6103   52.4620   15.9720 H   0  0  0  0  0  0
   -0.4573   51.8003   14.7891 H   0  0  0  0  0  0
    5.0653   52.8953   16.7061 N   0  3  0  0  0  0
    5.4910   52.3028   17.4153 H   0  0  0  0  0  0
    4.1195   52.5454   16.6194 H   0  0  0  0  0  0
  1 35  1  0  0  0
  1 36  1  0  0  0
  1 37  1  0  0  0
  1 62  1  0  0  0
  2  3  1  0  0  0
  2 13  1  0  0  0
  2  4  1  0  0  0
  2 62  1  0  0  0
  4  5  1  0  0  0
  4 38  1  0  0  0
  4 39  1  0  0  0
  5  6  1  0  0  0
  5 40  1  0  0  0
  5 41  1  0  0  0
  6 11  2  0  0  0
  6  7  1  0  0  0
  7  8  2  0  0  0
  7 42  1  0  0  0
  8  9  1  0  0  0
  8 33  1  0  0  0
  9 10  2  0  0  0
  9 31  1  0  0  0
 10 11  1  0  0  0
 10 29  1  0  0  0
 11 12  1  0  0  0
 12 19  2  0  0  0
 12 13  1  0  0  0
 13 14  2  0  0  0
 14 15  1  0  0  0
 14 43  1  0  0  0
 15 16  2  0  0  0
 15 17  1  0  0  0
 17 18  2  0  0  0
 17 20  1  0  0  0
 18 19  1  0  0  0
 18 44  1  0  0  0
 19 45  1  0  0  0
 20 21  1  0  0  0
 20 46  1  0  0  0
 21 22  1  0  0  0
 21 47  1  0  0  0
 21 48  1  0  0  0
 22 27  2  0  0  0
 22 23  1  0  0  0
 23 24  2  0  0  0
 23 49  1  0  0  0
 24 25  1  0  0  0
 24 50  1  0  0  0
 25 26  2  0  0  0
 25 28  1  0  0  0
 26 27  1  0  0  0
 26 51  1  0  0  0
 27 52  1  0  0  0
 29 30  1  0  0  0
 30 53  1  0  0  0
 30 54  1  0  0  0
 30 55  1  0  0  0
 31 32  1  0  0  0
 32 56  1  0  0  0
 32 57  1  0  0  0
 32 58  1  0  0  0
 33 34  1  0  0  0
 34 59  1  0  0  0
 34 60  1  0  0  0
 34 61  1  0  0  0
 62 63  1  0  0  0
 62 64  1  0  0  0
M  CHG  1  62   1
M  END
> <i_i_glide_confnum>
23

> <i_i_glide_lignum>
157

> <i_i_glide_posenum>
154

> <i_i_glide_rotatable_bonds>
7

> <i_m_Source_File_Index>
177

> <b_m_subgroup_collapsed>
0

> <r_i_docking_score>
-6.16715

> <r_i_glide_ecoul>
-5.19605

> <r_i_glide_eff_state_penalty>
0

> <r_i_glide_einternal>
1.73064

> <r_i_glide_emodel>
-60.6962

> <r_i_glide_energy>
-42.2399

> <r_i_glide_erotb>
0.279173

> <r_i_glide_esite>
-0.0722499

> <r_i_glide_evdw>
-37.0438

> <r_i_glide_gscore>
-6.16715

> <r_i_glide_hbond>
-0.474738

> <r_i_glide_ligand_efficiency>
-0.181387

> <r_i_glide_ligand_efficiency_ln>
-1.3625

> <r_i_glide_ligand_efficiency_sa>
-0.587622

> <r_i_glide_lipo>
-2.58622

> <r_i_glide_metal>
0

> <r_i_glide_rewards>
-0.681515

> <s_i_glide_gridfile>
wee1_glide-grid

> <s_m_Source_File>
wee1_decoys_glide_SP.sdf

> <s_m_Source_Path>
/Users/zhangxujun/Desktop

> <s_m_entry_id>
452

> <s_m_entry_name>
wee1_decoys_glide_SP.177

> <s_m_subgroup_title>
wee1_decoys_glide_SP

> <s_m_subgroupid>
wee1_decoys_glide_SP


$$$$
