ZINC20532302_1126
                    3D
 Schrodinger Suite 2024-2.
 63 66  0  0  1  0            999 V2000
    1.8568   49.6684   22.3840 C   0  0  0  0  0  0
    2.5759   50.7873   21.6786 C   0  0  0  0  0  0
    3.1815   50.9116   20.4413 C   0  0  0  0  0  0
    3.6737   52.2136   20.3616 C   0  0  0  0  0  0
    3.3463   52.8377   21.5537 C   0  0  0  0  0  0
    2.6803   51.9636   22.3490 O   0  0  0  0  0  0
    3.5223   54.2484   22.0713 C   0  0  0  0  0  0
    4.8362   54.4711   22.7432 N   0  0  0  0  0  0
    4.9002   54.1678   24.2177 C   0  0  2  0  0  0
    3.5325   53.9415   24.9341 C   0  0  0  0  0  0
    3.5958   53.5356   26.4099 C   0  0  0  0  0  0
    4.4191   54.5745   27.1850 N   0  3  2  0  0  0
    5.8550   54.6194   26.6225 C   0  0  0  0  0  0
    5.8125   55.0555   25.1399 C   0  0  0  0  0  0
    4.4311   54.2340   28.6968 C   0  0  0  0  0  0
    3.0472   54.1775   29.3361 C   0  0  0  0  0  0
    2.4710   52.9446   29.6598 C   0  0  0  0  0  0
    1.2028   52.8959   30.2343 C   0  0  0  0  0  0
    0.5216   54.0811   30.4977 C   0  0  0  0  0  0
    1.1000   55.3132   30.1950 C   0  0  0  0  0  0
    2.3545   55.3610   29.6023 C   0  0  0  0  0  0
    5.9554   54.7885   22.0086 C   0  0  0  0  0  0
    7.0809   54.8215   22.4990 O   0  0  0  0  0  0
    5.7348   55.1539   20.7236 N   0  0  0  0  0  0
    6.6049   55.7113   19.7724 C   0  0  0  0  0  0
    8.0071   55.6965   19.8520 C   0  0  0  0  0  0
    8.7711   56.2805   18.8441 C   0  0  0  0  0  0
    8.1493   56.8856   17.7534 C   0  0  0  0  0  0
    6.7536   56.9039   17.6558 C   0  0  0  0  0  0
    5.9927   56.3091   18.6669 C   0  0  0  0  0  0
    6.0631   57.5616   16.4626 C   0  0  0  0  0  0
    5.8189   56.6290   15.5436 F   0  0  0  0  0  0
    6.8253   58.5070   15.9118 F   0  0  0  0  0  0
    4.9035   58.1139   16.8216 F   0  0  0  0  0  0
    1.7772   48.7827   21.7568 H   0  0  0  0  0  0
    2.3767   49.3715   23.2920 H   0  0  0  0  0  0
    0.8456   49.9561   22.6682 H   0  0  0  0  0  0
    3.2596   50.1565   19.6716 H   0  0  0  0  0  0
    4.1945   52.6454   19.5191 H   0  0  0  0  0  0
    2.6838   54.5750   22.6857 H   0  0  0  0  0  0
    3.4176   54.8974   21.2097 H   0  0  0  0  0  0
    5.3826   53.1925   24.2322 H   0  0  0  0  0  0
    2.9457   54.8583   24.8700 H   0  0  0  0  0  0
    2.9626   53.1643   24.4345 H   0  0  0  0  0  0
    4.0627   52.5702   26.5883 H   0  0  0  0  0  0
    2.5864   53.5388   26.8216 H   0  0  0  0  0  0
    6.2971   53.6271   26.7486 H   0  0  0  0  0  0
    6.4117   55.3432   27.2226 H   0  0  0  0  0  0
    6.8506   55.0476   24.8099 H   0  0  0  0  0  0
    5.4893   56.0962   25.0958 H   0  0  0  0  0  0
    4.9577   53.2799   28.7852 H   0  0  0  0  0  0
    5.0461   55.0041   29.1680 H   0  0  0  0  0  0
    2.9919   52.0223   29.4500 H   0  0  0  0  0  0
    0.7431   51.9478   30.4744 H   0  0  0  0  0  0
   -0.4612   54.0377   30.9424 H   0  0  0  0  0  0
    0.5731   56.2300   30.4156 H   0  0  0  0  0  0
    2.7853   56.3198   29.3545 H   0  0  0  0  0  0
    4.7786   55.0856   20.4114 H   0  0  0  0  0  0
    8.5299   55.2283   20.6703 H   0  0  0  0  0  0
    9.8494   56.2598   18.9069 H   0  0  0  0  0  0
    8.7583   57.3321   16.9810 H   0  0  0  0  0  0
    4.9143   56.3208   18.5885 H   0  0  0  0  0  0
    3.9924   55.4848   27.0762 H   0  0  0  0  0  0
  1  2  1  0  0  0
  1 35  1  0  0  0
  1 36  1  0  0  0
  1 37  1  0  0  0
  2  6  1  0  0  0
  2  3  2  0  0  0
  3  4  1  0  0  0
  3 38  1  0  0  0
  4  5  2  0  0  0
  4 39  1  0  0  0
  5  6  1  0  0  0
  5  7  1  0  0  0
  7  8  1  0  0  0
  7 40  1  0  0  0
  7 41  1  0  0  0
  8  9  1  0  0  0
  8 22  1  0  0  0
  9 14  1  0  0  0
  9 10  1  0  0  0
  9 42  1  0  0  0
 10 11  1  0  0  0
 10 43  1  0  0  0
 10 44  1  0  0  0
 11 12  1  0  0  0
 11 45  1  0  0  0
 11 46  1  0  0  0
 12 13  1  0  0  0
 12 15  1  0  0  0
 12 63  1  0  0  0
 13 14  1  0  0  0
 13 47  1  0  0  0
 13 48  1  0  0  0
 14 49  1  0  0  0
 14 50  1  0  0  0
 15 16  1  0  0  0
 15 51  1  0  0  0
 15 52  1  0  0  0
 16 21  2  0  0  0
 16 17  1  0  0  0
 17 18  2  0  0  0
 17 53  1  0  0  0
 18 19  1  0  0  0
 18 54  1  0  0  0
 19 20  2  0  0  0
 19 55  1  0  0  0
 20 21  1  0  0  0
 20 56  1  0  0  0
 21 57  1  0  0  0
 22 23  2  0  0  0
 22 24  1  0  0  0
 24 25  1  0  0  0
 24 58  1  0  0  0
 25 30  2  0  0  0
 25 26  1  0  0  0
 26 27  2  0  0  0
 26 59  1  0  0  0
 27 28  1  0  0  0
 27 60  1  0  0  0
 28 29  2  0  0  0
 28 61  1  0  0  0
 29 30  1  0  0  0
 29 31  1  0  0  0
 30 62  1  0  0  0
 31 32  1  0  0  0
 31 33  1  0  0  0
 31 34  1  0  0  0
M  CHG  1  12   1
M  END
> <i_i_glide_confnum>
80

> <i_i_glide_lignum>
1127

> <i_i_glide_posenum>
312

> <i_i_glide_rotatable_bonds>
9

> <i_m_Source_File_Index>
4193

> <b_m_subgroup_collapsed>
0

> <r_i_docking_score>
-5.90207

> <r_i_glide_ecoul>
-1.51784

> <r_i_glide_eff_state_penalty>
0

> <r_i_glide_einternal>
13.8411

> <r_i_glide_emodel>
-55.5429

> <r_i_glide_energy>
-45.8479

> <r_i_glide_erotb>
0.724504

> <r_i_glide_esite>
-0.0839461

> <r_i_glide_evdw>
-44.3301

> <r_i_glide_gscore>
-5.90207

> <r_i_glide_hbond>
0

> <r_i_glide_ligand_efficiency>
-0.17359

> <r_i_glide_ligand_efficiency_ln>
-1.30393

> <r_i_glide_ligand_efficiency_sa>
-0.562365

> <r_i_glide_lipo>
-3.33648

> <r_i_glide_metal>
0

> <r_i_glide_rewards>
-0.761972

> <s_i_glide_gridfile>
wee1_glide-grid

> <s_m_Source_File>
wee1_decoys_glide_SP.sdf

> <s_m_Source_Path>
/Users/zhangxujun/Desktop

> <s_m_entry_id>
4468

> <s_m_entry_name>
wee1_decoys_glide_SP.4193

> <s_m_subgroup_title>
wee1_decoys_glide_SP

> <s_m_subgroupid>
wee1_decoys_glide_SP


$$$$
