@<TRIPOS>MOLECULE
ZINC09510383_2746
57   61    1
SMALL
USER_CHARGES


@<TRIPOS>ATOM
      1 C1         -3.9468   50.7644   19.9737 C.3       1 UNK         0.0000 
      2 C2         -2.8100   49.8348   20.4271 C.3       1 UNK         0.0000 
      3 O3         -2.1509   50.3492   21.5805 O.3       1 UNK         0.0000 
      4 C4         -1.1220   51.2263   21.4905 C.2       1 UNK         0.0000 
      5 O5         -0.7062   51.6517   20.4077 O.2       1 UNK         0.0000 
      6 C6         -0.5489   51.6147   22.8217 C.2       1 UNK         0.0000 
      7 C7          0.6829   52.1985   22.8464 C.2       1 UNK         0.0000 
      8 O8          1.3166   52.5969   23.9674 O.3       1 UNK         0.0000 
      9 C9          0.7327   52.4997   25.1801 C.2       1 UNK         0.0000 
     10 C10        -0.5217   52.0193   25.3811 C.2       1 UNK         0.0000 
     11 C11        -1.3351   51.4290   24.1731 C.3       1 UNK         0.0000 
     12 C12        -1.7321   50.0069   24.4674 C.ar      1 UNK         0.0000 
     13 C13        -0.9495   48.8708   24.6925 C.ar      1 UNK         0.0000 
     14 C14        -1.5664   47.6692   25.0421 C.ar      1 UNK         0.0000 
     15 C15        -2.9567   47.6022   25.1581 C.ar      1 UNK         0.0000 
     16 C16        -3.7370   48.7358   24.9187 C.ar      1 UNK         0.0000 
     17 C17        -3.1120   49.9378   24.5711 C.ar      1 UNK         0.0000 
     18 N18        -3.6749   51.1933   24.3153 N.am      1 UNK         0.0000 
     19 C19        -2.7231   52.1231   24.0301 C.2       1 UNK         0.0000 
     20 O20        -2.8950   53.2979   23.6929 O.2       1 UNK         0.0000 
     21 C21        -5.1187   51.4601   24.1646 C.3       1 UNK         0.0000 
     22 C22        -5.8097   52.5388   25.0107 C.ar      1 UNK         0.0000 
     23 C23        -7.1900   52.6890   24.8479 C.ar      1 UNK         0.0000 
     24 C24        -7.8868   53.6610   25.5594 C.ar      1 UNK         0.0000 
     25 C25        -7.2012   54.4939   26.4377 C.ar      1 UNK         0.0000 
     26 C26        -5.8273   54.3578   26.6073 C.ar      1 UNK         0.0000 
     27 C27        -5.1338   53.3713   25.9117 C.ar      1 UNK         0.0000 
     28 C28        -1.0877   52.0295   26.7681 C.2       1 UNK         0.0000 
     29 O29        -2.2457   51.7038   27.0203 O.2       1 UNK         0.0000 
     30 C30        -0.2144   52.5976   27.9005 C.3       1 UNK         0.0000 
     31 C31         1.2885   52.4329   27.6289 C.3       1 UNK         0.0000 
     32 C32         1.6814   53.0083   26.2583 C.3       1 UNK         0.0000 
     33 N33         1.5358   52.4959   21.8131 N.pl3     1 UNK         0.0000 
     34 H34        -4.4510   50.3555   19.0989 H         1 UNK         0.0000 
     35 H35        -3.5759   51.7569   19.7093 H         1 UNK         0.0000 
     36 H36        -4.6911   50.8778   20.7635 H         1 UNK         0.0000 
     37 H37        -3.2260   48.8599   20.6892 H         1 UNK         0.0000 
     38 H38        -2.1010   49.6579   19.6140 H         1 UNK         0.0000 
     39 H39         0.1284   48.9177   24.6371 H         1 UNK         0.0000 
     40 H40        -0.9591   46.8035   25.2626 H         1 UNK         0.0000 
     41 H41        -3.4287   46.6781   25.4551 H         1 UNK         0.0000 
     42 H42        -4.8079   48.6646   25.0300 H         1 UNK         0.0000 
     43 H43        -5.2990   51.6963   23.1166 H         1 UNK         0.0000 
     44 H44        -5.6611   50.5332   24.3457 H         1 UNK         0.0000 
     45 H45        -7.7273   52.0579   24.1548 H         1 UNK         0.0000 
     46 H46        -8.9518   53.7726   25.4218 H         1 UNK         0.0000 
     47 H47        -7.7365   55.2559   26.9838 H         1 UNK         0.0000 
     48 H48        -5.2996   55.0147   27.2817 H         1 UNK         0.0000 
     49 H49        -4.0730   53.2785   26.0764 H         1 UNK         0.0000 
     50 H50        -0.5201   52.1528   28.8486 H         1 UNK         0.0000 
     51 H51        -0.4423   53.6625   27.9571 H         1 UNK         0.0000 
     52 H52         1.5444   51.3720   27.6733 H         1 UNK         0.0000 
     53 H53         1.8675   52.9148   28.4178 H         1 UNK         0.0000 
     54 H54         2.6951   52.6697   26.0389 H         1 UNK         0.0000 
     55 H55         1.7335   54.0951   26.2431 H         1 UNK         0.0000 
     56 H56         1.2601   52.3108   20.8574 H         1 UNK         0.0000 
     57 H57         2.4126   52.9681   21.9726 H         1 UNK         0.0000 
@<TRIPOS>BOND
     1    1    2 1    
     2    1   34 1    
     3    1   35 1    
     4    1   36 1    
     5    2    3 1    
     6    2   37 1    
     7    2   38 1    
     8    3    4 1    
     9    4    5 2    
    10    4    6 1    
    11    6   11 1    
    12    6    7 2    
    13    7    8 1    
    14    7   33 1    
    15    8    9 1    
    16    9   32 1    
    17    9   10 2    
    18   10   11 1    
    19   10   28 1    
    20   11   19 1    
    21   11   12 1    
    22   12   17 ar   
    23   12   13 ar   
    24   13   14 ar   
    25   13   39 1    
    26   14   15 ar   
    27   14   40 1    
    28   15   16 ar   
    29   15   41 1    
    30   16   17 ar   
    31   16   42 1    
    32   17   18 1    
    33   18   19 am   BACKBONE|DICT|INTERRES
    34   18   21 1    
    35   19   20 2    
    36   21   22 1    
    37   21   43 1    
    38   21   44 1    
    39   22   27 ar   
    40   22   23 ar   
    41   23   24 ar   
    42   23   45 1    
    43   24   25 ar   
    44   24   46 1    
    45   25   26 ar   
    46   25   47 1    
    47   26   27 ar   
    48   26   48 1    
    49   27   49 1    
    50   28   29 2    
    51   28   30 1    
    52   30   31 1    
    53   30   50 1    
    54   30   51 1    
    55   31   32 1    
    56   31   52 1    
    57   31   53 1    
    58   32   54 1    
    59   32   55 1    
    60   33   56 1    
    61   33   57 1    
@<TRIPOS>SUBSTRUCTURE
     1 UNK         1 GROUP             0       ****    0 ROOT    
