@<TRIPOS>MOLECULE
ZINC64531536_5873
57   59    1
SMALL
USER_CHARGES


@<TRIPOS>ATOM
      1 C1          7.1649   53.6536   28.2415 C.3       1 UNK         0.0000 
      2 C2          5.7709   54.2542   28.0422 C.3       1 UNK         0.0000 
      3 N3          5.3161   54.1500   26.6577 N.am      1 UNK         0.0000 
      4 C4          5.8192   54.8445   25.6210 C.2       1 UNK         0.0000 
      5 O5          6.7044   55.6943   25.7385 O.2       1 UNK         0.0000 
      6 C6          5.2663   54.4935   24.2653 C.ar      1 UNK         0.0000 
      7 C7          6.0880   54.5820   23.1378 C.ar      1 UNK         0.0000 
      8 C8          5.5850   54.2796   21.8763 C.ar      1 UNK         0.0000 
      9 C9          4.2695   53.8444   21.7115 C.ar      1 UNK         0.0000 
     10 C10         3.4158   53.7826   22.8360 C.ar      1 UNK         0.0000 
     11 C11         3.9308   54.0972   24.0990 C.ar      1 UNK         0.0000 
     12 C12         1.9281   53.4669   22.7516 C.3       1 UNK         0.0000 
     13 N13         3.9067   53.5650   20.3840 N.am      1 UNK         0.0000 
     14 C14         3.2408   52.4985   19.8964 C.2       1 UNK         0.0000 
     15 O15         2.7175   51.6387   20.6086 O.2       1 UNK         0.0000 
     16 N16         3.1064   52.5057   18.5465 N.am      1 UNK         0.0000 
     17 C17         1.9776   51.8344   17.8917 C.3       1 UNK         0.0000 
     18 C18         2.0687   52.3209   16.4473 C.3       1 UNK         0.0000 
     19 C19         3.5592   52.4947   16.2212 C.3       1 UNK         0.0000 
     20 C20         4.1093   52.9956   17.5655 C.3       1 UNK         0.0000 
     21 C21         4.4644   54.4869   17.6025 C.ar      1 UNK         0.0000 
     22 C22         3.5157   55.4778   17.3387 C.ar      1 UNK         0.0000 
     23 C23         3.8973   56.8179   17.2993 C.ar      1 UNK         0.0000 
     24 C24         5.2211   57.1898   17.5489 C.ar      1 UNK         0.0000 
     25 C25         6.1748   56.2014   17.8388 C.ar      1 UNK         0.0000 
     26 C26         5.7890   54.8591   17.8549 C.ar      1 UNK         0.0000 
     27 C27         7.6257   56.5617   18.1289 C.3       1 UNK         0.0000 
     28 C28         5.5996   58.6617   17.4774 C.3       1 UNK         0.0000 
     29 H29         7.4793   53.7042   29.2817 H         1 UNK         0.0000 
     30 H30         7.9040   54.2010   27.6593 H         1 UNK         0.0000 
     31 H31         7.1982   52.6075   27.9386 H         1 UNK         0.0000 
     32 H32         5.0571   53.7347   28.6800 H         1 UNK         0.0000 
     33 H33         5.7626   55.2956   28.3651 H         1 UNK         0.0000 
     34 H34         4.6376   53.4301   26.4596 H         1 UNK         0.0000 
     35 H35         7.1192   54.8978   23.2306 H         1 UNK         0.0000 
     36 H36         6.2404   54.3721   21.0211 H         1 UNK         0.0000 
     37 H37         3.2677   54.0606   24.9518 H         1 UNK         0.0000 
     38 H38         1.5143   53.6966   21.7694 H         1 UNK         0.0000 
     39 H39         1.7506   52.4133   22.9794 H         1 UNK         0.0000 
     40 H40         1.3601   54.0692   23.4641 H         1 UNK         0.0000 
     41 H41         4.3063   54.1739   19.6842 H         1 UNK         0.0000 
     42 H42         2.1411   50.7563   17.9430 H         1 UNK         0.0000 
     43 H43         1.0234   52.0857   18.3580 H         1 UNK         0.0000 
     44 H44         1.6074   51.6226   15.7483 H         1 UNK         0.0000 
     45 H45         1.5487   53.2725   16.3410 H         1 UNK         0.0000 
     46 H46         4.0321   51.5514   15.9507 H         1 UNK         0.0000 
     47 H47         3.7645   53.1861   15.4022 H         1 UNK         0.0000 
     48 H48         5.0562   52.4966   17.7726 H         1 UNK         0.0000 
     49 H49         2.4881   55.2116   17.1459 H         1 UNK         0.0000 
     50 H50         3.1532   57.5695   17.0732 H         1 UNK         0.0000 
     51 H51         6.5307   54.0980   18.0533 H         1 UNK         0.0000 
     52 H52         8.0953   56.9927   17.2427 H         1 UNK         0.0000 
     53 H53         7.6772   57.3086   18.9222 H         1 UNK         0.0000 
     54 H54         8.2138   55.7012   18.4511 H         1 UNK         0.0000 
     55 H55         5.9080   59.0254   18.4581 H         1 UNK         0.0000 
     56 H56         6.4363   58.8103   16.7969 H         1 UNK         0.0000 
     57 H57         4.7800   59.2865   17.1212 H         1 UNK         0.0000 
@<TRIPOS>BOND
     1    1    2 1    
     2    1   29 1    
     3    1   30 1    
     4    1   31 1    
     5    2    3 1    
     6    2   32 1    
     7    2   33 1    
     8    3    4 am   BACKBONE|DICT|INTERRES
     9    3   34 1    
    10    4    5 2    
    11    4    6 1    
    12    6   11 ar   
    13    6    7 ar   
    14    7    8 ar   
    15    7   35 1    
    16    8    9 ar   
    17    8   36 1    
    18    9   10 ar   
    19    9   13 1    
    20   10   11 ar   
    21   10   12 1    
    22   11   37 1    
    23   12   38 1    
    24   12   39 1    
    25   12   40 1    
    26   13   14 am   BACKBONE|DICT|INTERRES
    27   13   41 1    
    28   14   15 2    
    29   14   16 am   BACKBONE|DICT|INTERRES
    30   16   20 1    
    31   16   17 1    
    32   17   18 1    
    33   17   42 1    
    34   17   43 1    
    35   18   19 1    
    36   18   44 1    
    37   18   45 1    
    38   19   20 1    
    39   19   46 1    
    40   19   47 1    
    41   20   21 1    
    42   20   48 1    
    43   21   26 ar   
    44   21   22 ar   
    45   22   23 ar   
    46   22   49 1    
    47   23   24 ar   
    48   23   50 1    
    49   24   25 ar   
    50   24   28 1    
    51   25   26 ar   
    52   25   27 1    
    53   26   51 1    
    54   27   52 1    
    55   27   53 1    
    56   27   54 1    
    57   28   55 1    
    58   28   56 1    
    59   28   57 1    
@<TRIPOS>SUBSTRUCTURE
     1 UNK         1 GROUP             0       ****    0 ROOT    
