@<TRIPOS>MOLECULE
ZINC04697941_1369
39   41    1
SMALL
USER_CHARGES


@<TRIPOS>ATOM
      1 C1         -1.6614   51.5203   25.7016 C.3       1 UNK         0.0000 
      2 C2         -0.3133   52.2095   25.6109 C.2       1 UNK         0.0000 
      3 C3          0.6737   52.4351   26.6011 C.2       1 UNK         0.0000 
      4 C4          1.8065   53.0556   26.0322 C.2       1 UNK         0.0000 
      5 C5          1.7175   53.3211   24.6712 C.2       1 UNK         0.0000 
      6 S6          0.1531   52.8955   24.0807 S.3       1 UNK         0.0000 
      7 C7          2.8588   53.9342   23.8484 C.3       1 UNK         0.0000 
      8 H8          2.5477   54.9389   23.5642 H         1 UNK         0.0000 
      9 C9          4.0651   54.0950   24.7984 C.2       1 UNK         0.0000 
     10 C10         3.9890   53.8400   26.1274 C.2       1 UNK         0.0000 
     11 O11         2.9079   53.3652   26.7990 O.3       1 UNK         0.0000 
     12 N12         5.0016   53.9662   27.0394 N.pl3     1 UNK         0.0000 
     13 C13         5.3134   54.5310   24.2631 C.1       1 UNK         0.0000 
     14 N14         6.3360   54.8959   23.8665 N.1       1 UNK         0.0000 
     15 C15         3.1666   53.2548   22.4995 C.ar      1 UNK         0.0000 
     16 C16         3.9053   53.9427   21.5300 C.ar      1 UNK         0.0000 
     17 C17         4.1504   53.3695   20.2837 C.ar      1 UNK         0.0000 
     18 C18         3.6487   52.1054   19.9841 C.ar      1 UNK         0.0000 
     19 C19         2.9212   51.3810   20.9384 C.ar      1 UNK         0.0000 
     20 C20         2.7041   51.9653   22.1936 C.ar      1 UNK         0.0000 
     21 N21         2.3766   50.0362   20.6299 N.pl3     1 UNK         0.0000 
     22 O22         2.3138   49.6811   19.4580 O.co2     1 UNK         0.0000 
     23 O23         1.9906   49.3344   21.5616 O.co2     1 UNK         0.0000 
     24 C24         0.5720   52.0756   28.0204 C.2       1 UNK         0.0000 
     25 O25         1.5434   51.8454   28.7471 O.2       1 UNK         0.0000 
     26 O26        -0.7158   52.0544   28.4175 O.3       1 UNK         0.0000 
     27 C27        -1.0663   51.6971   29.7413 C.3       1 UNK         0.0000 
     28 H28        -1.6671   50.7123   26.4361 H         1 UNK         0.0000 
     29 H29        -2.4512   52.2190   25.9825 H         1 UNK         0.0000 
     30 H30        -1.9534   51.0669   24.7522 H         1 UNK         0.0000 
     31 H31         5.9013   54.3250   26.7563 H         1 UNK         0.0000 
     32 H32         4.9651   53.4396   27.8999 H         1 UNK         0.0000 
     33 H33         4.2799   54.9342   21.7325 H         1 UNK         0.0000 
     34 H34         4.7134   53.9128   19.5391 H         1 UNK         0.0000 
     35 H35         3.8397   51.6971   19.0007 H         1 UNK         0.0000 
     36 H36         2.1648   51.3987   22.9380 H         1 UNK         0.0000 
     37 H37        -2.1116   51.3974   29.7677 H         1 UNK         0.0000 
     38 H38        -0.4956   50.8433   30.0818 H         1 UNK         0.0000 
     39 H39        -0.8974   52.5229   30.4330 H         1 UNK         0.0000 
@<TRIPOS>BOND
     1    1    2 1    
     2    1   28 1    
     3    1   29 1    
     4    1   30 1    
     5    2    6 1    
     6    2    3 2    
     7    3    4 1    
     8    3   24 1    
     9    4   11 1    
    10    4    5 2    
    11    5    6 1    
    12    5    7 1    
    13    7    8 1    
    14    7    9 1    
    15    7   15 1    
    16    9   10 2    
    17    9   13 1    
    18   10   11 1    
    19   10   12 1    
    20   12   31 1    
    21   12   32 1    
    22   13   14 3    
    23   15   20 ar   
    24   15   16 ar   
    25   16   17 ar   
    26   16   33 1    
    27   17   18 ar   
    28   17   34 1    
    29   18   19 ar   
    30   18   35 1    
    31   19   20 ar   
    32   19   21 1    
    33   20   36 1    
    34   21   22 2    
    35   21   23 1    
    36   24   25 2    
    37   24   26 1    
    38   26   27 1    
    39   27   37 1    
    40   27   38 1    
    41   27   39 1    
@<TRIPOS>SUBSTRUCTURE
     1 UNK         1 GROUP             0       ****    0 ROOT    
