ZINC39287402_2675
                    3D
 Schrodinger Suite 2024-2.
 41 43  0  0  1  0            999 V2000
   -2.9647   53.4487   23.6356 C   0  0  0  0  0  0
   -2.3483   52.6392   24.7545 C   0  0  0  0  0  0
   -1.1702   52.0177   24.8541 C   0  0  0  0  0  0
    0.0219   51.7984   23.9241 C   0  0  2  0  0  0
   -0.2918   52.0663   22.9131 H   0  0  0  0  0  0
    0.2952   50.2917   23.9251 C   0  0  0  0  0  0
   -0.2731   49.4479   24.8207 C   0  0  0  0  0  0
   -1.1339   49.7841   25.8224 O   0  0  0  0  0  0
   -1.2707   51.1876   26.1007 C   0  0  2  0  0  0
   -0.5483   51.4256   26.8791 H   0  0  0  0  0  0
   -2.5707   51.5121   26.5969 N   0  0  0  0  0  0
   -3.1345   52.3421   25.8162 N   0  0  0  0  0  0
   -0.0955   48.0968   24.8817 N   0  0  0  0  0  0
    1.1728   49.7810   22.9197 C   0  0  0  0  0  0
    1.8628   49.3807   22.0817 N   0  0  0  0  0  0
    1.2708   52.6487   24.2098 C   0  0  0  0  0  0
    1.6946   52.9393   25.5129 C   0  0  0  0  0  0
    2.8534   53.6968   25.7566 C   0  0  0  0  0  0
    3.6043   54.1562   24.6665 C   0  0  0  0  0  0
    3.1864   53.8759   23.3604 C   0  0  0  0  0  0
    2.0302   53.1306   23.1388 C   0  0  0  0  0  0
    4.1861   54.4952   21.8614 Br  0  0  0  0  0  0
    4.7150   54.9418   24.8818 O   0  0  0  0  0  0
    5.9792   54.2860   24.8858 C   0  0  0  0  0  0
    6.5462   54.1696   26.2408 C   0  0  0  0  0  0
    6.9932   54.0980   27.3753 C   0  0  0  0  0  0
    3.3060   54.0272   27.0215 O   0  0  0  0  0  0
    2.6093   53.5482   28.1655 C   0  0  0  0  0  0
   -4.0532   53.3891   23.6760 H   0  0  0  0  0  0
   -2.6778   54.4969   23.6817 H   0  0  0  0  0  0
   -2.6342   53.0565   22.6743 H   0  0  0  0  0  0
    0.6299   47.6967   24.3066 H   0  0  0  0  0  0
   -0.2323   47.6372   25.7762 H   0  0  0  0  0  0
    1.1225   52.5732   26.3440 H   0  0  0  0  0  0
    1.7345   52.9191   22.1207 H   0  0  0  0  0  0
    5.9445   53.2967   24.4335 H   0  0  0  0  0  0
    6.6748   54.8758   24.2881 H   0  0  0  0  0  0
    7.3632   54.0528   28.3763 H   0  0  0  0  0  0
    3.1219   53.8892   29.0648 H   0  0  0  0  0  0
    1.5885   53.9316   28.2021 H   0  0  0  0  0  0
    2.5866   52.4574   28.1926 H   0  0  0  0  0  0
  1  2  1  0  0  0
  1 29  1  0  0  0
  1 30  1  0  0  0
  1 31  1  0  0  0
  2 12  1  0  0  0
  2  3  2  0  0  0
  3  9  1  0  0  0
  3  4  1  0  0  0
  4  5  1  0  0  0
  4  6  1  0  0  0
  4 16  1  0  0  0
  6  7  2  0  0  0
  6 14  1  0  0  0
  7  8  1  0  0  0
  7 13  1  0  0  0
  8  9  1  0  0  0
  9 10  1  0  0  0
  9 11  1  0  0  0
 11 12  2  0  0  0
 13 32  1  0  0  0
 13 33  1  0  0  0
 14 15  3  0  0  0
 16 21  2  0  0  0
 16 17  1  0  0  0
 17 18  2  0  0  0
 17 34  1  0  0  0
 18 19  1  0  0  0
 18 27  1  0  0  0
 19 20  2  0  0  0
 19 23  1  0  0  0
 20 21  1  0  0  0
 20 22  1  0  0  0
 21 35  1  0  0  0
 23 24  1  0  0  0
 24 25  1  0  0  0
 24 36  1  0  0  0
 24 37  1  0  0  0
 25 26  3  0  0  0
 26 38  1  0  0  0
 27 28  1  0  0  0
 28 39  1  0  0  0
 28 40  1  0  0  0
 28 41  1  0  0  0
M  END
> <i_i_glide_confnum>
5

> <i_i_glide_lignum>
2676

> <i_i_glide_posenum>
18

> <i_i_glide_rotatable_bonds>
6

> <i_m_Source_File_Index>
390

> <b_m_subgroup_collapsed>
0

> <r_i_docking_score>
-5.37829

> <r_i_glide_ecoul>
-2.31924

> <r_i_glide_eff_state_penalty>
0

> <r_i_glide_einternal>
4.6739

> <r_i_glide_emodel>
-49.4036

> <r_i_glide_energy>
-38.7796

> <r_i_glide_erotb>
0.458053

> <r_i_glide_esite>
-0.148611

> <r_i_glide_evdw>
-36.4604

> <r_i_glide_gscore>
-5.37829

> <r_i_glide_hbond>
-0.295032

> <r_i_glide_ligand_efficiency>
-0.206857

> <r_i_glide_ligand_efficiency_ln>
-1.26307

> <r_i_glide_ligand_efficiency_sa>
-0.612814

> <r_i_glide_lipo>
-2.53579

> <r_i_glide_metal>
0

> <r_i_glide_rewards>
-0.686007

> <s_i_glide_gridfile>
wee1_glide-grid

> <s_m_Source_File>
wee1_decoys_glide_SP.sdf

> <s_m_Source_Path>
/Users/zhangxujun/Desktop

> <s_m_entry_id>
665

> <s_m_entry_name>
wee1_decoys_glide_SP.390

> <s_m_subgroup_title>
wee1_decoys_glide_SP

> <s_m_subgroupid>
wee1_decoys_glide_SP


$$$$
