@<TRIPOS>MOLECULE
ZINC43218761_3394
57   61    1
SMALL
USER_CHARGES


@<TRIPOS>ATOM
      1 C1          0.6831   50.4027   19.1300 C.3       1 UNK         0.0000 
      2 O2          1.7039   51.2716   18.6568 O.3       1 UNK         0.0000 
      3 C3          1.3693   52.4834   18.0815 C.ar      1 UNK         0.0000 
      4 C4          0.0428   52.8983   17.8736 C.ar      1 UNK         0.0000 
      5 C5         -0.2329   54.1269   17.2773 C.ar      1 UNK         0.0000 
      6 C6          0.8107   54.9576   16.8817 C.ar      1 UNK         0.0000 
      7 C7          2.1300   54.5606   17.0841 C.ar      1 UNK         0.0000 
      8 C8          2.4250   53.3235   17.6820 C.ar      1 UNK         0.0000 
      9 C9          3.8755   52.8397   17.8754 C.3       1 UNK         0.0000 
     10 H10         3.9044   51.7839   17.5979 H         1 UNK         0.0000 
     11 C11         4.6222   53.1319   19.1782 C.3       1 UNK         0.0000 
     12 H12         5.4834   52.4558   19.1864 H         1 UNK         0.0000 
     13 C13         4.9713   54.5476   19.0349 C.3       1 UNK         0.0000 
     14 H14         4.0974   55.1992   18.9296 H         1 UNK         0.0000 
     15 C15         5.5043   54.8666   20.4223 C.2       1 UNK         0.0000 
     16 O16         6.2888   55.7765   20.6981 O.2       1 UNK         0.0000 
     17 N17         4.8281   54.0180   21.2735 N.am      1 UNK         0.0000 
     18 C18         4.0980   53.0700   20.5914 C.2       1 UNK         0.0000 
     19 O19         3.2960   52.2421   21.0231 O.2       1 UNK         0.0000 
     20 C20         4.8847   54.1026   22.6947 C.ar      1 UNK         0.0000 
     21 C21         6.0944   54.3878   23.3523 C.ar      1 UNK         0.0000 
     22 C22         6.1433   54.4950   24.7395 C.ar      1 UNK         0.0000 
     23 C23         4.9918   54.2936   25.4972 C.ar      1 UNK         0.0000 
     24 C24         3.7712   53.9893   24.8767 C.ar      1 UNK         0.0000 
     25 C25         3.7294   53.9212   23.4754 C.ar      1 UNK         0.0000 
     26 N26         2.5605   53.6989   25.6830 N.pl3     1 UNK         0.0000 
     27 O27         1.5090   53.4591   25.0959 O.co2     1 UNK         0.0000 
     28 O28         2.6548   53.7096   26.9072 O.co2     1 UNK         0.0000 
     29 C29         5.7416   54.5970   17.6823 C.3       1 UNK         0.0000 
     30 N30         4.8720   53.5362   16.9052 N.4       1 UNK         0.0000 
     31 C31         5.6555   55.9362   16.9060 C.ar      1 UNK         0.0000 
     32 C32         5.7649   55.9564   15.5052 C.ar      1 UNK         0.0000 
     33 C33         5.6844   57.1556   14.8027 C.ar      1 UNK         0.0000 
     34 C34         5.5055   58.3493   15.4951 C.ar      1 UNK         0.0000 
     35 C35         5.4168   58.3543   16.8824 C.ar      1 UNK         0.0000 
     36 C36         5.4943   57.1541   17.5856 C.ar      1 UNK         0.0000 
     37 C37         7.2287   54.0848   17.6478 C.2       1 UNK         0.0000 
     38 O38         7.5294   53.1118   16.9145 O.co2     1 UNK         0.0000 
     39 O39         8.0562   54.6839   18.3693 O.co2     1 UNK         0.0000 
     40 H40         1.1451   49.5182   19.5684 H         1 UNK         0.0000 
     41 H41         0.0808   50.8784   19.9056 H         1 UNK         0.0000 
     42 H42         0.0339   50.0687   18.3194 H         1 UNK         0.0000 
     43 H43        -0.7879   52.2755   18.1648 H         1 UNK         0.0000 
     44 H44        -1.2555   54.4348   17.1187 H         1 UNK         0.0000 
     45 H45         0.5998   55.9128   16.4226 H         1 UNK         0.0000 
     46 H46         2.9123   55.2367   16.7745 H         1 UNK         0.0000 
     47 H47         7.0110   54.5276   22.7961 H         1 UNK         0.0000 
     48 H48         7.0827   54.7117   25.2258 H         1 UNK         0.0000 
     49 H49         5.0612   54.3522   26.5745 H         1 UNK         0.0000 
     50 H50         2.7871   53.7091   22.9893 H         1 UNK         0.0000 
     51 H51         4.4034   53.9306   16.1044 H         1 UNK         0.0000 
     52 H52         5.9277   55.0436   14.9507 H         1 UNK         0.0000 
     53 H53         5.7691   57.1615   13.7260 H         1 UNK         0.0000 
     54 H54         5.4442   59.2854   14.9589 H         1 UNK         0.0000 
     55 H55         5.2953   59.2964   17.4025 H         1 UNK         0.0000 
     56 H56         5.4361   57.1882   18.6622 H         1 UNK         0.0000 
     57 H57         5.5248   52.8431   16.5512 H         1 UNK         0.0000 
@<TRIPOS>BOND
     1    1    2 1    
     2    1   40 1    
     3    1   41 1    
     4    1   42 1    
     5    2    3 1    
     6    3    8 ar   
     7    3    4 ar   
     8    4    5 ar   
     9    4   43 1    
    10    5    6 ar   
    11    5   44 1    
    12    6    7 ar   
    13    6   45 1    
    14    7    8 ar   
    15    7   46 1    
    16    8    9 1    
    17    9   10 1    
    18    9   30 1    
    19    9   11 1    
    20   11   12 1    
    21   11   18 1    
    22   11   13 1    
    23   13   14 1    
    24   13   15 1    
    25   13   29 1    
    26   15   16 2    
    27   15   17 am   BACKBONE|DICT|INTERRES
    28   17   18 am   BACKBONE|DICT|INTERRES
    29   17   20 1    
    30   18   19 2    
    31   20   25 ar   
    32   20   21 ar   
    33   21   22 ar   
    34   21   47 1    
    35   22   23 ar   
    36   22   48 1    
    37   23   24 ar   
    38   23   49 1    
    39   24   25 ar   
    40   24   26 1    
    41   25   50 1    
    42   26   27 2    
    43   26   28 1    
    44   29   30 1    
    45   29   31 1    
    46   29   37 1    
    47   30   51 1    
    48   30   57 1    
    49   31   36 ar   
    50   31   32 ar   
    51   32   33 ar   
    52   32   52 1    
    53   33   34 ar   
    54   33   53 1    
    55   34   35 ar   
    56   34   54 1    
    57   35   36 ar   
    58   35   55 1    
    59   36   56 1    
    60   37   38 2    
    61   37   39 1    
@<TRIPOS>SUBSTRUCTURE
     1 UNK         1 GROUP             0       ****    0 ROOT    
