@<TRIPOS>MOLECULE
ZINC01555890_1823
35   37    1
SMALL
USER_CHARGES


@<TRIPOS>ATOM
      1 C1         -3.3306   52.7552   25.8042 C.3       1 UNK         0.0000 
      2 C2         -3.1978   51.2722   25.4199 C.3       1 UNK         0.0000 
      3 C3         -1.9003   50.5591   25.9338 C.3       1 UNK         0.0000 
      4 H4         -2.1695   49.6384   26.4573 H         1 UNK         0.0000 
      5 C5         -1.2459   50.1636   24.6408 C.ar      1 UNK         0.0000 
      6 C6         -0.0925   49.4591   24.3046 C.ar      1 UNK         0.0000 
      7 N7          0.3002   49.2965   23.0142 N.ar      1 UNK         0.0000 
      8 C8         -0.5090   49.8365   22.0652 C.ar      1 UNK         0.0000 
      9 N9         -1.6696   50.5108   22.2830 N.ar      1 UNK         0.0000 
     10 C10        -1.9963   50.6461   23.5912 C.ar      1 UNK         0.0000 
     11 O11        -3.1412   51.2849   23.9831 O.3       1 UNK         0.0000 
     12 N12        -0.1125   49.6730   20.7485 N.pl3     1 UNK         0.0000 
     13 N13         0.7054   48.8969   25.2862 N.pl3     1 UNK         0.0000 
     14 C14        -1.0092   51.3456   26.9128 C.ar      1 UNK         0.0000 
     15 C15         0.0856   52.0971   26.4653 C.ar      1 UNK         0.0000 
     16 C16         0.8843   52.7886   27.3712 C.ar      1 UNK         0.0000 
     17 C17         0.5896   52.7339   28.7331 C.ar      1 UNK         0.0000 
     18 C18        -0.4952   51.9908   29.1913 C.ar      1 UNK         0.0000 
     19 C19        -1.2906   51.2977   28.2819 C.ar      1 UNK         0.0000 
     20 Cl20        1.5798   53.5896   29.8557 Cl        1 UNK         0.0000 
     21 C21        -4.4750   50.4886   25.7782 C.3       1 UNK         0.0000 
     22 H22        -3.4351   52.8837   26.8811 H         1 UNK         0.0000 
     23 H23        -2.4431   53.2966   25.4824 H         1 UNK         0.0000 
     24 H24        -4.1930   53.2208   25.3251 H         1 UNK         0.0000 
     25 H25        -0.6488   50.1164   20.0213 H         1 UNK         0.0000 
     26 H26         0.8004   49.2822   20.5724 H         1 UNK         0.0000 
     27 H27         0.3617   48.8690   26.2368 H         1 UNK         0.0000 
     28 H28         1.5376   48.3827   25.0071 H         1 UNK         0.0000 
     29 H29         0.3216   52.1479   25.4125 H         1 UNK         0.0000 
     30 H30         1.7284   53.3617   27.0177 H         1 UNK         0.0000 
     31 H31        -0.7161   51.9355   30.2490 H         1 UNK         0.0000 
     32 H32        -2.1175   50.7045   28.6476 H         1 UNK         0.0000 
     33 H33        -4.6119   50.4302   26.8600 H         1 UNK         0.0000 
     34 H34        -5.3622   50.9578   25.3525 H         1 UNK         0.0000 
     35 H35        -4.4319   49.4695   25.3934 H         1 UNK         0.0000 
@<TRIPOS>BOND
     1    1    2 1    
     2    1   22 1    
     3    1   23 1    
     4    1   24 1    
     5    2   11 1    
     6    2    3 1    
     7    2   21 1    
     8    3    4 1    
     9    3    5 1    
    10    3   14 1    
    11    5   10 ar   
    12    5    6 ar   
    13    6    7 ar   
    14    6   13 1    
    15    7    8 ar   
    16    8    9 ar   
    17    8   12 1    
    18    9   10 ar   
    19   10   11 1    
    20   12   25 1    
    21   12   26 1    
    22   13   27 1    
    23   13   28 1    
    24   14   19 ar   
    25   14   15 ar   
    26   15   16 ar   
    27   15   29 1    
    28   16   17 ar   
    29   16   30 1    
    30   17   18 ar   
    31   17   20 1    
    32   18   19 ar   
    33   18   31 1    
    34   19   32 1    
    35   21   33 1    
    36   21   34 1    
    37   21   35 1    
@<TRIPOS>SUBSTRUCTURE
     1 UNK         1 GROUP             0       ****    0 ROOT    
