ZINC39964317_5059
                    3D
 Schrodinger Suite 2024-2.
 55 58  0  0  1  0            999 V2000
    5.2856   53.8358   27.7791 C   0  0  0  0  0  0
    3.9987   53.1375   28.2409 C   0  0  0  0  0  0
    2.8615   53.2174   27.1976 C   0  0  0  0  0  0
    1.5923   52.4233   27.5097 C   0  0  0  0  0  0
    0.6910   51.7787   26.7419 C   0  0  0  0  0  0
    0.3670   51.5605   25.2497 C   0  0  1  0  0  0
    0.4992   50.5002   25.0292 H   0  0  0  0  0  0
   -1.1360   51.8698   25.1138 C   0  0  0  0  0  0
   -1.9779   51.8616   26.1747 C   0  0  0  0  0  0
   -1.6444   51.6216   27.4707 O   0  0  0  0  0  0
   -0.2941   51.1938   27.7093 C   0  0  2  0  0  0
   -0.2949   50.1007   27.6855 H   0  0  0  0  0  0
    0.1751   51.6595   28.9737 N   0  0  0  0  0  0
    1.2399   52.3257   28.8154 N   0  0  0  0  0  0
   -3.3214   52.1181   26.1494 N   0  0  0  0  0  0
   -1.6658   52.2088   23.8347 C   0  0  0  0  0  0
   -2.1516   52.4966   22.8270 N   0  0  0  0  0  0
    1.2571   52.3348   24.2655 C   0  0  0  0  0  0
    1.4116   53.6963   24.4802 C   0  0  0  0  0  0
    2.3259   54.4548   23.7746 C   0  0  0  0  0  0
    3.0667   53.8610   22.7614 C   0  0  0  0  0  0
    2.8986   52.4967   22.4706 C   0  0  0  0  0  0
    1.9635   51.7373   23.2077 C   0  0  0  0  0  0
    1.8333   50.3882   22.9494 O   0  0  0  0  0  0
    0.7548   50.0061   22.0885 C   0  0  0  0  0  0
    0.9234   50.5613   20.6764 C   0  0  0  0  0  0
    2.0042   50.1467   19.8947 C   0  0  0  0  0  0
    2.2326   50.7434   18.6589 C   0  0  0  0  0  0
    1.3584   51.7171   18.1845 C   0  0  0  0  0  0
    0.2519   52.0991   18.9374 C   0  0  0  0  0  0
    0.0359   51.5232   20.1858 C   0  0  0  0  0  0
    1.6849   52.5435   16.5021 Br  0  0  0  0  0  0
    3.6689   51.8253   21.5394 O   0  0  0  0  0  0
    4.6060   52.5403   20.7425 C   0  0  0  0  0  0
    6.0604   53.7737   28.5444 H   0  0  0  0  0  0
    5.6804   53.3746   26.8733 H   0  0  0  0  0  0
    5.1126   54.8921   27.5710 H   0  0  0  0  0  0
    4.2239   52.0964   28.4686 H   0  0  0  0  0  0
    3.6700   53.5842   29.1801 H   0  0  0  0  0  0
    2.5724   54.2626   27.0810 H   0  0  0  0  0  0
    3.2469   52.8967   26.2310 H   0  0  0  0  0  0
   -3.7774   52.3449   25.2782 H   0  0  0  0  0  0
   -3.9046   51.7672   26.8948 H   0  0  0  0  0  0
    0.8648   54.1337   25.2816 H   0  0  0  0  0  0
    2.4793   55.4798   24.0769 H   0  0  0  0  0  0
    3.7861   54.4668   22.2331 H   0  0  0  0  0  0
    0.7278   48.9173   22.0351 H   0  0  0  0  0  0
   -0.2020   50.3056   22.5170 H   0  0  0  0  0  0
    2.7048   49.4147   20.2703 H   0  0  0  0  0  0
    3.1040   50.4721   18.0829 H   0  0  0  0  0  0
   -0.4195   52.8567   18.5633 H   0  0  0  0  0  0
   -0.8052   51.8459   20.7757 H   0  0  0  0  0  0
    5.1111   51.8389   20.0792 H   0  0  0  0  0  0
    4.1116   53.2890   20.1215 H   0  0  0  0  0  0
    5.3714   53.0216   21.3529 H   0  0  0  0  0  0
  1  2  1  0  0  0
  1 35  1  0  0  0
  1 36  1  0  0  0
  1 37  1  0  0  0
  2  3  1  0  0  0
  2 38  1  0  0  0
  2 39  1  0  0  0
  3  4  1  0  0  0
  3 40  1  0  0  0
  3 41  1  0  0  0
  4 14  1  0  0  0
  4  5  2  0  0  0
  5 11  1  0  0  0
  5  6  1  0  0  0
  6  7  1  0  0  0
  6  8  1  0  0  0
  6 18  1  0  0  0
  8  9  2  0  0  0
  8 16  1  0  0  0
  9 10  1  0  0  0
  9 15  1  0  0  0
 10 11  1  0  0  0
 11 12  1  0  0  0
 11 13  1  0  0  0
 13 14  2  0  0  0
 15 42  1  0  0  0
 15 43  1  0  0  0
 16 17  3  0  0  0
 18 23  2  0  0  0
 18 19  1  0  0  0
 19 20  2  0  0  0
 19 44  1  0  0  0
 20 21  1  0  0  0
 20 45  1  0  0  0
 21 22  2  0  0  0
 21 46  1  0  0  0
 22 23  1  0  0  0
 22 33  1  0  0  0
 23 24  1  0  0  0
 24 25  1  0  0  0
 25 26  1  0  0  0
 25 47  1  0  0  0
 25 48  1  0  0  0
 26 31  2  0  0  0
 26 27  1  0  0  0
 27 28  2  0  0  0
 27 49  1  0  0  0
 28 29  1  0  0  0
 28 50  1  0  0  0
 29 30  2  0  0  0
 29 32  1  0  0  0
 30 31  1  0  0  0
 30 51  1  0  0  0
 31 52  1  0  0  0
 33 34  1  0  0  0
 34 53  1  0  0  0
 34 54  1  0  0  0
 34 55  1  0  0  0
M  END
> <i_i_glide_confnum>
50

> <i_i_glide_lignum>
5060

> <i_i_glide_posenum>
389

> <i_i_glide_rotatable_bonds>
8

> <i_m_Source_File_Index>
3810

> <b_m_subgroup_collapsed>
0

> <r_i_docking_score>
-3.80185

> <r_i_glide_ecoul>
-2.74738

> <r_i_glide_eff_state_penalty>
0

> <r_i_glide_einternal>
10.8186

> <r_i_glide_emodel>
-39.7481

> <r_i_glide_energy>
-37.7104

> <r_i_glide_erotb>
0.415357

> <r_i_glide_esite>
-0.0725741

> <r_i_glide_evdw>
-34.963

> <r_i_glide_gscore>
-3.80185

> <r_i_glide_hbond>
0

> <r_i_glide_ligand_efficiency>
-0.118808

> <r_i_glide_ligand_efficiency_ln>
-0.851339

> <r_i_glide_ligand_efficiency_sa>
-0.377192

> <r_i_glide_lipo>
-1.90356

> <r_i_glide_metal>
0

> <r_i_glide_rewards>
-0.0808181

> <s_i_glide_gridfile>
wee1_glide-grid

> <s_m_Source_File>
wee1_decoys_glide_SP.sdf

> <s_m_Source_Path>
/Users/zhangxujun/Desktop

> <s_m_entry_id>
4085

> <s_m_entry_name>
wee1_decoys_glide_SP.3810

> <s_m_subgroup_title>
wee1_decoys_glide_SP

> <s_m_subgroupid>
wee1_decoys_glide_SP


$$$$
