@<TRIPOS>MOLECULE
ZINC35593878_5305
57   60    1
SMALL
USER_CHARGES


@<TRIPOS>ATOM
      1 C1          7.0028   55.2969   22.1137 C.ar      1 UNK         0.0000 
      2 C2          7.5107   55.6960   20.8796 C.ar      1 UNK         0.0000 
      3 C3          6.8677   55.3065   19.7071 C.ar      1 UNK         0.0000 
      4 C4          5.7198   54.5149   19.7647 C.ar      1 UNK         0.0000 
      5 C5          5.2039   54.0976   21.0020 C.ar      1 UNK         0.0000 
      6 C6          5.8601   54.4967   22.1758 C.ar      1 UNK         0.0000 
      7 N7          4.0661   53.2715   20.9955 N.pl3     1 UNK         0.0000 
      8 C8          3.0130   53.1648   21.8758 C.2       1 UNK         0.0000 
      9 N9          1.9950   52.3795   21.6269 N.2       1 UNK         0.0000 
     10 C10         1.0240   52.5042   22.5143 C.2       1 UNK         0.0000 
     11 C11         1.2852   53.3764   23.5723 C.2       1 UNK         0.0000 
     12 S12         2.8463   54.0971   23.3399 S.3       1 UNK         0.0000 
     13 C13        -0.1467   51.6807   22.3442 C.2       1 UNK         0.0000 
     14 O14        -1.0709   52.0966   21.6393 O.2       1 UNK         0.0000 
     15 N15        -0.1449   50.4558   22.9413 N.am      1 UNK         0.0000 
     16 C16        -1.2566   49.5121   22.7055 C.3       1 UNK         0.0000 
     17 C17        -1.9488   49.2346   24.0547 C.3       1 UNK         0.0000 
     18 C18        -0.9492   48.7423   25.1193 C.3       1 UNK         0.0000 
     19 C19         0.3032   49.6465   25.2716 C.3       1 UNK         0.0000 
     20 H20         1.0455   49.1287   25.8836 H         1 UNK         0.0000 
     21 C21         0.9090   49.9736   23.8681 C.3       1 UNK         0.0000 
     22 C22        -0.1082   50.9174   26.0678 C.2       1 UNK         0.0000 
     23 O23        -0.6679   51.8722   25.5299 O.2       1 UNK         0.0000 
     24 N24         0.1489   50.8967   27.3854 N.am      1 UNK         0.0000 
     25 C25        -0.2115   51.9389   28.3501 C.3       1 UNK         0.0000 
     26 C26         0.8517   52.9922   28.6666 C.ar      1 UNK         0.0000 
     27 C27         0.4968   54.0588   29.4963 C.ar      1 UNK         0.0000 
     28 C28         1.4118   55.0649   29.7966 C.ar      1 UNK         0.0000 
     29 C29         2.7043   55.0035   29.2814 C.ar      1 UNK         0.0000 
     30 C30         3.0929   53.9306   28.4699 C.ar      1 UNK         0.0000 
     31 C31         2.1572   52.9352   28.1571 C.ar      1 UNK         0.0000 
     32 C32         4.5183   53.8269   27.9347 C.3       1 UNK         0.0000 
     33 F33         5.1045   52.7623   28.4808 F         1 UNK         0.0000 
     34 F34         4.5029   53.6964   26.6068 F         1 UNK         0.0000 
     35 F35         5.2605   54.8919   28.2352 F         1 UNK         0.0000 
     36 F36         5.1223   54.1486   18.6058 F         1 UNK         0.0000 
     37 H37         7.5046   55.5863   23.0261 H         1 UNK         0.0000 
     38 H38         8.4156   56.2824   20.8306 H         1 UNK         0.0000 
     39 H39         7.2621   55.6103   18.7476 H         1 UNK         0.0000 
     40 H40         5.5219   54.1645   23.1431 H         1 UNK         0.0000 
     41 H41         3.9318   52.8630   20.0780 H         1 UNK         0.0000 
     42 H42         0.6687   53.6284   24.4219 H         1 UNK         0.0000 
     43 H43        -1.9546   49.8475   21.9369 H         1 UNK         0.0000 
     44 H44        -0.8102   48.5896   22.3276 H         1 UNK         0.0000 
     45 H45        -2.4621   50.1324   24.3988 H         1 UNK         0.0000 
     46 H46        -2.7282   48.4870   23.9135 H         1 UNK         0.0000 
     47 H47        -1.4223   48.5523   26.0816 H         1 UNK         0.0000 
     48 H48        -0.6016   47.7345   24.8896 H         1 UNK         0.0000 
     49 H49         1.2992   49.0456   23.4468 H         1 UNK         0.0000 
     50 H50         1.7842   50.6189   23.9352 H         1 UNK         0.0000 
     51 H51         0.5114   50.0396   27.7722 H         1 UNK         0.0000 
     52 H52        -1.1087   52.4615   28.0124 H         1 UNK         0.0000 
     53 H53        -0.4941   51.4481   29.2833 H         1 UNK         0.0000 
     54 H54        -0.4971   54.1131   29.9118 H         1 UNK         0.0000 
     55 H55         1.1191   55.8905   30.4298 H         1 UNK         0.0000 
     56 H56         3.4018   55.7894   29.5249 H         1 UNK         0.0000 
     57 H57         2.4566   52.1131   27.5230 H         1 UNK         0.0000 
@<TRIPOS>BOND
     1    1    6 ar   
     2    1    2 ar   
     3    1   37 1    
     4    2    3 ar   
     5    2   38 1    
     6    3    4 ar   
     7    3   39 1    
     8    4    5 ar   
     9    4   36 1    
    10    5    6 ar   
    11    5    7 1    
    12    6   40 1    
    13    7    8 1    
    14    7   41 1    
    15    8   12 1    
    16    8    9 2    
    17    9   10 1    
    18   10   11 2    
    19   10   13 1    
    20   11   12 1    
    21   11   42 1    
    22   13   14 2    
    23   13   15 am   BACKBONE|DICT|INTERRES
    24   15   21 1    
    25   15   16 1    
    26   16   17 1    
    27   16   43 1    
    28   16   44 1    
    29   17   18 1    
    30   17   45 1    
    31   17   46 1    
    32   18   19 1    
    33   18   47 1    
    34   18   48 1    
    35   19   20 1    
    36   19   21 1    
    37   19   22 1    
    38   21   49 1    
    39   21   50 1    
    40   22   23 2    
    41   22   24 am   BACKBONE|DICT|INTERRES
    42   24   25 1    
    43   24   51 1    
    44   25   26 1    
    45   25   52 1    
    46   25   53 1    
    47   26   31 ar   
    48   26   27 ar   
    49   27   28 ar   
    50   27   54 1    
    51   28   29 ar   
    52   28   55 1    
    53   29   30 ar   
    54   29   56 1    
    55   30   31 ar   
    56   30   32 1    
    57   31   57 1    
    58   32   33 1    
    59   32   34 1    
    60   32   35 1    
@<TRIPOS>SUBSTRUCTURE
     1 UNK         1 GROUP             0       ****    0 ROOT    
