@<TRIPOS>MOLECULE
ZINC22691453_2105
54   58    1
SMALL
USER_CHARGES


@<TRIPOS>ATOM
      1 C1         10.1152   49.6781   13.6815 C.3       1 UNK         0.0000 
      2 C2          9.5771   50.5269   14.7922 C.2       1 UNK         0.0000 
      3 C3          9.8245   50.4287   16.1549 C.2       1 UNK         0.0000 
      4 C4          9.0964   51.3335   16.9222 C.2       1 UNK         0.0000 
      5 C5          8.3033   52.1676   16.1596 C.2       1 UNK         0.0000 
      6 S6          8.4539   51.8204   14.4738 S.3       1 UNK         0.0000 
      7 S7          7.1832   53.4222   16.8050 S.o2      1 UNK         0.0000 
      8 O8          6.2685   53.7951   15.7205 O.2       1 UNK         0.0000 
      9 O9          6.7040   52.9026   18.0861 O.2       1 UNK         0.0000 
     10 N10         8.3062   54.7542   17.1181 N.pl3     1 UNK         0.0000 
     11 C11         8.3618   55.9468   16.2493 C.3       1 UNK         0.0000 
     12 C12         7.8877   57.1839   17.0348 C.3       1 UNK         0.0000 
     13 C13         8.6078   57.3137   18.4043 C.3       1 UNK         0.0000 
     14 C14         8.6962   56.0078   19.2634 C.3       1 UNK         0.0000 
     15 H15         9.4213   56.1688   20.0634 H         1 UNK         0.0000 
     16 C16         9.1183   54.8132   18.3578 C.3       1 UNK         0.0000 
     17 C17         7.3496   55.6967   19.9755 C.2       1 UNK         0.0000 
     18 O18         6.2890   55.8250   19.3651 O.2       1 UNK         0.0000 
     19 N19         7.4287   55.3375   21.2806 N.am      1 UNK         0.0000 
     20 C20         6.3906   54.8966   22.0993 C.2       1 UNK         0.0000 
     21 N21         6.5232   54.8575   23.4037 N.2       1 UNK         0.0000 
     22 C22         5.4344   54.4301   24.0340 C.2       1 UNK         0.0000 
     23 C23         4.3958   54.0632   23.1741 C.2       1 UNK         0.0000 
     24 S24         4.8604   54.2964   21.5185 S.3       1 UNK         0.0000 
     25 C25         5.3976   54.3724   25.5085 C.ar      1 UNK         0.0000 
     26 C26         6.4937   54.5895   26.3188 C.ar      1 UNK         0.0000 
     27 N27         6.1590   54.4963   27.6428 N.pl3     1 UNK         0.0000 
     28 H28         6.8187   54.6560   28.3955 H         1 UNK         0.0000 
     29 C29         4.8234   54.1880   27.7535 C.ar      1 UNK         0.0000 
     30 C30         4.3027   54.0974   26.4185 C.ar      1 UNK         0.0000 
     31 C31         2.9370   53.7924   26.2699 C.ar      1 UNK         0.0000 
     32 C32         2.1500   53.5898   27.4026 C.ar      1 UNK         0.0000 
     33 C33         2.6883   53.6878   28.6813 C.ar      1 UNK         0.0000 
     34 C34         4.0336   53.9888   28.8905 C.ar      1 UNK         0.0000 
     35 H35        11.0504   49.1843   13.9473 H         1 UNK         0.0000 
     36 H36        10.3059   50.2586   12.7778 H         1 UNK         0.0000 
     37 H37         9.4052   48.8963   13.4114 H         1 UNK         0.0000 
     38 H38        10.4892   49.6941   16.5856 H         1 UNK         0.0000 
     39 H39         9.1257   51.3604   17.9995 H         1 UNK         0.0000 
     40 H40         9.3817   56.0599   15.8802 H         1 UNK         0.0000 
     41 H41         7.7271   55.7870   15.3766 H         1 UNK         0.0000 
     42 H42         8.0422   58.0857   16.4421 H         1 UNK         0.0000 
     43 H43         6.8094   57.1173   17.1882 H         1 UNK         0.0000 
     44 H44         9.6280   57.6728   18.2602 H         1 UNK         0.0000 
     45 H45         8.2090   58.1403   18.9919 H         1 UNK         0.0000 
     46 H46         9.0562   53.8593   18.8816 H         1 UNK         0.0000 
     47 H47        10.1530   54.9338   18.0293 H         1 UNK         0.0000 
     48 H48         8.3179   55.4576   21.7434 H         1 UNK         0.0000 
     49 H49         3.4206   53.6678   23.4018 H         1 UNK         0.0000 
     50 H50         7.5043   54.8130   26.0332 H         1 UNK         0.0000 
     51 H51         2.4815   53.7161   25.2977 H         1 UNK         0.0000 
     52 H52         1.1016   53.3530   27.2868 H         1 UNK         0.0000 
     53 H53         2.0417   53.5238   29.5309 H         1 UNK         0.0000 
     54 H54         4.4423   54.0626   29.8872 H         1 UNK         0.0000 
@<TRIPOS>BOND
     1    1    2 1    
     2    1   35 1    
     3    1   36 1    
     4    1   37 1    
     5    2    6 1    
     6    2    3 2    
     7    3    4 1    
     8    3   38 1    
     9    4    5 2    
    10    4   39 1    
    11    5    6 1    
    12    5    7 1    
    13    7    8 2    
    14    7    9 2    
    15    7   10 1    
    16   10   16 1    
    17   10   11 1    
    18   11   12 1    
    19   11   40 1    
    20   11   41 1    
    21   12   13 1    
    22   12   42 1    
    23   12   43 1    
    24   13   14 1    
    25   13   44 1    
    26   13   45 1    
    27   14   15 1    
    28   14   16 1    
    29   14   17 1    
    30   16   46 1    
    31   16   47 1    
    32   17   18 2    
    33   17   19 am   BACKBONE|DICT|INTERRES
    34   19   20 am   BACKBONE|DICT|INTERRES
    35   19   48 1    
    36   20   24 1    
    37   20   21 2    
    38   21   22 1    
    39   22   23 2    
    40   22   25 1    
    41   23   24 1    
    42   23   49 1    
    43   25   30 ar   
    44   25   26 ar   
    45   26   27 ar   
    46   26   50 1    
    47   27   28 1    
    48   27   29 ar   
    49   29   34 ar   
    50   29   30 ar   
    51   30   31 ar   
    52   31   32 ar   
    53   31   51 1    
    54   32   33 ar   
    55   32   52 1    
    56   33   34 ar   
    57   33   53 1    
    58   34   54 1    
@<TRIPOS>SUBSTRUCTURE
     1 UNK         1 GROUP             0       ****    0 ROOT    
