@<TRIPOS>MOLECULE
ZINC03965943_5224
64   67    1
SMALL
USER_CHARGES


@<TRIPOS>ATOM
      1 C1          2.3538   52.5166   30.3957 C.3       1 UNK         0.0000 
      2 C2          0.9353   52.8519   29.8871 C.3       1 UNK         0.0000 
      3 C3          0.5362   54.3169   30.1396 C.3       1 UNK         0.0000 
      4 C4          0.6486   52.3647   28.4496 C.ar      1 UNK         0.0000 
      5 C5         -0.3991   51.4450   28.2880 C.ar      1 UNK         0.0000 
      6 C6         -0.6954   50.8968   27.0442 C.ar      1 UNK         0.0000 
      7 C7          0.0653   51.2393   25.9380 C.ar      1 UNK         0.0000 
      8 C8          1.1040   52.1506   26.0748 C.ar      1 UNK         0.0000 
      9 C9          1.3983   52.7534   27.3094 C.ar      1 UNK         0.0000 
     10 S10         2.6883   53.9961   27.4616 S.3       1 UNK         0.0000 
     11 C11         3.5912   54.1619   25.9279 C.ar      1 UNK         0.0000 
     12 C12         2.8924   54.3895   24.7429 C.ar      1 UNK         0.0000 
     13 C13         3.5582   54.4951   23.5303 C.ar      1 UNK         0.0000 
     14 C14         4.9536   54.4204   23.4627 C.ar      1 UNK         0.0000 
     15 C15         5.6608   54.2667   24.6626 C.ar      1 UNK         0.0000 
     16 C16         5.0036   54.1647   25.9031 C.ar      1 UNK         0.0000 
     17 C17         5.8476   54.1190   27.1884 C.3       1 UNK         0.0000 
     18 F18         5.8729   52.8923   27.6817 F         1 UNK         0.0000 
     19 F19         7.1042   54.5010   26.9693 F         1 UNK         0.0000 
     20 F20         5.3655   54.8980   28.1462 F         1 UNK         0.0000 
     21 C21         5.6400   54.5798   22.1445 C.ar      1 UNK         0.0000 
     22 C22         6.8430   55.2963   22.0153 C.ar      1 UNK         0.0000 
     23 C23         7.4027   55.5080   20.7511 C.ar      1 UNK         0.0000 
     24 C24         5.6175   54.3216   19.7161 C.ar      1 UNK         0.0000 
     25 C25         5.0483   54.0826   20.9731 C.ar      1 UNK         0.0000 
     26 N26         5.0066   53.8402   18.5174 N.pl3     1 UNK         0.0000 
     27 C27         5.5184   54.0450   17.1483 C.3       1 UNK         0.0000 
     28 C28         4.7096   53.0686   16.2981 C.3       1 UNK         0.0000 
     29 C29         3.3704   52.9645   16.9996 C.3       1 UNK         0.0000 
     30 H30         2.7676   53.8326   16.7161 H         1 UNK         0.0000 
     31 C31         3.7400   53.0775   18.4787 C.3       1 UNK         0.0000 
     32 N32         2.7042   51.6941   16.7162 N.am      1 UNK         0.0000 
     33 C33         1.3895   51.4761   16.8564 C.2       1 UNK         0.0000 
     34 O34         0.5823   52.3416   17.1949 O.2       1 UNK         0.0000 
     35 C35         0.9120   50.0553   16.5838 C.3       1 UNK         0.0000 
     36 H36         2.7039   51.5647   29.9988 H         1 UNK         0.0000 
     37 H37         3.0843   53.2723   30.1138 H         1 UNK         0.0000 
     38 H38         2.3716   52.4497   31.4845 H         1 UNK         0.0000 
     39 H39         0.2780   52.2761   30.5427 H         1 UNK         0.0000 
     40 H40        -0.4958   54.4961   29.8456 H         1 UNK         0.0000 
     41 H41         0.6161   54.5691   31.1975 H         1 UNK         0.0000 
     42 H42         1.1610   55.0196   29.5927 H         1 UNK         0.0000 
     43 H43        -0.9838   51.1095   29.1344 H         1 UNK         0.0000 
     44 H44        -1.4913   50.1712   26.9498 H         1 UNK         0.0000 
     45 H45        -0.1391   50.7832   24.9798 H         1 UNK         0.0000 
     46 H46         1.6872   52.3255   25.1917 H         1 UNK         0.0000 
     47 H47         1.8176   54.4958   24.7571 H         1 UNK         0.0000 
     48 H48         2.9726   54.6697   22.6387 H         1 UNK         0.0000 
     49 H49         6.7405   54.2379   24.6280 H         1 UNK         0.0000 
     50 H50         7.3438   55.6974   22.8854 H         1 UNK         0.0000 
     51 H51         8.3332   56.0337   20.5750 H         1 UNK         0.0000 
     52 H52         4.1303   53.5169   21.0415 H         1 UNK         0.0000 
     53 H53         6.5848   53.8240   17.0971 H         1 UNK         0.0000 
     54 H54         5.3480   55.0853   16.8666 H         1 UNK         0.0000 
     55 H55         5.2081   52.0967   16.2906 H         1 UNK         0.0000 
     56 H56         4.6209   53.3636   15.2518 H         1 UNK         0.0000 
     57 H57         2.9585   53.5942   19.0385 H         1 UNK         0.0000 
     58 H58         3.9307   52.1022   18.9323 H         1 UNK         0.0000 
     59 H59         3.2998   50.8718   16.6354 H         1 UNK         0.0000 
     60 H60         0.8029   49.5113   17.5228 H         1 UNK         0.0000 
     61 H61         1.6206   49.5112   15.9562 H         1 UNK         0.0000 
     62 H62        -0.0537   50.0740   16.0775 H         1 UNK         0.0000 
     63 N63         6.7704   55.0233   19.6622 N.pl3     1 UNK         0.0000 
     64 H64         7.1808   55.1837   18.7527 H         1 UNK         0.0000 
@<TRIPOS>BOND
     1    1    2 1    
     2    1   36 1    
     3    1   37 1    
     4    1   38 1    
     5    2    3 1    
     6    2    4 1    
     7    2   39 1    
     8    3   40 1    
     9    3   41 1    
    10    3   42 1    
    11    4    9 ar   
    12    4    5 ar   
    13    5    6 ar   
    14    5   43 1    
    15    6    7 ar   
    16    6   44 1    
    17    7    8 ar   
    18    7   45 1    
    19    8    9 ar   
    20    8   46 1    
    21    9   10 1    
    22   10   11 1    
    23   11   16 ar   
    24   11   12 ar   
    25   12   13 ar   
    26   12   47 1    
    27   13   14 ar   
    28   13   48 1    
    29   14   15 ar   
    30   14   21 1    
    31   15   16 ar   
    32   15   49 1    
    33   16   17 1    
    34   17   18 1    
    35   17   19 1    
    36   17   20 1    
    37   21   25 ar   
    38   21   22 ar   
    39   22   23 ar   
    40   22   50 1    
    41   23   51 1    
    42   23   63 ar   
    43   24   25 ar   
    44   24   26 1    
    45   24   63 ar   
    46   25   52 1    
    47   26   31 1    
    48   26   27 1    
    49   27   28 1    
    50   27   53 1    
    51   27   54 1    
    52   28   29 1    
    53   28   55 1    
    54   28   56 1    
    55   29   30 1    
    56   29   31 1    
    57   29   32 1    
    58   31   57 1    
    59   31   58 1    
    60   32   33 am   BACKBONE|DICT|INTERRES
    61   32   59 1    
    62   33   34 2    
    63   33   35 1    
    64   35   60 1    
    65   35   61 1    
    66   35   62 1    
    67   63   64 1    
@<TRIPOS>SUBSTRUCTURE
     1 UNK         1 GROUP             0       ****    0 ROOT    
