@<TRIPOS>MOLECULE
ZINC37191421_1833
33   35    1
SMALL
USER_CHARGES


@<TRIPOS>ATOM
      1 C1         -0.5578   50.3280   24.8287 C.ar      1 UNK         0.0000 
      2 C2          0.4270   51.0783   24.1912 C.ar      1 UNK         0.0000 
      3 C3          1.1077   52.0832   24.8755 C.ar      1 UNK         0.0000 
      4 C4          0.8114   52.3410   26.2342 C.ar      1 UNK         0.0000 
      5 C5         -0.2063   51.5844   26.8894 C.ar      1 UNK         0.0000 
      6 C6         -0.8854   50.5702   26.1607 C.ar      1 UNK         0.0000 
      7 C7         -0.4509   51.9358   28.2492 C.ar      1 UNK         0.0000 
      8 N8          0.2203   52.9205   28.8913 N.ar      1 UNK         0.0000 
      9 C9          1.1651   53.5700   28.1683 C.ar      1 UNK         0.0000 
     10 N10         1.5029   53.3182   26.8796 N.ar      1 UNK         0.0000 
     11 C11         1.8742   54.7344   28.8518 C.3       1 UNK         0.0000 
     12 S12         3.6269   54.4007   29.2390 S.3       1 UNK         0.0000 
     13 C13         4.6207   54.4440   27.7685 C.ar      1 UNK         0.0000 
     14 C14         4.1129   54.8931   26.5446 C.ar      1 UNK         0.0000 
     15 C15         4.9410   54.8966   25.4247 C.ar      1 UNK         0.0000 
     16 C16         6.2680   54.4964   25.5507 C.ar      1 UNK         0.0000 
     17 C17         6.7119   54.0862   26.8097 C.ar      1 UNK         0.0000 
     18 N18         5.9120   54.0481   27.9061 N.ar      1 UNK         0.0000 
     19 N19         7.1020   54.5249   24.4339 N.pl3     1 UNK         0.0000 
     20 N20        -1.4194   51.2968   29.0165 N.pl3     1 UNK         0.0000 
     21 H21        -1.0745   49.5489   24.2862 H         1 UNK         0.0000 
     22 H22         0.6673   50.8763   23.1579 H         1 UNK         0.0000 
     23 H23         1.8786   52.6578   24.3820 H         1 UNK         0.0000 
     24 H24        -1.6518   49.9810   26.6445 H         1 UNK         0.0000 
     25 H25         1.3712   54.9679   29.7906 H         1 UNK         0.0000 
     26 H26         1.7905   55.6335   28.2428 H         1 UNK         0.0000 
     27 H27         3.1053   55.2486   26.4482 H         1 UNK         0.0000 
     28 H28         4.5532   55.2313   24.4749 H         1 UNK         0.0000 
     29 H29         7.7252   53.7592   26.9671 H         1 UNK         0.0000 
     30 H30         8.1089   54.4304   24.5010 H         1 UNK         0.0000 
     31 H31         6.7029   54.8236   23.5554 H         1 UNK         0.0000 
     32 H32        -1.6951   50.3576   28.7328 H         1 UNK         0.0000 
     33 H33        -1.4157   51.5109   30.0034 H         1 UNK         0.0000 
@<TRIPOS>BOND
     1    1    6 ar   
     2    1    2 ar   
     3    1   21 1    
     4    2    3 ar   
     5    2   22 1    
     6    3    4 ar   
     7    3   23 1    
     8    4   10 ar   
     9    4    5 ar   
    10    5    6 ar   
    11    5    7 ar   
    12    6   24 1    
    13    7    8 ar   
    14    7   20 1    
    15    8    9 ar   
    16    9   10 ar   
    17    9   11 1    
    18   11   12 1    
    19   11   25 1    
    20   11   26 1    
    21   12   13 1    
    22   13   18 ar   
    23   13   14 ar   
    24   14   15 ar   
    25   14   27 1    
    26   15   16 ar   
    27   15   28 1    
    28   16   17 ar   
    29   16   19 1    
    30   17   18 ar   
    31   17   29 1    
    32   19   30 1    
    33   19   31 1    
    34   20   32 1    
    35   20   33 1    
@<TRIPOS>SUBSTRUCTURE
     1 UNK         1 GROUP             0       ****    0 ROOT    
