@<TRIPOS>MOLECULE
ZINC00739418_4388
60   64    1
SMALL
USER_CHARGES


@<TRIPOS>ATOM
      1 C1          1.4276   52.4200   28.5937 C.ar      1 UNK         0.0000 
      2 C2          0.9033   52.7079   27.3378 C.ar      1 UNK         0.0000 
      3 C3          1.6971   53.2970   26.3550 C.ar      1 UNK         0.0000 
      4 C4          3.0554   53.6081   26.6161 C.ar      1 UNK         0.0000 
      5 C5          3.8928   54.1949   25.6334 C.ar      1 UNK         0.0000 
      6 C6          5.2594   54.3896   25.8711 C.ar      1 UNK         0.0000 
      7 C7          5.7620   54.0967   27.1491 C.ar      1 UNK         0.0000 
      8 C8          4.9564   53.5712   28.1529 C.ar      1 UNK         0.0000 
      9 C9          3.5951   53.2979   27.9018 C.ar      1 UNK         0.0000 
     10 C10         2.7586   52.7084   28.8852 C.ar      1 UNK         0.0000 
     11 C11         6.2107   54.9688   24.8360 C.2       1 UNK         0.0000 
     12 O12         7.1042   55.6970   25.2740 O.2       1 UNK         0.0000 
     13 N13         6.1088   54.6910   23.4953 N.am      1 UNK         0.0000 
     14 C14         5.3061   53.6089   22.9069 C.3       1 UNK         0.0000 
     15 C15         4.6252   54.1211   21.6180 C.3       1 UNK         0.0000 
     16 N16         5.5556   54.6966   20.6328 N.pl3     1 UNK         0.0000 
     17 C17         6.4594   55.6914   21.2308 C.3       1 UNK         0.0000 
     18 C18         7.1043   55.2667   22.5691 C.3       1 UNK         0.0000 
     19 C19         5.6140   54.2830   19.3009 C.ar      1 UNK         0.0000 
     20 C20         4.4698   53.7977   18.6492 C.ar      1 UNK         0.0000 
     21 C21         4.5463   53.2987   17.3523 C.ar      1 UNK         0.0000 
     22 C22         5.7658   53.2944   16.6759 C.ar      1 UNK         0.0000 
     23 C23         6.9077   53.8090   17.2974 C.ar      1 UNK         0.0000 
     24 C24         6.8269   54.3004   18.5967 C.ar      1 UNK         0.0000 
     25 N25         5.8002   52.6580   15.4250 N.am      1 UNK         0.0000 
     26 C26         6.6669   52.8729   14.4169 C.2       1 UNK         0.0000 
     27 O27         7.4534   53.8183   14.3573 O.2       1 UNK         0.0000 
     28 N28         6.5775   51.9089   13.4830 N.am      1 UNK         0.0000 
     29 C29         7.3484   51.8873   12.3134 C.ar      1 UNK         0.0000 
     30 C30         8.3241   50.8958   12.1732 C.ar      1 UNK         0.0000 
     31 C31         9.1019   50.8455   11.0168 C.ar      1 UNK         0.0000 
     32 C32         8.8950   51.7661    9.9897 C.ar      1 UNK         0.0000 
     33 C33         7.9099   52.7455   10.1164 C.ar      1 UNK         0.0000 
     34 C34         7.1367   52.8125   11.2747 C.ar      1 UNK         0.0000 
     35 F35         6.1780   53.7640   11.3736 F         1 UNK         0.0000 
     36 F36         9.6426   51.7026    8.8658 F         1 UNK         0.0000 
     37 H37         0.7982   51.9603   29.3436 H         1 UNK         0.0000 
     38 H38        -0.1284   52.4673   27.1251 H         1 UNK         0.0000 
     39 H39         1.2814   53.5081   25.3802 H         1 UNK         0.0000 
     40 H40         3.4478   54.4694   24.6854 H         1 UNK         0.0000 
     41 H41         6.8051   54.2705   27.3802 H         1 UNK         0.0000 
     42 H42         5.3814   53.3462   29.1226 H         1 UNK         0.0000 
     43 H43         3.1679   52.4710   29.8577 H         1 UNK         0.0000 
     44 H44         5.9782   52.7983   22.6261 H         1 UNK         0.0000 
     45 H45         4.5744   53.1709   23.5725 H         1 UNK         0.0000 
     46 H46         3.8867   54.8886   21.8576 H         1 UNK         0.0000 
     47 H47         4.0687   53.2906   21.1847 H         1 UNK         0.0000 
     48 H48         5.8685   56.5924   21.3766 H         1 UNK         0.0000 
     49 H49         7.2449   55.9886   20.5418 H         1 UNK         0.0000 
     50 H50         7.6547   56.0992   22.9971 H         1 UNK         0.0000 
     51 H51         7.8332   54.4881   22.3463 H         1 UNK         0.0000 
     52 H52         3.5127   53.7840   19.1489 H         1 UNK         0.0000 
     53 H53         3.6621   52.8840   16.8914 H         1 UNK         0.0000 
     54 H54         7.8731   53.7878   16.8099 H         1 UNK         0.0000 
     55 H55         7.7422   54.6371   19.0604 H         1 UNK         0.0000 
     56 H56         5.0783   51.9671   15.2788 H         1 UNK         0.0000 
     57 H57         6.0046   51.1028   13.6737 H         1 UNK         0.0000 
     58 H58         8.4945   50.1773   12.9640 H         1 UNK         0.0000 
     59 H59         9.8734   50.0967   10.9166 H         1 UNK         0.0000 
     60 H60         7.7494   53.4543    9.3180 H         1 UNK         0.0000 
@<TRIPOS>BOND
     1    1   10 ar   
     2    1    2 ar   
     3    1   37 1    
     4    2    3 ar   
     5    2   38 1    
     6    3    4 ar   
     7    3   39 1    
     8    4    9 ar   
     9    4    5 ar   
    10    5    6 ar   
    11    5   40 1    
    12    6    7 ar   
    13    6   11 1    
    14    7    8 ar   
    15    7   41 1    
    16    8    9 ar   
    17    8   42 1    
    18    9   10 ar   
    19   10   43 1    
    20   11   12 2    
    21   11   13 am   BACKBONE|DICT|INTERRES
    22   13   18 1    
    23   13   14 1    
    24   14   15 1    
    25   14   44 1    
    26   14   45 1    
    27   15   16 1    
    28   15   46 1    
    29   15   47 1    
    30   16   17 1    
    31   16   19 1    
    32   17   18 1    
    33   17   48 1    
    34   17   49 1    
    35   18   50 1    
    36   18   51 1    
    37   19   24 ar   
    38   19   20 ar   
    39   20   21 ar   
    40   20   52 1    
    41   21   22 ar   
    42   21   53 1    
    43   22   23 ar   
    44   22   25 1    
    45   23   24 ar   
    46   23   54 1    
    47   24   55 1    
    48   25   26 am   BACKBONE|DICT|INTERRES
    49   25   56 1    
    50   26   27 2    
    51   26   28 am   BACKBONE|DICT|INTERRES
    52   28   29 1    
    53   28   57 1    
    54   29   34 ar   
    55   29   30 ar   
    56   30   31 ar   
    57   30   58 1    
    58   31   32 ar   
    59   31   59 1    
    60   32   33 ar   
    61   32   36 1    
    62   33   34 ar   
    63   33   60 1    
    64   34   35 1    
@<TRIPOS>SUBSTRUCTURE
     1 UNK         1 GROUP             0       ****    0 ROOT    
