@<TRIPOS>MOLECULE
ZINC49207379_1553
53   56    1
SMALL
USER_CHARGES


@<TRIPOS>ATOM
      1 C1         -3.5329   52.7832   16.8205 C.3       1 UNK         0.0000 
      2 C2         -2.2221   53.4913   17.1644 C.2       1 UNK         0.0000 
      3 O3         -2.1788   54.7110   16.9848 O.2       1 UNK         0.0000 
      4 N4         -1.1356   52.7564   17.5320 N.am      1 UNK         0.0000 
      5 C5         -1.3006   51.3867   18.0826 C.3       1 UNK         0.0000 
      6 C6         -0.0946   50.5295   17.6366 C.3       1 UNK         0.0000 
      7 C7          1.2596   51.1572   18.0380 C.3       1 UNK         0.0000 
      8 C8          1.3027   52.4828   17.2607 C.3       1 UNK         0.0000 
      9 C9          0.1702   53.4500   17.6833 C.3       1 UNK         0.0000 
     10 N10         1.4066   51.3980   19.4810 N.am      1 UNK         0.0000 
     11 C11         1.4040   50.4586   20.4558 C.2       1 UNK         0.0000 
     12 O12         1.2569   49.2571   20.2199 O.2       1 UNK         0.0000 
     13 C13         1.5545   50.9495   21.8666 C.2       1 UNK         0.0000 
     14 O14         1.2958   50.2038   22.8153 O.2       1 UNK         0.0000 
     15 N15         2.0088   52.2210   22.0161 N.am      1 UNK         0.0000 
     16 C16         2.3161   52.8639   23.2267 C.ar      1 UNK         0.0000 
     17 C17         3.4377   53.7163   23.2207 C.ar      1 UNK         0.0000 
     18 C18         3.8821   54.3310   24.4004 C.ar      1 UNK         0.0000 
     19 C19         3.1623   54.0874   25.5621 C.ar      1 UNK         0.0000 
     20 C20         2.0528   53.2965   25.5680 C.ar      1 UNK         0.0000 
     21 C21         1.5878   52.6678   24.4166 C.ar      1 UNK         0.0000 
     22 O22         1.5493   53.2422   26.8276 O.3       1 UNK         0.0000 
     23 C23         2.4071   53.9916   27.6586 C.3       1 UNK         0.0000 
     24 O24         3.4021   54.5328   26.8221 O.3       1 UNK         0.0000 
     25 C25         3.0333   53.1174   28.7451 C.3       1 UNK         0.0000 
     26 C26         1.9645   53.1370   29.8319 C.3       1 UNK         0.0000 
     27 C27         1.4750   54.5744   29.8305 C.3       1 UNK         0.0000 
     28 C28         1.6556   55.1026   28.4092 C.3       1 UNK         0.0000 
     29 H29        -4.0278   52.4247   17.7252 H         1 UNK         0.0000 
     30 H30        -3.3529   51.9389   16.1524 H         1 UNK         0.0000 
     31 H31        -4.2078   53.4691   16.3052 H         1 UNK         0.0000 
     32 H32        -1.3325   51.4429   19.1713 H         1 UNK         0.0000 
     33 H33        -2.1769   50.8674   17.6917 H         1 UNK         0.0000 
     34 H34        -0.1818   49.5305   18.0666 H         1 UNK         0.0000 
     35 H35        -0.1302   50.3630   16.5575 H         1 UNK         0.0000 
     36 H36         2.0799   50.5030   17.7264 H         1 UNK         0.0000 
     37 H37         1.2563   52.3036   16.1848 H         1 UNK         0.0000 
     38 H38         2.2676   52.9670   17.4189 H         1 UNK         0.0000 
     39 H39         0.2537   54.3223   17.0308 H         1 UNK         0.0000 
     40 H40         0.3035   53.7312   18.7276 H         1 UNK         0.0000 
     41 H41         1.5201   52.3669   19.7268 H         1 UNK         0.0000 
     42 H42         2.2923   52.7211   21.1879 H         1 UNK         0.0000 
     43 H43         3.9965   53.8791   22.3107 H         1 UNK         0.0000 
     44 H44         4.7610   54.9574   24.4053 H         1 UNK         0.0000 
     45 H45         0.7165   52.0315   24.4494 H         1 UNK         0.0000 
     46 H46         3.2420   52.1215   28.3544 H         1 UNK         0.0000 
     47 H47         3.9860   53.5466   29.0620 H         1 UNK         0.0000 
     48 H48         1.1478   52.4583   29.5797 H         1 UNK         0.0000 
     49 H49         2.3534   52.8299   30.8035 H         1 UNK         0.0000 
     50 H50         0.4450   54.6638   30.1823 H         1 UNK         0.0000 
     51 H51         2.0916   55.1859   30.4857 H         1 UNK         0.0000 
     52 H52         2.2466   56.0184   28.4009 H         1 UNK         0.0000 
     53 H53         0.6986   55.2918   27.9275 H         1 UNK         0.0000 
@<TRIPOS>BOND
     1    1    2 1    
     2    1   29 1    
     3    1   30 1    
     4    1   31 1    
     5    2    3 2    
     6    2    4 am   BACKBONE|DICT|INTERRES
     7    4    9 1    
     8    4    5 1    
     9    5    6 1    
    10    5   32 1    
    11    5   33 1    
    12    6    7 1    
    13    6   34 1    
    14    6   35 1    
    15    7    8 1    
    16    7   10 1    
    17    7   36 1    
    18    8    9 1    
    19    8   37 1    
    20    8   38 1    
    21    9   39 1    
    22    9   40 1    
    23   10   11 am   BACKBONE|DICT|INTERRES
    24   10   41 1    
    25   11   12 2    
    26   11   13 1    
    27   13   14 2    
    28   13   15 am   BACKBONE|DICT|INTERRES
    29   15   16 1    
    30   15   42 1    
    31   16   21 ar   
    32   16   17 ar   
    33   17   18 ar   
    34   17   43 1    
    35   18   19 ar   
    36   18   44 1    
    37   19   24 1    
    38   19   20 ar   
    39   20   21 ar   
    40   20   22 1    
    41   21   45 1    
    42   22   23 1    
    43   23   28 1    
    44   23   24 1    
    45   23   25 1    
    46   25   26 1    
    47   25   46 1    
    48   25   47 1    
    49   26   27 1    
    50   26   48 1    
    51   26   49 1    
    52   27   28 1    
    53   27   50 1    
    54   27   51 1    
    55   28   52 1    
    56   28   53 1    
@<TRIPOS>SUBSTRUCTURE
     1 UNK         1 GROUP             0       ****    0 ROOT    
