@<TRIPOS>MOLECULE
ZINC14556924_4123
54   56    1
SMALL
USER_CHARGES


@<TRIPOS>ATOM
      1 C1          9.0951   54.8382   18.5678 C.3       1 UNK         0.0000 
      2 O2          7.8652   54.8965   19.2781 O.3       1 UNK         0.0000 
      3 C3          6.6689   54.7516   18.5996 C.ar      1 UNK         0.0000 
      4 C4          6.6149   54.6153   17.2001 C.ar      1 UNK         0.0000 
      5 C5          5.4016   54.4709   16.5358 C.ar      1 UNK         0.0000 
      6 C6          4.2165   54.4640   17.2603 C.ar      1 UNK         0.0000 
      7 C7          4.2508   54.5916   18.6446 C.ar      1 UNK         0.0000 
      8 C8          5.4640   54.7356   19.3401 C.ar      1 UNK         0.0000 
      9 C9          5.4607   54.8830   20.8527 C.2       1 UNK         0.0000 
     10 O10         6.3453   55.5189   21.4323 O.2       1 UNK         0.0000 
     11 N11         4.4139   54.2914   21.4867 N.am      1 UNK         0.0000 
     12 C12         4.1285   54.1331   22.8149 C.2       1 UNK         0.0000 
     13 S13         2.6102   53.5255   23.1378 S.2       1 UNK         0.0000 
     14 N14         5.1121   54.4355   23.7277 N.pl3     1 UNK         0.0000 
     15 C15         5.1876   54.3838   25.1359 C.ar      1 UNK         0.0000 
     16 C16         6.4596   54.2020   25.6808 C.ar      1 UNK         0.0000 
     17 C17         6.6271   54.0972   27.0597 C.ar      1 UNK         0.0000 
     18 C18         5.5231   54.1640   27.9059 C.ar      1 UNK         0.0000 
     19 C19         4.2306   54.3481   27.3929 C.ar      1 UNK         0.0000 
     20 C20         4.0895   54.5062   26.0017 C.ar      1 UNK         0.0000 
     21 C21         3.0521   54.4414   28.3518 C.2       1 UNK         0.0000 
     22 O22         3.2634   54.8963   29.4815 O.2       1 UNK         0.0000 
     23 N23         1.7985   54.0586   27.9596 N.am      1 UNK         0.0000 
     24 C24         1.5634   53.1368   26.8264 C.3       1 UNK         0.0000 
     25 C25         0.4118   52.1183   26.9665 C.3       1 UNK         0.0000 
     26 C26         0.3836   51.2978   28.2691 C.3       1 UNK         0.0000 
     27 C27        -0.2696   52.0075   29.4709 C.3       1 UNK         0.0000 
     28 C28         0.4533   53.2737   29.9620 C.3       1 UNK         0.0000 
     29 C29         0.6510   54.3177   28.8480 C.3       1 UNK         0.0000 
     30 Br30        2.5491   54.2909   16.3623 Br        1 UNK         0.0000 
     31 H31         9.9043   54.8972   19.2880 H         1 UNK         0.0000 
     32 H32         9.2109   53.8968   18.0279 H         1 UNK         0.0000 
     33 H33         9.2017   55.6739   17.8768 H         1 UNK         0.0000 
     34 H34         7.5116   54.6198   16.5997 H         1 UNK         0.0000 
     35 H35         5.3789   54.3669   15.4609 H         1 UNK         0.0000 
     36 H36         3.3046   54.5784   19.1624 H         1 UNK         0.0000 
     37 H37         3.7352   53.8743   20.8707 H         1 UNK         0.0000 
     38 H38         5.9926   54.6935   23.3027 H         1 UNK         0.0000 
     39 H39         7.3217   54.1213   25.0329 H         1 UNK         0.0000 
     40 H40         7.6098   53.9484   27.4802 H         1 UNK         0.0000 
     41 H41         5.6834   54.0766   28.9713 H         1 UNK         0.0000 
     42 H42         3.1262   54.7540   25.5938 H         1 UNK         0.0000 
     43 H43         1.2831   53.7444   25.9662 H         1 UNK         0.0000 
     44 H44         2.4704   52.5735   26.5998 H         1 UNK         0.0000 
     45 H45        -0.5474   52.6212   26.8289 H         1 UNK         0.0000 
     46 H46         0.4795   51.4318   26.1216 H         1 UNK         0.0000 
     47 H47        -0.1996   50.4028   28.0669 H         1 UNK         0.0000 
     48 H48         1.3860   50.9535   28.5247 H         1 UNK         0.0000 
     49 H49        -0.3705   51.3009   30.2942 H         1 UNK         0.0000 
     50 H50        -1.2949   52.2638   29.2056 H         1 UNK         0.0000 
     51 H51         1.4068   53.0110   30.4233 H         1 UNK         0.0000 
     52 H52        -0.1513   53.7147   30.7549 H         1 UNK         0.0000 
     53 H53         0.8074   55.2835   29.3335 H         1 UNK         0.0000 
     54 H54        -0.2459   54.4966   28.2554 H         1 UNK         0.0000 
@<TRIPOS>BOND
     1    1    2 1    
     2    1   31 1    
     3    1   32 1    
     4    1   33 1    
     5    2    3 1    
     6    3    8 ar   
     7    3    4 ar   
     8    4    5 ar   
     9    4   34 1    
    10    5    6 ar   
    11    5   35 1    
    12    6    7 ar   
    13    6   30 1    
    14    7    8 ar   
    15    7   36 1    
    16    8    9 1    
    17    9   10 2    
    18    9   11 am   BACKBONE|DICT|INTERRES
    19   11   12 am   BACKBONE|DICT|INTERRES
    20   11   37 1    
    21   12   13 2    
    22   12   14 1    
    23   14   15 1    
    24   14   38 1    
    25   15   20 ar   
    26   15   16 ar   
    27   16   17 ar   
    28   16   39 1    
    29   17   18 ar   
    30   17   40 1    
    31   18   19 ar   
    32   18   41 1    
    33   19   20 ar   
    34   19   21 1    
    35   20   42 1    
    36   21   22 2    
    37   21   23 am   BACKBONE|DICT|INTERRES
    38   23   29 1    
    39   23   24 1    
    40   24   25 1    
    41   24   43 1    
    42   24   44 1    
    43   25   26 1    
    44   25   45 1    
    45   25   46 1    
    46   26   27 1    
    47   26   47 1    
    48   26   48 1    
    49   27   28 1    
    50   27   49 1    
    51   27   50 1    
    52   28   29 1    
    53   28   51 1    
    54   28   52 1    
    55   29   53 1    
    56   29   54 1    
@<TRIPOS>SUBSTRUCTURE
     1 UNK         1 GROUP             0       ****    0 ROOT    
