ZINC21373015_2306
                    3D
 Schrodinger Suite 2024-2.
 52 56  0  0  1  0            999 V2000
   -9.3360   53.3124   28.6086 C   0  0  0  0  0  0
   -7.9971   53.0394   27.9467 C   0  0  0  0  0  0
   -7.3187   54.0615   27.2804 C   0  0  0  0  0  0
   -6.0985   53.7932   26.6679 C   0  0  0  0  0  0
   -5.5421   52.5083   26.7102 C   0  0  0  0  0  0
   -6.2423   51.4890   27.3675 C   0  0  0  0  0  0
   -7.4610   51.7533   27.9859 C   0  0  0  0  0  0
   -4.2211   52.2628   26.0292 C   0  0  0  0  0  0
   -3.7773   53.0056   25.0390 N   0  0  0  0  0  0
   -2.5480   52.4966   24.6391 N   0  0  0  0  0  0
   -2.2963   51.4528   25.3887 C   0  0  0  0  0  0
   -3.2979   51.2686   26.3160 N   0  0  0  0  0  0
   -3.3347   50.3008   27.3045 N   0  0  0  0  0  0
   -0.8189   50.4949   25.3063 S   0  0  0  0  0  0
    0.3948   51.8456   25.4438 C   0  0  0  0  0  0
    0.9533   52.0973   26.8631 C   0  0  0  0  0  0
    0.4642   51.5100   27.8315 O   0  0  0  0  0  0
    2.0063   52.9471   26.9984 N   0  0  0  0  0  0
    2.7466   53.1953   28.2433 C   0  0  1  0  0  0
    2.8769   52.2704   28.8077 H   0  0  0  0  0  0
    4.1026   53.6669   27.7116 C   0  0  0  0  0  0
    3.7817   53.9129   26.2637 C   0  0  0  0  0  0
    2.6317   53.5003   25.9240 N   0  0  0  0  0  0
    4.7382   54.3662   25.2577 C   0  0  0  0  0  0
    4.7272   54.0960   23.8870 C   0  0  0  0  0  0
    5.8506   54.5747   23.2138 C   0  0  0  0  0  0
    6.6817   55.2964   24.0502 C   0  0  0  0  0  0
    6.1473   55.2890   25.6963 S   0  0  0  0  0  0
    2.0063   54.1385   29.1884 C   0  0  0  0  0  0
    1.0429   53.8051   30.1441 C   0  0  0  0  0  0
    0.5530   54.8853   30.8814 C   0  0  0  0  0  0
    1.1046   56.0881   30.4829 C   0  0  0  0  0  0
    2.2474   55.8670   29.2112 S   0  0  0  0  0  0
   -9.2242   53.3660   29.6941 H   0  0  0  0  0  0
   -9.7900   54.2378   28.2443 H   0  0  0  0  0  0
  -10.0408   52.5055   28.3866 H   0  0  0  0  0  0
   -7.7296   55.0606   27.2415 H   0  0  0  0  0  0
   -5.5781   54.5935   26.1646 H   0  0  0  0  0  0
   -5.8599   50.4815   27.3968 H   0  0  0  0  0  0
   -7.9879   50.9542   28.4875 H   0  0  0  0  0  0
   -3.4251   49.3669   26.9248 H   0  0  0  0  0  0
   -2.5254   50.3451   27.9173 H   0  0  0  0  0  0
    0.0095   52.7777   25.0334 H   0  0  0  0  0  0
    1.2257   51.5497   24.8041 H   0  0  0  0  0  0
    4.5310   54.5321   28.2181 H   0  0  0  0  0  0
    4.8271   52.8512   27.7657 H   0  0  0  0  0  0
    3.9436   53.5328   23.3992 H   0  0  0  0  0  0
    6.0209   54.4426   22.1544 H   0  0  0  0  0  0
    7.5750   55.8315   23.7726 H   0  0  0  0  0  0
    0.7126   52.7881   30.3094 H   0  0  0  0  0  0
   -0.1734   54.7815   31.6758 H   0  0  0  0  0  0
    0.9161   57.0746   30.8813 H   0  0  0  0  0  0
  1  2  1  0  0  0
  1 34  1  0  0  0
  1 35  1  0  0  0
  1 36  1  0  0  0
  2  7  2  0  0  0
  2  3  1  0  0  0
  3  4  2  0  0  0
  3 37  1  0  0  0
  4  5  1  0  0  0
  4 38  1  0  0  0
  5  6  2  0  0  0
  5  8  1  0  0  0
  6  7  1  0  0  0
  6 39  1  0  0  0
  7 40  1  0  0  0
  8 12  1  0  0  0
  8  9  2  0  0  0
  9 10  1  0  0  0
 10 11  2  0  0  0
 11 12  1  0  0  0
 11 14  1  0  0  0
 12 13  1  0  0  0
 13 41  1  0  0  0
 13 42  1  0  0  0
 14 15  1  0  0  0
 15 16  1  0  0  0
 15 43  1  0  0  0
 15 44  1  0  0  0
 16 17  2  0  0  0
 16 18  1  0  0  0
 18 23  1  0  0  0
 18 19  1  0  0  0
 19 20  1  0  0  0
 19 21  1  0  0  0
 19 29  1  0  0  0
 21 22  1  0  0  0
 21 45  1  0  0  0
 21 46  1  0  0  0
 22 23  2  0  0  0
 22 24  1  0  0  0
 24 28  1  0  0  0
 24 25  2  0  0  0
 25 26  1  0  0  0
 25 47  1  0  0  0
 26 27  2  0  0  0
 26 48  1  0  0  0
 27 28  1  0  0  0
 27 49  1  0  0  0
 29 33  1  0  0  0
 29 30  2  0  0  0
 30 31  1  0  0  0
 30 50  1  0  0  0
 31 32  2  0  0  0
 31 51  1  0  0  0
 32 33  1  0  0  0
 32 52  1  0  0  0
M  END
> <i_i_glide_confnum>
113

> <i_i_glide_lignum>
2307

> <i_i_glide_posenum>
332

> <i_i_glide_rotatable_bonds>
7

> <i_m_Source_File_Index>
5588

> <b_m_subgroup_collapsed>
0

> <r_i_docking_score>
-6.51428

> <r_i_glide_ecoul>
-3.4438

> <r_i_glide_eff_state_penalty>
0

> <r_i_glide_einternal>
6.96939

> <r_i_glide_emodel>
-68.9733

> <r_i_glide_energy>
-51.6297

> <r_i_glide_erotb>
0.614541

> <r_i_glide_esite>
-0.136415

> <r_i_glide_evdw>
-48.1859

> <r_i_glide_gscore>
-6.51428

> <r_i_glide_hbond>
-0.0206322

> <r_i_glide_ligand_efficiency>
-0.203571

> <r_i_glide_ligand_efficiency_ln>
-1.45872

> <r_i_glide_ligand_efficiency_sa>
-0.646298

> <r_i_glide_lipo>
-3.0477

> <r_i_glide_metal>
0

> <r_i_glide_rewards>
-0.998211

> <s_i_glide_gridfile>
wee1_glide-grid

> <s_m_Source_File>
wee1_decoys_glide_SP.sdf

> <s_m_Source_Path>
/Users/zhangxujun/Desktop

> <s_m_entry_id>
5863

> <s_m_entry_name>
wee1_decoys_glide_SP.5588

> <s_m_subgroup_title>
wee1_decoys_glide_SP

> <s_m_subgroupid>
wee1_decoys_glide_SP


$$$$
