@<TRIPOS>MOLECULE
ZINC05172511_1374
51   53    1
SMALL
USER_CHARGES


@<TRIPOS>ATOM
      1 C1          1.1489   53.2241   27.0938 C.3       1 UNK         0.0000 
      2 C2          2.3820   53.6110   26.2734 C.ar      1 UNK         0.0000 
      3 C3          3.6232   53.8516   26.9001 C.ar      1 UNK         0.0000 
      4 C4          4.7565   54.1344   26.1008 C.ar      1 UNK         0.0000 
      5 C5          4.5993   54.1878   24.7007 C.ar      1 UNK         0.0000 
      6 N6          3.3995   53.9862   24.1079 N.ar      1 UNK         0.0000 
      7 C7          2.3215   53.6980   24.8721 C.ar      1 UNK         0.0000 
      8 C8          1.0442   53.4684   24.0799 C.3       1 UNK         0.0000 
      9 S9          5.9747   54.4951   23.5977 S.3       1 UNK         0.0000 
     10 C10         5.3896   54.3809   21.8685 C.3       1 UNK         0.0000 
     11 C11         6.0882   55.3270   20.8836 C.2       1 UNK         0.0000 
     12 O12         6.7035   56.3220   21.2814 O.2       1 UNK         0.0000 
     13 N13         5.9339   55.0164   19.5776 N.am      1 UNK         0.0000 
     14 N14         6.2898   55.9501   18.5960 N.am      1 UNK         0.0000 
     15 C15         7.5376   56.0779   18.1056 C.2       1 UNK         0.0000 
     16 O16         8.5092   55.3445   18.2949 O.2       1 UNK         0.0000 
     17 C17         7.5185   57.4317   17.3914 C.3       1 UNK         0.0000 
     18 C18         8.2492   57.3631   16.0187 C.3       1 UNK         0.0000 
     19 C19         9.7938   57.3414   16.0992 C.3       1 UNK         0.0000 
     20 C20        10.3462   58.4689   16.9933 C.3       1 UNK         0.0000 
     21 C21         9.6936   58.4710   18.3895 C.3       1 UNK         0.0000 
     22 C22         8.1536   58.5362   18.2893 C.3       1 UNK         0.0000 
     23 N23         6.0905   57.6003   17.2692 N.am      1 UNK         0.0000 
     24 C24         5.3705   56.6806   17.9241 C.2       1 UNK         0.0000 
     25 O25         4.1567   56.4982   17.8517 O.2       1 UNK         0.0000 
     26 C26         6.0691   54.3375   26.7129 C.1       1 UNK         0.0000 
     27 N27         7.1039   54.4955   27.1984 N.1       1 UNK         0.0000 
     28 C28         3.7303   53.8038   28.4323 C.3       1 UNK         0.0000 
     29 H29         0.3232   52.8461   26.4934 H         1 UNK         0.0000 
     30 H30         1.4031   52.4239   27.7900 H         1 UNK         0.0000 
     31 H31         0.7935   54.0706   27.6828 H         1 UNK         0.0000 
     32 H32         0.2414   54.0945   24.4635 H         1 UNK         0.0000 
     33 H33         1.1643   53.7069   23.0215 H         1 UNK         0.0000 
     34 H34         0.7395   52.4241   24.1527 H         1 UNK         0.0000 
     35 H35         5.5065   53.3474   21.5401 H         1 UNK         0.0000 
     36 H36         4.3259   54.6108   21.8203 H         1 UNK         0.0000 
     37 H37         5.4055   54.2366   19.2150 H         1 UNK         0.0000 
     38 H38         7.8787   56.5132   15.4407 H         1 UNK         0.0000 
     39 H39         7.9001   58.1906   15.3981 H         1 UNK         0.0000 
     40 H40        10.1282   56.3765   16.4834 H         1 UNK         0.0000 
     41 H41        10.2181   57.4198   15.0982 H         1 UNK         0.0000 
     42 H42        11.4286   58.3701   17.0872 H         1 UNK         0.0000 
     43 H43        10.1715   59.4317   16.5105 H         1 UNK         0.0000 
     44 H44         9.9947   57.5756   18.9359 H         1 UNK         0.0000 
     45 H45        10.0648   59.3129   18.9736 H         1 UNK         0.0000 
     46 H46         7.8110   59.5141   17.9427 H         1 UNK         0.0000 
     47 H47         7.6991   58.5160   19.2817 H         1 UNK         0.0000 
     48 H48         5.7038   58.4943   16.9926 H         1 UNK         0.0000 
     49 H49         2.7834   53.9969   28.9326 H         1 UNK         0.0000 
     50 H50         4.1140   52.8358   28.7561 H         1 UNK         0.0000 
     51 H51         4.4028   54.5775   28.8048 H         1 UNK         0.0000 
@<TRIPOS>BOND
     1    1    2 1    
     2    1   29 1    
     3    1   30 1    
     4    1   31 1    
     5    2    7 ar   
     6    2    3 ar   
     7    3    4 ar   
     8    3   28 1    
     9    4    5 ar   
    10    4   26 1    
    11    5    6 ar   
    12    5    9 1    
    13    6    7 ar   
    14    7    8 1    
    15    8   32 1    
    16    8   33 1    
    17    8   34 1    
    18    9   10 1    
    19   10   11 1    
    20   10   35 1    
    21   10   36 1    
    22   11   12 2    
    23   11   13 am   BACKBONE|DICT|INTERRES
    24   13   14 1    
    25   13   37 1    
    26   14   24 am   BACKBONE|DICT|INTERRES
    27   14   15 am   BACKBONE|DICT|INTERRES
    28   15   16 2    
    29   15   17 1    
    30   17   22 1    
    31   17   18 1    
    32   17   23 1    
    33   18   19 1    
    34   18   38 1    
    35   18   39 1    
    36   19   20 1    
    37   19   40 1    
    38   19   41 1    
    39   20   21 1    
    40   20   42 1    
    41   20   43 1    
    42   21   22 1    
    43   21   44 1    
    44   21   45 1    
    45   22   46 1    
    46   22   47 1    
    47   23   24 am   BACKBONE|DICT|INTERRES
    48   23   48 1    
    49   24   25 2    
    50   26   27 3    
    51   28   49 1    
    52   28   50 1    
    53   28   51 1    
@<TRIPOS>SUBSTRUCTURE
     1 UNK         1 GROUP             0       ****    0 ROOT    
