ZINC09245847_612
                    3D
 Schrodinger Suite 2024-2.
 56 59  0  0  1  0            999 V2000
    0.3044   54.2877   31.7308 C   0  0  0  0  0  0
    0.7043   55.3154   30.8814 C   0  0  0  0  0  0
    1.1345   55.0160   29.5959 C   0  0  0  0  0  0
    1.1859   53.6875   29.1647 C   0  0  0  0  0  0
    0.8196   52.6650   30.0567 C   0  0  0  0  0  0
    0.3787   52.9664   31.3291 C   0  0  0  0  0  0
    1.7692   53.4057   27.7757 C   0  0  2  0  0  0
    1.4872   54.2449   27.1403 H   0  0  0  0  0  0
    1.2308   52.0967   27.1472 C   0  0  0  0  0  0
    1.5045   51.0210   27.6817 O   0  0  0  0  0  0
    0.4974   52.1994   26.0152 N   0  0  0  0  0  0
   -0.0850   51.1486   25.2741 C   0  0  0  0  0  0
   -0.4453   49.9094   25.8315 C   0  0  0  0  0  0
   -1.0081   48.9107   25.0414 C   0  0  0  0  0  0
   -1.2328   49.1375   23.6859 C   0  0  0  0  0  0
   -0.9008   50.3714   23.1195 C   0  0  0  0  0  0
   -0.3325   51.3747   23.9150 C   0  0  0  0  0  0
   -1.1987   50.6518   21.3786 S   0  0  0  0  0  0
   -2.2533   49.7386   20.9302 O   0  0  0  0  0  0
   -1.2545   52.0967   21.1336 O   0  0  0  0  0  0
    0.2397   50.0622   20.6989 N   0  0  0  0  0  0
    1.3373   50.7907   20.4960 C   0  0  0  0  0  0
    2.8631   52.5849   20.5716 C   0  0  0  0  0  0
    3.5043   51.4537   19.7929 C   0  0  0  0  0  0
    2.6368   50.2202   20.0226 C   0  0  0  0  0  0
    3.5904   53.4539   27.9451 S   0  0  0  0  0  0
    4.3774   53.9175   26.4269 C   0  0  0  0  0  0
    3.6539   54.0724   25.2411 C   0  0  0  0  0  0
    4.3254   54.3593   24.0560 C   0  0  0  0  0  0
    5.7114   54.5026   24.0621 C   0  0  0  0  0  0
    6.4312   54.3882   25.2481 C   0  0  0  0  0  0
    5.7622   54.0960   26.4337 C   0  0  0  0  0  0
   -0.0171   54.4966   32.7386 H   0  0  0  0  0  0
    0.7045   56.3413   31.2189 H   0  0  0  0  0  0
    1.4569   55.8177   28.9467 H   0  0  0  0  0  0
    0.8804   51.6194   29.8140 H   0  0  0  0  0  0
    0.1256   52.1717   32.0121 H   0  0  0  0  0  0
    0.3936   53.1199   25.6194 H   0  0  0  0  0  0
   -0.3158   49.6957   26.8815 H   0  0  0  0  0  0
   -1.2727   47.9666   25.4976 H   0  0  0  0  0  0
   -1.6739   48.3566   23.0829 H   0  0  0  0  0  0
   -0.0746   52.3256   23.4717 H   0  0  0  0  0  0
    0.2180   49.0695   20.5265 H   0  0  0  0  0  0
    2.8886   53.5360   20.0376 H   0  0  0  0  0  0
    3.2952   52.7063   21.5652 H   0  0  0  0  0  0
    4.5450   51.2969   20.0821 H   0  0  0  0  0  0
    3.5055   51.6965   18.7270 H   0  0  0  0  0  0
    3.0424   49.5573   20.7881 H   0  0  0  0  0  0
    2.5016   49.6576   19.0961 H   0  0  0  0  0  0
    2.5850   53.9452   25.2135 H   0  0  0  0  0  0
    3.7741   54.4724   23.1346 H   0  0  0  0  0  0
    6.2331   54.7224   23.1417 H   0  0  0  0  0  0
    7.5041   54.5043   25.2394 H   0  0  0  0  0  0
    6.3216   53.9790   27.3510 H   0  0  0  0  0  0
    1.4976   52.0969   20.7215 N   0  3  0  0  0  0
    0.7364   52.6916   21.0201 H   0  0  0  0  0  0
  1  6  2  0  0  0
  1  2  1  0  0  0
  1 33  1  0  0  0
  2  3  2  0  0  0
  2 34  1  0  0  0
  3  4  1  0  0  0
  3 35  1  0  0  0
  4  5  2  0  0  0
  4  7  1  0  0  0
  5  6  1  0  0  0
  5 36  1  0  0  0
  6 37  1  0  0  0
  7  8  1  0  0  0
  7  9  1  0  0  0
  7 26  1  0  0  0
  9 10  2  0  0  0
  9 11  1  0  0  0
 11 12  1  0  0  0
 11 38  1  0  0  0
 12 17  2  0  0  0
 12 13  1  0  0  0
 13 14  2  0  0  0
 13 39  1  0  0  0
 14 15  1  0  0  0
 14 40  1  0  0  0
 15 16  2  0  0  0
 15 41  1  0  0  0
 16 17  1  0  0  0
 16 18  1  0  0  0
 17 42  1  0  0  0
 18 19  2  0  0  0
 18 20  2  0  0  0
 18 21  1  0  0  0
 21 22  1  0  0  0
 21 43  1  0  0  0
 22 25  1  0  0  0
 22 55  2  0  0  0
 23 24  1  0  0  0
 23 44  1  0  0  0
 23 45  1  0  0  0
 23 55  1  0  0  0
 24 25  1  0  0  0
 24 46  1  0  0  0
 24 47  1  0  0  0
 25 48  1  0  0  0
 25 49  1  0  0  0
 26 27  1  0  0  0
 27 32  2  0  0  0
 27 28  1  0  0  0
 28 29  2  0  0  0
 28 50  1  0  0  0
 29 30  1  0  0  0
 29 51  1  0  0  0
 30 31  2  0  0  0
 30 52  1  0  0  0
 31 32  1  0  0  0
 31 53  1  0  0  0
 32 54  1  0  0  0
 55 56  1  0  0  0
M  CHG  1  55   1
M  END
> <i_i_glide_confnum>
159

> <i_i_glide_lignum>
613

> <i_i_glide_posenum>
89

> <i_i_glide_rotatable_bonds>
9

> <i_m_Source_File_Index>
3782

> <b_m_subgroup_collapsed>
0

> <r_i_docking_score>
-5.258

> <r_i_glide_ecoul>
-6.37142

> <r_i_glide_eff_state_penalty>
0

> <r_i_glide_einternal>
5.38128

> <r_i_glide_emodel>
-61.5026

> <r_i_glide_energy>
-45.0589

> <r_i_glide_erotb>
0.834048

> <r_i_glide_esite>
-0.043056

> <r_i_glide_evdw>
-38.6875

> <r_i_glide_gscore>
-5.258

> <r_i_glide_hbond>
0

> <r_i_glide_ligand_efficiency>
-0.164313

> <r_i_glide_ligand_efficiency_ln>
-1.17741

> <r_i_glide_ligand_efficiency_sa>
-0.52166

> <r_i_glide_lipo>
-2.71428

> <r_i_glide_metal>
0

> <r_i_glide_rewards>
-0.444622

> <s_i_glide_gridfile>
wee1_glide-grid

> <s_m_Source_File>
wee1_decoys_glide_SP.sdf

> <s_m_Source_Path>
/Users/zhangxujun/Desktop

> <s_m_entry_id>
4057

> <s_m_entry_name>
wee1_decoys_glide_SP.3782

> <s_m_subgroup_title>
wee1_decoys_glide_SP

> <s_m_subgroupid>
wee1_decoys_glide_SP


$$$$
