@<TRIPOS>MOLECULE
ZINC38733490_5344
70   74    1
SMALL
USER_CHARGES


@<TRIPOS>ATOM
      1 C1         10.2222   50.3076   14.0585 C.ar      1 UNK         0.0000 
      2 C2         10.8772   49.5623   15.0396 C.ar      1 UNK         0.0000 
      3 C3         10.8167   49.9819   16.3708 C.ar      1 UNK         0.0000 
      4 N4         10.1373   51.1054   16.6775 N.pl3     1 UNK         0.0000 
      5 C5          9.4794   51.8659   15.7705 C.ar      1 UNK         0.0000 
      6 C6          9.5226   51.4632   14.4238 C.ar      1 UNK         0.0000 
      7 N7          8.8334   53.0793   16.1852 N.pl3     1 UNK         0.0000 
      8 C8          7.6640   53.6549   15.4810 C.3       1 UNK         0.0000 
      9 C9          7.7988   55.1888   15.3769 C.3       1 UNK         0.0000 
     10 N10         7.9272   55.7350   16.7381 N.am      1 UNK         0.0000 
     11 C11         9.1234   55.2450   17.4470 C.3       1 UNK         0.0000 
     12 C12         9.0135   53.6964   17.5240 C.3       1 UNK         0.0000 
     13 C13         6.9171   56.3311   17.4315 C.2       1 UNK         0.0000 
     14 O14         7.0659   56.7045   18.5994 O.2       1 UNK         0.0000 
     15 C15         5.5326   56.5896   16.7560 C.3       1 UNK         0.0000 
     16 H16         5.5043   56.0444   15.8170 H         1 UNK         0.0000 
     17 C17         5.4151   58.1045   16.4320 C.3       1 UNK         0.0000 
     18 C18         3.9821   58.4968   16.1020 C.2       1 UNK         0.0000 
     19 C19         2.9092   57.7058   16.2768 C.2       1 UNK         0.0000 
     20 C20         2.9654   56.3132   16.8825 C.3       1 UNK         0.0000 
     21 C21         4.3228   56.0714   17.6154 C.3       1 UNK         0.0000 
     22 H22         4.2616   56.6135   18.5537 H         1 UNK         0.0000 
     23 C23         4.4558   54.5478   17.9118 C.2       1 UNK         0.0000 
     24 O24         4.2736   53.7833   16.9595 O.2       1 UNK         0.0000 
     25 N25         4.6695   54.0821   19.1763 N.am      1 UNK         0.0000 
     26 C26         4.7447   52.6355   19.4077 C.3       1 UNK         0.0000 
     27 C27         3.9321   52.2465   20.6595 C.3       1 UNK         0.0000 
     28 C28         4.1484   53.0932   21.9432 C.3       1 UNK         0.0000 
     29 C29         4.2410   54.5537   21.4924 C.3       1 UNK         0.0000 
     30 C30         5.1705   54.8752   20.3028 C.3       1 UNK         0.0000 
     31 C31         3.0196   52.9784   23.0024 C.ar      1 UNK         0.0000 
     32 C32         1.9062   52.1365   22.8351 C.ar      1 UNK         0.0000 
     33 C33         0.9574   52.0011   23.8446 C.ar      1 UNK         0.0000 
     34 C34         1.1043   52.7053   25.0336 C.ar      1 UNK         0.0000 
     35 C35         2.1872   53.5596   25.2146 C.ar      1 UNK         0.0000 
     36 C36         3.1347   53.6966   24.2048 C.ar      1 UNK         0.0000 
     37 Cl37       -0.0486   52.4965   26.3007 Cl        1 UNK         0.0000 
     38 O38         5.4361   52.8347   22.4779 O.3       1 UNK         0.0000 
     39 H39        10.2752   50.0008   13.0212 H         1 UNK         0.0000 
     40 H40        11.4324   48.6773   14.7605 H         1 UNK         0.0000 
     41 H41        11.2942   49.4749   17.1985 H         1 UNK         0.0000 
     42 H42         9.0454   52.0444   13.6504 H         1 UNK         0.0000 
     43 H43         7.4862   53.2049   14.5062 H         1 UNK         0.0000 
     44 H44         6.7812   53.3948   16.0687 H         1 UNK         0.0000 
     45 H45         7.1744   55.7120   14.6527 H         1 UNK         0.0000 
     46 H46         8.7819   55.3697   14.9365 H         1 UNK         0.0000 
     47 H47         9.9833   55.5029   16.8231 H         1 UNK         0.0000 
     48 H48         9.3016   55.7113   18.4201 H         1 UNK         0.0000 
     49 H49         9.8848   53.2855   18.0329 H         1 UNK         0.0000 
     50 H50         8.1382   53.4137   18.1092 H         1 UNK         0.0000 
     51 H51         5.6731   58.7097   17.3053 H         1 UNK         0.0000 
     52 H52         6.1140   58.4007   15.6479 H         1 UNK         0.0000 
     53 H53         3.8112   59.4831   15.6905 H         1 UNK         0.0000 
     54 H54         1.9460   58.1032   15.9899 H         1 UNK         0.0000 
     55 H55         2.8417   55.6350   16.0355 H         1 UNK         0.0000 
     56 H56         2.1244   56.1124   17.5480 H         1 UNK         0.0000 
     57 H57         5.7888   52.3437   19.5276 H         1 UNK         0.0000 
     58 H58         4.3035   52.0968   18.5703 H         1 UNK         0.0000 
     59 H59         4.1019   51.1926   20.8834 H         1 UNK         0.0000 
     60 H60         2.8844   52.2823   20.3657 H         1 UNK         0.0000 
     61 H61         3.2305   54.8968   21.2817 H         1 UNK         0.0000 
     62 H62         4.5363   55.1769   22.3282 H         1 UNK         0.0000 
     63 H63         6.1853   54.5410   20.5230 H         1 UNK         0.0000 
     64 H64         5.2326   55.9453   20.1348 H         1 UNK         0.0000 
     65 H65         1.7661   51.5352   21.9513 H         1 UNK         0.0000 
     66 H66         0.1190   51.3325   23.7138 H         1 UNK         0.0000 
     67 H67         2.3025   54.0980   26.1433 H         1 UNK         0.0000 
     68 H68         3.9800   54.3444   24.3811 H         1 UNK         0.0000 
     69 H69         5.6906   53.5779   23.0265 H         1 UNK         0.0000 
     70 H70        10.1235   51.3984   17.6466 H         1 UNK         0.0000 
@<TRIPOS>BOND
     1    1    6 ar   
     2    1    2 ar   
     3    1   39 1    
     4    2    3 ar   
     5    2   40 1    
     6    3    4 ar   
     7    3   41 1    
     8    4    5 ar   
     9    4   70 1    
    10    5    6 ar   
    11    5    7 1    
    12    6   42 1    
    13    7   12 1    
    14    7    8 1    
    15    8    9 1    
    16    8   43 1    
    17    8   44 1    
    18    9   10 1    
    19    9   45 1    
    20    9   46 1    
    21   10   11 1    
    22   10   13 am   BACKBONE|DICT|INTERRES
    23   11   12 1    
    24   11   47 1    
    25   11   48 1    
    26   12   49 1    
    27   12   50 1    
    28   13   14 2    
    29   13   15 1    
    30   15   16 1    
    31   15   21 1    
    32   15   17 1    
    33   17   18 1    
    34   17   51 1    
    35   17   52 1    
    36   18   19 2    
    37   18   53 1    
    38   19   20 1    
    39   19   54 1    
    40   20   21 1    
    41   20   55 1    
    42   20   56 1    
    43   21   22 1    
    44   21   23 1    
    45   23   24 2    
    46   23   25 am   BACKBONE|DICT|INTERRES
    47   25   30 1    
    48   25   26 1    
    49   26   27 1    
    50   26   57 1    
    51   26   58 1    
    52   27   28 1    
    53   27   59 1    
    54   27   60 1    
    55   28   29 1    
    56   28   31 1    
    57   28   38 1    
    58   29   30 1    
    59   29   61 1    
    60   29   62 1    
    61   30   63 1    
    62   30   64 1    
    63   31   36 ar   
    64   31   32 ar   
    65   32   33 ar   
    66   32   65 1    
    67   33   34 ar   
    68   33   66 1    
    69   34   35 ar   
    70   34   37 1    
    71   35   36 ar   
    72   35   67 1    
    73   36   68 1    
    74   38   69 1    
@<TRIPOS>SUBSTRUCTURE
     1 UNK         1 GROUP             0       ****    0 ROOT    
