@<TRIPOS>MOLECULE
ZINC56744312_232
60   62    1
SMALL
USER_CHARGES


@<TRIPOS>ATOM
      1 C1          5.1087   53.4526   16.5343 C.3       1 UNK         0.0000 
      2 C2          5.0618   54.2623   17.8450 C.3       1 UNK         0.0000 
      3 H3          4.1848   54.9159   17.8371 H         1 UNK         0.0000 
      4 C4          6.3211   55.1052   18.0578 C.ar      1 UNK         0.0000 
      5 C5          6.2190   56.4977   18.1639 C.ar      1 UNK         0.0000 
      6 C6          7.3587   57.2651   18.3904 C.ar      1 UNK         0.0000 
      7 C7          8.5986   56.6418   18.5195 C.ar      1 UNK         0.0000 
      8 C8          8.7097   55.2578   18.4138 C.ar      1 UNK         0.0000 
      9 C9          7.5729   54.4904   18.1756 C.ar      1 UNK         0.0000 
     10 N10         4.7856   53.2958   19.0243 N.4       1 UNK         0.0000 
     11 C11         3.4170   52.5844   19.0041 C.3       1 UNK         0.0000 
     12 C12         3.0885   52.2895   20.4758 C.3       1 UNK         0.0000 
     13 C13         4.1762   52.9438   21.3398 C.3       1 UNK         0.0000 
     14 H14         4.9384   52.1884   21.5531 H         1 UNK         0.0000 
     15 C15         4.8174   53.9730   20.4056 C.3       1 UNK         0.0000 
     16 N16         3.6207   53.5535   22.5536 N.am      1 UNK         0.0000 
     17 C17         4.3717   54.0473   23.5527 C.2       1 UNK         0.0000 
     18 O18         5.5047   54.4938   23.3755 O.2       1 UNK         0.0000 
     19 N19         3.7548   53.9046   24.7443 N.am      1 UNK         0.0000 
     20 C20         4.2596   54.0990   26.0509 C.ar      1 UNK         0.0000 
     21 C21         5.6299   54.2781   26.3203 C.ar      1 UNK         0.0000 
     22 C22         6.0792   54.4727   27.6234 C.ar      1 UNK         0.0000 
     23 C23         5.1732   54.4965   28.6763 C.ar      1 UNK         0.0000 
     24 C24         3.8179   54.3084   28.4334 C.ar      1 UNK         0.0000 
     25 C25         3.3480   54.0970   27.1310 C.ar      1 UNK         0.0000 
     26 C26         1.8456   53.8348   26.9491 C.3       1 UNK         0.0000 
     27 C27         1.4678   52.3569   27.1788 C.2       1 UNK         0.0000 
     28 O28         1.8937   51.8173   28.2046 O.2       1 UNK         0.0000 
     29 N29         0.6936   51.6835   26.2823 N.am      1 UNK         0.0000 
     30 C30         0.3799   50.2620   26.4577 C.3       1 UNK         0.0000 
     31 C31         0.0530   52.2267   25.0804 C.3       1 UNK         0.0000 
     32 H32         5.3209   54.0981   15.6811 H         1 UNK         0.0000 
     33 H33         5.8767   52.6778   16.5647 H         1 UNK         0.0000 
     34 H34         4.1605   52.9558   16.3300 H         1 UNK         0.0000 
     35 H35         5.2619   56.9907   18.0741 H         1 UNK         0.0000 
     36 H36         7.2786   58.3406   18.4656 H         1 UNK         0.0000 
     37 H37         9.4838   57.2339   18.7063 H         1 UNK         0.0000 
     38 H38         9.6748   54.7816   18.5197 H         1 UNK         0.0000 
     39 H39         7.6672   53.4166   18.0934 H         1 UNK         0.0000 
     40 H40         3.5029   51.7014   18.3654 H         1 UNK         0.0000 
     41 H41         2.6972   53.2855   18.5754 H         1 UNK         0.0000 
     42 H42         3.0184   51.2159   20.6657 H         1 UNK         0.0000 
     43 H43         2.0994   52.7054   20.6917 H         1 UNK         0.0000 
     44 H44         4.2390   54.8960   20.3200 H         1 UNK         0.0000 
     45 H45         5.8483   54.2384   20.6496 H         1 UNK         0.0000 
     46 H46         2.6253   53.4637   22.6872 H         1 UNK         0.0000 
     47 H47         2.7943   53.6065   24.7161 H         1 UNK         0.0000 
     48 H48         6.3768   54.2537   25.5420 H         1 UNK         0.0000 
     49 H49         7.1319   54.6115   27.8214 H         1 UNK         0.0000 
     50 H50         5.5246   54.6670   29.6807 H         1 UNK         0.0000 
     51 H51         3.1273   54.3088   29.2653 H         1 UNK         0.0000 
     52 H52         1.5306   54.2223   25.9896 H         1 UNK         0.0000 
     53 H53         1.2962   54.4317   27.6787 H         1 UNK         0.0000 
     54 H54         0.9245   49.8098   27.2816 H         1 UNK         0.0000 
     55 H55         0.6389   49.7002   25.5605 H         1 UNK         0.0000 
     56 H56        -0.6844   50.1218   26.6474 H         1 UNK         0.0000 
     57 H57         0.4499   51.7332   24.1922 H         1 UNK         0.0000 
     58 H58        -1.0170   52.0201   25.1136 H         1 UNK         0.0000 
     59 H59         0.1511   53.2965   24.9313 H         1 UNK         0.0000 
     60 H60         5.5017   52.5801   18.9926 H         1 UNK         0.0000 
@<TRIPOS>BOND
     1    1    2 1    
     2    1   32 1    
     3    1   33 1    
     4    1   34 1    
     5    2    3 1    
     6    2    4 1    
     7    2   10 1    
     8    4    9 ar   
     9    4    5 ar   
    10    5    6 ar   
    11    5   35 1    
    12    6    7 ar   
    13    6   36 1    
    14    7    8 ar   
    15    7   37 1    
    16    8    9 ar   
    17    8   38 1    
    18    9   39 1    
    19   10   15 1    
    20   10   11 1    
    21   10   60 1    
    22   11   12 1    
    23   11   40 1    
    24   11   41 1    
    25   12   13 1    
    26   12   42 1    
    27   12   43 1    
    28   13   14 1    
    29   13   15 1    
    30   13   16 1    
    31   15   44 1    
    32   15   45 1    
    33   16   17 am   BACKBONE|DICT|INTERRES
    34   16   46 1    
    35   17   18 2    
    36   17   19 am   BACKBONE|DICT|INTERRES
    37   19   20 1    
    38   19   47 1    
    39   20   25 ar   
    40   20   21 ar   
    41   21   22 ar   
    42   21   48 1    
    43   22   23 ar   
    44   22   49 1    
    45   23   24 ar   
    46   23   50 1    
    47   24   25 ar   
    48   24   51 1    
    49   25   26 1    
    50   26   27 1    
    51   26   52 1    
    52   26   53 1    
    53   27   28 2    
    54   27   29 am   BACKBONE|DICT|INTERRES
    55   29   30 1    
    56   29   31 1    
    57   30   54 1    
    58   30   55 1    
    59   30   56 1    
    60   31   57 1    
    61   31   58 1    
    62   31   59 1    
@<TRIPOS>SUBSTRUCTURE
     1 UNK         1 GROUP             0       ****    0 ROOT    
