@<TRIPOS>MOLECULE
ZINC35596818_2506
48   50    1
SMALL
USER_CHARGES


@<TRIPOS>ATOM
      1 C1          0.5246   49.4334   23.7711 C.3       1 UNK         0.0000 
      2 C2          1.3955   50.4297   23.0276 C.ar      1 UNK         0.0000 
      3 C3          2.1793   50.0090   21.9532 C.ar      1 UNK         0.0000 
      4 C4          2.9907   50.9198   21.2804 C.ar      1 UNK         0.0000 
      5 C5          3.0443   52.2571   21.6816 C.ar      1 UNK         0.0000 
      6 C6          2.2153   52.7010   22.7366 C.ar      1 UNK         0.0000 
      7 C7          1.4023   51.7759   23.4003 C.ar      1 UNK         0.0000 
      8 C8          2.1358   54.1639   23.1737 C.3       1 UNK         0.0000 
      9 N9          3.9539   53.0903   21.0105 N.pl3     1 UNK         0.0000 
     10 C10         4.9506   53.7962   21.6416 C.2       1 UNK         0.0000 
     11 N11         5.2758   53.7106   22.9103 N.2       1 UNK         0.0000 
     12 C12         6.2423   54.5486   23.2557 C.2       1 UNK         0.0000 
     13 C13         6.7599   55.2966   22.1937 C.2       1 UNK         0.0000 
     14 S14         5.9052   54.9123   20.7272 S.3       1 UNK         0.0000 
     15 C15         6.5871   54.7321   24.6527 C.2       1 UNK         0.0000 
     16 O16         7.1043   55.7705   25.0513 O.2       1 UNK         0.0000 
     17 N17         6.2712   53.7282   25.4842 N.am      1 UNK         0.0000 
     18 C18         6.3518   53.7731   26.9432 C.3       1 UNK         0.0000 
     19 C19         4.9847   53.8173   27.6188 C.ar      1 UNK         0.0000 
     20 C20         3.8349   53.3276   26.9838 C.ar      1 UNK         0.0000 
     21 C21         2.6018   53.3696   27.6215 C.ar      1 UNK         0.0000 
     22 C22         2.5095   53.9236   28.8966 C.ar      1 UNK         0.0000 
     23 C23         3.6428   54.4456   29.5143 C.ar      1 UNK         0.0000 
     24 C24         4.8777   54.3961   28.8818 C.ar      1 UNK         0.0000 
     25 S25         0.9275   54.0050   29.7212 S.o2      1 UNK         0.0000 
     26 O26         0.9026   55.2578   30.4818 O.2       1 UNK         0.0000 
     27 O27        -0.0958   53.6959   28.7215 O.2       1 UNK         0.0000 
     28 N28         0.9341   52.6982   30.8754 N.pl3     1 UNK         0.0000 
     29 H29        -0.3286   49.9223   24.2435 H         1 UNK         0.0000 
     30 H30         0.1197   48.6872   23.0865 H         1 UNK         0.0000 
     31 H31         1.1040   48.9165   24.5368 H         1 UNK         0.0000 
     32 H32         2.1746   48.9733   21.6450 H         1 UNK         0.0000 
     33 H33         3.6028   50.5708   20.4603 H         1 UNK         0.0000 
     34 H34         0.7748   52.1039   24.2172 H         1 UNK         0.0000 
     35 H35         1.1094   54.4306   23.4252 H         1 UNK         0.0000 
     36 H36         2.7501   54.3359   24.0558 H         1 UNK         0.0000 
     37 H37         2.4427   54.8579   22.3900 H         1 UNK         0.0000 
     38 H38         4.0942   52.8057   20.0509 H         1 UNK         0.0000 
     39 H39         7.5467   56.0374   22.2216 H         1 UNK         0.0000 
     40 H40         5.9201   52.8705   25.0804 H         1 UNK         0.0000 
     41 H41         6.9332   54.6340   27.2820 H         1 UNK         0.0000 
     42 H42         6.8911   52.8953   27.2965 H         1 UNK         0.0000 
     43 H43         3.8867   52.8966   25.9959 H         1 UNK         0.0000 
     44 H44         1.7296   52.9739   27.1209 H         1 UNK         0.0000 
     45 H45         3.5685   54.8966   30.4818 H         1 UNK         0.0000 
     46 H46         5.7475   54.8125   29.3715 H         1 UNK         0.0000 
     47 H47         0.6659   52.9967   31.8178 H         1 UNK         0.0000 
     48 H48         0.3646   51.9021   30.5749 H         1 UNK         0.0000 
@<TRIPOS>BOND
     1    1    2 1    
     2    1   29 1    
     3    1   30 1    
     4    1   31 1    
     5    2    7 ar   
     6    2    3 ar   
     7    3    4 ar   
     8    3   32 1    
     9    4    5 ar   
    10    4   33 1    
    11    5    6 ar   
    12    5    9 1    
    13    6    7 ar   
    14    6    8 1    
    15    7   34 1    
    16    8   35 1    
    17    8   36 1    
    18    8   37 1    
    19    9   10 1    
    20    9   38 1    
    21   10   14 1    
    22   10   11 2    
    23   11   12 1    
    24   12   13 2    
    25   12   15 1    
    26   13   14 1    
    27   13   39 1    
    28   15   16 2    
    29   15   17 am   BACKBONE|DICT|INTERRES
    30   17   18 1    
    31   17   40 1    
    32   18   19 1    
    33   18   41 1    
    34   18   42 1    
    35   19   24 ar   
    36   19   20 ar   
    37   20   21 ar   
    38   20   43 1    
    39   21   22 ar   
    40   21   44 1    
    41   22   23 ar   
    42   22   25 1    
    43   23   24 ar   
    44   23   45 1    
    45   24   46 1    
    46   25   26 2    
    47   25   27 2    
    48   25   28 1    
    49   28   47 1    
    50   28   48 1    
@<TRIPOS>SUBSTRUCTURE
     1 UNK         1 GROUP             0       ****    0 ROOT    
