@<TRIPOS>MOLECULE
ZINC46841262_1200
60   63    1
SMALL
USER_CHARGES


@<TRIPOS>ATOM
      1 C1          1.9090   49.4885   22.4666 C.3       1 UNK         0.0000 
      2 C2          0.5081   49.8508   21.9359 C.3       1 UNK         0.0000 
      3 H3          0.6418   50.2088   20.9137 H         1 UNK         0.0000 
      4 C4         -0.1897   50.9582   22.7530 C.3       1 UNK         0.0000 
      5 N5         -0.5938   50.4316   24.0832 N.pl3     1 UNK         0.0000 
      6 C6         -1.4702   49.2446   23.9450 C.3       1 UNK         0.0000 
      7 C7         -0.7656   48.1683   23.0992 C.3       1 UNK         0.0000 
      8 H8          0.1101   47.7911   23.6296 H         1 UNK         0.0000 
      9 O9         -0.3918   48.7457   21.8486 O.3       1 UNK         0.0000 
     10 C10        -1.7098   46.9973   22.8001 C.3       1 UNK         0.0000 
     11 C11        -0.3024   51.0548   25.3426 C.ar      1 UNK         0.0000 
     12 C12         0.5076   52.1960   25.4579 C.ar      1 UNK         0.0000 
     13 C13         0.7492   52.7593   26.7132 C.ar      1 UNK         0.0000 
     14 C14         0.1604   52.2041   27.8597 C.ar      1 UNK         0.0000 
     15 C15        -0.6182   51.0586   27.7044 C.ar      1 UNK         0.0000 
     16 N16        -0.8040   50.5282   26.4815 N.pl3     1 UNK         0.0000 
     17 C17         0.3618   52.7923   29.2602 C.3       1 UNK         0.0000 
     18 N18         1.4334   53.7847   29.3570 N.am      1 UNK         0.0000 
     19 C19         2.7402   53.4832   29.3790 C.2       1 UNK         0.0000 
     20 O20         3.1657   52.3348   29.5127 O.2       1 UNK         0.0000 
     21 C21         3.7065   54.6559   29.1944 C.3       1 UNK         0.0000 
     22 C22         4.6654   54.4529   28.0359 C.2       1 UNK         0.0000 
     23 C23         6.0293   54.2225   28.1333 C.2       1 UNK         0.0000 
     24 S24         6.7046   54.0991   26.5561 S.3       1 UNK         0.0000 
     25 C25         5.1268   54.3547   25.8917 C.2       1 UNK         0.0000 
     26 N26         4.1858   54.4971   26.7991 N.2       1 UNK         0.0000 
     27 C27         4.9134   54.3305   24.4052 C.ar      1 UNK         0.0000 
     28 C28         3.6427   54.0966   23.8721 C.ar      1 UNK         0.0000 
     29 C29         3.4707   53.9396   22.4961 C.ar      1 UNK         0.0000 
     30 C30         4.5676   54.0435   21.6338 C.ar      1 UNK         0.0000 
     31 C31         5.8199   54.3694   22.1574 C.ar      1 UNK         0.0000 
     32 C32         5.9954   54.4970   23.5313 C.ar      1 UNK         0.0000 
     33 C33         4.4248   53.7537   20.1371 C.3       1 UNK         0.0000 
     34 F34         4.3045   54.8964   19.4648 F         1 UNK         0.0000 
     35 F35         5.5030   53.1169   19.6822 F         1 UNK         0.0000 
     36 F36         3.3643   52.9850   19.8893 F         1 UNK         0.0000 
     37 H37         2.6075   50.3078   22.3017 H         1 UNK         0.0000 
     38 H38         2.3138   48.6101   21.9647 H         1 UNK         0.0000 
     39 H39         1.9039   49.2962   23.5413 H         1 UNK         0.0000 
     40 H40         0.4629   51.8204   22.8340 H         1 UNK         0.0000 
     41 H41        -1.0937   51.3148   22.2554 H         1 UNK         0.0000 
     42 H42        -1.7084   48.8252   24.9205 H         1 UNK         0.0000 
     43 H43        -2.4157   49.5727   23.5096 H         1 UNK         0.0000 
     44 H44        -1.9798   46.4719   23.7165 H         1 UNK         0.0000 
     45 H45        -2.6298   47.3449   22.3289 H         1 UNK         0.0000 
     46 H46        -1.2505   46.2787   22.1245 H         1 UNK         0.0000 
     47 H47         0.9606   52.6632   24.5987 H         1 UNK         0.0000 
     48 H48         1.3742   53.6375   26.7784 H         1 UNK         0.0000 
     49 H49        -1.0975   50.5136   28.5097 H         1 UNK         0.0000 
     50 H50        -0.5664   53.2775   29.5681 H         1 UNK         0.0000 
     51 H51         0.5364   51.9852   29.9772 H         1 UNK         0.0000 
     52 H52         1.1669   54.7528   29.2610 H         1 UNK         0.0000 
     53 H53         3.1565   55.5896   29.0672 H         1 UNK         0.0000 
     54 H54         4.2628   54.7723   30.1242 H         1 UNK         0.0000 
     55 H55         6.6506   54.1455   29.0120 H         1 UNK         0.0000 
     56 H56         2.7910   53.9862   24.5266 H         1 UNK         0.0000 
     57 H57         2.4895   53.7134   22.1043 H         1 UNK         0.0000 
     58 H58         6.6716   54.4987   21.5050 H         1 UNK         0.0000 
     59 H59         6.9886   54.7092   23.9001 H         1 UNK         0.0000 
     60 H60        -1.3312   49.6668   26.4283 H         1 UNK         0.0000 
@<TRIPOS>BOND
     1    1    2 1    
     2    1   37 1    
     3    1   38 1    
     4    1   39 1    
     5    2    3 1    
     6    2    9 1    
     7    2    4 1    
     8    4    5 1    
     9    4   40 1    
    10    4   41 1    
    11    5    6 1    
    12    5   11 1    
    13    6    7 1    
    14    6   42 1    
    15    6   43 1    
    16    7    8 1    
    17    7    9 1    
    18    7   10 1    
    19   10   44 1    
    20   10   45 1    
    21   10   46 1    
    22   11   16 ar   
    23   11   12 ar   
    24   12   13 ar   
    25   12   47 1    
    26   13   14 ar   
    27   13   48 1    
    28   14   15 ar   
    29   14   17 1    
    30   15   16 ar   
    31   15   49 1    
    32   16   60 1    
    33   17   18 1    
    34   17   50 1    
    35   17   51 1    
    36   18   19 am   BACKBONE|DICT|INTERRES
    37   18   52 1    
    38   19   20 2    
    39   19   21 1    
    40   21   22 1    
    41   21   53 1    
    42   21   54 1    
    43   22   26 1    
    44   22   23 2    
    45   23   24 1    
    46   23   55 1    
    47   24   25 1    
    48   25   26 2    
    49   25   27 1    
    50   27   32 ar   
    51   27   28 ar   
    52   28   29 ar   
    53   28   56 1    
    54   29   30 ar   
    55   29   57 1    
    56   30   31 ar   
    57   30   33 1    
    58   31   32 ar   
    59   31   58 1    
    60   32   59 1    
    61   33   34 1    
    62   33   35 1    
    63   33   36 1    
@<TRIPOS>SUBSTRUCTURE
     1 UNK         1 GROUP             0       ****    0 ROOT    
