@<TRIPOS>MOLECULE
ZINC59812819_4352
60   63    1
SMALL
USER_CHARGES


@<TRIPOS>ATOM
      1 C1          4.0169   54.4966   29.2860 C.3       1 UNK         0.0000 
      2 C2          3.7411   53.4921   28.1506 C.3       1 UNK         0.0000 
      3 H3          4.3852   52.6249   28.3169 H         1 UNK         0.0000 
      4 C4          2.3112   52.9022   28.1456 C.ar      1 UNK         0.0000 
      5 C5          1.6558   52.6213   26.9363 C.ar      1 UNK         0.0000 
      6 C6          0.3707   52.0971   26.9158 C.ar      1 UNK         0.0000 
      7 C7         -0.2962   51.8467   28.1173 C.ar      1 UNK         0.0000 
      8 C8          0.3456   52.0972   29.3307 C.ar      1 UNK         0.0000 
      9 C9          1.6374   52.6240   29.3451 C.ar      1 UNK         0.0000 
     10 N10        -1.5864   51.2967   28.1660 N.am      1 UNK         0.0000 
     11 C11        -2.6011   51.4658   27.2867 C.2       1 UNK         0.0000 
     12 O12        -2.5186   52.1719   26.2774 O.2       1 UNK         0.0000 
     13 C13        -3.9171   50.7963   27.6397 C.ar      1 UNK         0.0000 
     14 C14        -4.0943   50.0921   28.8450 C.ar      1 UNK         0.0000 
     15 C15        -5.3144   49.4955   29.1454 C.ar      1 UNK         0.0000 
     16 C16        -6.3735   49.5994   28.2515 C.ar      1 UNK         0.0000 
     17 C17        -6.2227   50.2944   27.0559 C.ar      1 UNK         0.0000 
     18 C18        -5.0004   50.8888   26.7514 C.ar      1 UNK         0.0000 
     19 F19        -7.5587   49.0217   28.5466 F         1 UNK         0.0000 
     20 N20         4.1191   54.0519   26.8504 N.am      1 UNK         0.0000 
     21 C21         5.3535   54.1449   26.3240 C.2       1 UNK         0.0000 
     22 O22         6.3828   54.0367   26.9928 O.2       1 UNK         0.0000 
     23 C23         5.4078   54.3299   24.8215 C.ar      1 UNK         0.0000 
     24 C24         4.2794   54.0967   24.0175 C.ar      1 UNK         0.0000 
     25 C25         4.3633   54.1781   22.6352 C.ar      1 UNK         0.0000 
     26 C26         5.5791   54.4937   22.0120 C.ar      1 UNK         0.0000 
     27 C27         6.7027   54.7546   22.8116 C.ar      1 UNK         0.0000 
     28 C28         6.6155   54.6683   24.1995 C.ar      1 UNK         0.0000 
     29 N29         5.6816   54.5426   20.5932 N.am      1 UNK         0.0000 
     30 C30         6.2690   55.8027   20.0590 C.3       1 UNK         0.0000 
     31 C31         6.6800   55.7052   18.5849 C.3       1 UNK         0.0000 
     32 C32         5.5400   55.1215   17.7700 C.3       1 UNK         0.0000 
     33 C33         5.1940   53.7129   18.2721 C.3       1 UNK         0.0000 
     34 C34         5.1049   53.5613   19.8099 C.2       1 UNK         0.0000 
     35 O35         4.6084   52.5351   20.2802 O.2       1 UNK         0.0000 
     36 H36         3.9492   54.0258   30.2640 H         1 UNK         0.0000 
     37 H37         5.0243   54.9084   29.2168 H         1 UNK         0.0000 
     38 H38         3.3180   55.3314   29.2566 H         1 UNK         0.0000 
     39 H39         2.1373   52.7768   25.9855 H         1 UNK         0.0000 
     40 H40        -0.0862   51.8721   25.9644 H         1 UNK         0.0000 
     41 H41        -0.1544   51.8876   30.2673 H         1 UNK         0.0000 
     42 H42         2.1015   52.8026   30.3027 H         1 UNK         0.0000 
     43 H43        -1.7619   50.6809   28.9469 H         1 UNK         0.0000 
     44 H44        -3.2960   49.9743   29.5650 H         1 UNK         0.0000 
     45 H45        -5.4375   48.9488   30.0682 H         1 UNK         0.0000 
     46 H46        -7.0517   50.3650   26.3676 H         1 UNK         0.0000 
     47 H47        -4.9047   51.4229   25.8154 H         1 UNK         0.0000 
     48 H48         3.3504   54.3482   26.2718 H         1 UNK         0.0000 
     49 H49         3.3241   53.8261   24.4378 H         1 UNK         0.0000 
     50 H50         3.4725   53.9948   22.0505 H         1 UNK         0.0000 
     51 H51         7.6601   54.9844   22.3675 H         1 UNK         0.0000 
     52 H52         7.5057   54.8401   24.7859 H         1 UNK         0.0000 
     53 H53         7.1333   56.1159   20.6442 H         1 UNK         0.0000 
     54 H54         5.5064   56.5758   20.1709 H         1 UNK         0.0000 
     55 H55         7.5742   55.0869   18.4879 H         1 UNK         0.0000 
     56 H56         6.9562   56.6907   18.2087 H         1 UNK         0.0000 
     57 H57         4.6628   55.7682   17.8334 H         1 UNK         0.0000 
     58 H58         5.8073   55.0830   16.7122 H         1 UNK         0.0000 
     59 H59         4.2575   53.3730   17.8288 H         1 UNK         0.0000 
     60 H60         5.9721   53.0188   17.9500 H         1 UNK         0.0000 
@<TRIPOS>BOND
     1    1    2 1    
     2    1   36 1    
     3    1   37 1    
     4    1   38 1    
     5    2    3 1    
     6    2    4 1    
     7    2   20 1    
     8    4    9 ar   
     9    4    5 ar   
    10    5    6 ar   
    11    5   39 1    
    12    6    7 ar   
    13    6   40 1    
    14    7    8 ar   
    15    7   10 1    
    16    8    9 ar   
    17    8   41 1    
    18    9   42 1    
    19   10   11 am   BACKBONE|DICT|INTERRES
    20   10   43 1    
    21   11   12 2    
    22   11   13 1    
    23   13   18 ar   
    24   13   14 ar   
    25   14   15 ar   
    26   14   44 1    
    27   15   16 ar   
    28   15   45 1    
    29   16   17 ar   
    30   16   19 1    
    31   17   18 ar   
    32   17   46 1    
    33   18   47 1    
    34   20   21 am   BACKBONE|DICT|INTERRES
    35   20   48 1    
    36   21   22 2    
    37   21   23 1    
    38   23   28 ar   
    39   23   24 ar   
    40   24   25 ar   
    41   24   49 1    
    42   25   26 ar   
    43   25   50 1    
    44   26   27 ar   
    45   26   29 1    
    46   27   28 ar   
    47   27   51 1    
    48   28   52 1    
    49   29   34 am   BACKBONE|DICT|INTERRES
    50   29   30 1    
    51   30   31 1    
    52   30   53 1    
    53   30   54 1    
    54   31   32 1    
    55   31   55 1    
    56   31   56 1    
    57   32   33 1    
    58   32   57 1    
    59   32   58 1    
    60   33   34 1    
    61   33   59 1    
    62   33   60 1    
    63   34   35 2    
@<TRIPOS>SUBSTRUCTURE
     1 UNK         1 GROUP             0       ****    0 ROOT    
