@<TRIPOS>MOLECULE
ZINC45166805_3835
42   44    1
SMALL
USER_CHARGES


@<TRIPOS>ATOM
      1 C1         -4.1443   52.6673   25.0258 C.ar      1 UNK         0.0000 
      2 C2         -3.8908   52.0108   26.2216 C.ar      1 UNK         0.0000 
      3 C3         -2.5919   51.6333   26.5635 C.ar      1 UNK         0.0000 
      4 C4         -1.4975   51.9562   25.7283 C.ar      1 UNK         0.0000 
      5 C5         -1.7873   52.5690   24.4880 C.ar      1 UNK         0.0000 
      6 C6         -3.0945   52.9267   24.1572 C.ar      1 UNK         0.0000 
      7 Cl7        -0.6063   52.8968   23.2762 Cl        1 UNK         0.0000 
      8 S8          0.2165   51.5459   26.2298 S.o2      1 UNK         0.0000 
      9 O9          1.1048   51.6965   25.0768 O.2       1 UNK         0.0000 
     10 O10         0.1747   50.2381   26.8826 O.2       1 UNK         0.0000 
     11 N11         0.7683   52.7443   27.4368 N.pl3     1 UNK         0.0000 
     12 C12        -0.0957   53.0388   28.6252 C.3       1 UNK         0.0000 
     13 C13         0.8816   53.0006   29.8025 C.3       1 UNK         0.0000 
     14 C14         2.0369   52.1827   29.2909 C.3       1 UNK         0.0000 
     15 C15         2.2069   52.6941   27.8596 C.3       1 UNK         0.0000 
     16 H16         2.7520   51.9484   27.2855 H         1 UNK         0.0000 
     17 C17         2.9650   54.0526   27.6853 C.3       1 UNK         0.0000 
     18 C18         4.2654   54.2327   28.5016 C.3       1 UNK         0.0000 
     19 C19         5.3848   53.6859   27.6229 C.3       1 UNK         0.0000 
     20 C20         4.9776   54.0739   26.2020 C.3       1 UNK         0.0000 
     21 C21         3.4521   54.2677   26.2323 C.3       1 UNK         0.0000 
     22 N22        -2.4706   50.8969   27.7369 N.pl3     1 UNK         0.0000 
     23 H23        -5.1538   52.9453   24.7603 H         1 UNK         0.0000 
     24 H24        -4.7199   51.7728   26.8728 H         1 UNK         0.0000 
     25 H25        -3.2965   53.4092   23.2132 H         1 UNK         0.0000 
     26 H26        -0.7922   52.2396   28.8602 H         1 UNK         0.0000 
     27 H27        -0.4958   54.0520   28.6201 H         1 UNK         0.0000 
     28 H28         0.4325   52.5705   30.7004 H         1 UNK         0.0000 
     29 H29         1.2140   54.0076   30.0603 H         1 UNK         0.0000 
     30 H30         1.7731   51.1229   29.2699 H         1 UNK         0.0000 
     31 H31         2.9263   52.2383   29.9133 H         1 UNK         0.0000 
     32 H32         2.2869   54.8640   27.9557 H         1 UNK         0.0000 
     33 H33         4.2642   53.7891   29.4933 H         1 UNK         0.0000 
     34 H34         4.4379   55.2959   28.6670 H         1 UNK         0.0000 
     35 H35         5.4311   52.5993   27.7152 H         1 UNK         0.0000 
     36 H36         6.3633   54.0810   27.9003 H         1 UNK         0.0000 
     37 H37         5.2700   53.3015   25.4892 H         1 UNK         0.0000 
     38 H38         5.4742   54.9971   25.9003 H         1 UNK         0.0000 
     39 H39         3.2550   55.2953   25.9313 H         1 UNK         0.0000 
     40 H40         2.9232   53.6463   25.5093 H         1 UNK         0.0000 
     41 H41        -3.3269   50.5924   28.1736 H         1 UNK         0.0000 
     42 H42        -1.6963   50.2344   27.7911 H         1 UNK         0.0000 
@<TRIPOS>BOND
     1    1    6 ar   
     2    1    2 ar   
     3    1   23 1    
     4    2    3 ar   
     5    2   24 1    
     6    3    4 ar   
     7    3   22 1    
     8    4    5 ar   
     9    4    8 1    
    10    5    6 ar   
    11    5    7 1    
    12    6   25 1    
    13    8    9 2    
    14    8   10 2    
    15    8   11 1    
    16   11   15 1    
    17   11   12 1    
    18   12   13 1    
    19   12   26 1    
    20   12   27 1    
    21   13   14 1    
    22   13   28 1    
    23   13   29 1    
    24   14   15 1    
    25   14   30 1    
    26   14   31 1    
    27   15   16 1    
    28   15   17 1    
    29   17   21 1    
    30   17   18 1    
    31   17   32 1    
    32   18   19 1    
    33   18   33 1    
    34   18   34 1    
    35   19   20 1    
    36   19   35 1    
    37   19   36 1    
    38   20   21 1    
    39   20   37 1    
    40   20   38 1    
    41   21   39 1    
    42   21   40 1    
    43   22   41 1    
    44   22   42 1    
@<TRIPOS>SUBSTRUCTURE
     1 UNK         1 GROUP             0       ****    0 ROOT    
