@<TRIPOS>MOLECULE
ZINC49391904_5616
62   66    1
SMALL
USER_CHARGES


@<TRIPOS>ATOM
      1 C1          1.0538   52.7160   30.9594 C.3       1 UNK         0.0000 
      2 C2          2.0235   52.9779   29.8220 C.ar      1 UNK         0.0000 
      3 C3          3.3945   53.0671   30.0812 C.ar      1 UNK         0.0000 
      4 C4          4.3055   53.3762   29.0710 C.ar      1 UNK         0.0000 
      5 C5          3.8288   53.5705   27.7692 C.ar      1 UNK         0.0000 
      6 C6          2.4436   53.4464   27.5028 C.ar      1 UNK         0.0000 
      7 C7          1.5276   53.1567   28.5261 C.ar      1 UNK         0.0000 
      8 S8          2.1807   53.6904   25.7852 S.3       1 UNK         0.0000 
      9 C9          3.9046   53.9488   25.5922 C.2       1 UNK         0.0000 
     10 N10         4.6065   53.8715   26.6949 N.2       1 UNK         0.0000 
     11 C11         4.5087   54.1894   24.2316 C.ar      1 UNK         0.0000 
     12 C12         3.7340   54.0962   23.0679 C.ar      1 UNK         0.0000 
     13 C13         4.2957   54.3176   21.8148 C.ar      1 UNK         0.0000 
     14 C14         5.6465   54.6476   21.6967 C.ar      1 UNK         0.0000 
     15 C15         6.4410   54.7179   22.8523 C.ar      1 UNK         0.0000 
     16 C16         5.8708   54.4956   24.1045 C.ar      1 UNK         0.0000 
     17 N17         6.1015   54.8969   20.3870 N.am      1 UNK         0.0000 
     18 C18         7.2880   55.3781   19.9630 C.2       1 UNK         0.0000 
     19 O19         8.2219   55.6945   20.7026 O.2       1 UNK         0.0000 
     20 C20         7.3970   55.5274   18.4272 C.3       1 UNK         0.0000 
     21 N21         8.7053   56.0507   17.9966 N.am      1 UNK         0.0000 
     22 C22         9.8117   55.1687   17.6962 C.3       1 UNK         0.0000 
     23 C23        10.8787   56.1460   17.2822 C.3       1 UNK         0.0000 
     24 N24        10.3404   57.4296   17.7101 N.am      1 UNK         0.0000 
     25 C25         9.0341   57.3618   18.0845 C.2       1 UNK         0.0000 
     26 O26         8.3001   58.2877   18.4448 O.2       1 UNK         0.0000 
     27 C27        11.1064   58.6131   17.7548 C.ar      1 UNK         0.0000 
     28 C28        11.1699   59.3535   18.9450 C.ar      1 UNK         0.0000 
     29 C29        11.9320   60.5150   19.0446 C.ar      1 UNK         0.0000 
     30 C30        12.6607   60.9366   17.9209 C.ar      1 UNK         0.0000 
     31 C31        12.6117   60.2086   16.7328 C.ar      1 UNK         0.0000 
     32 C32        11.8331   59.0549   16.6345 C.ar      1 UNK         0.0000 
     33 O33        11.8102   58.3898   15.4313 O.3       1 UNK         0.0000 
     34 C34        10.6450   58.6226   14.6527 C.3       1 UNK         0.0000 
     35 O35        11.9075   61.1737   20.2585 O.3       1 UNK         0.0000 
     36 C36        12.7222   62.3273   20.4383 C.3       1 UNK         0.0000 
     37 H37         0.6686   51.6968   30.9203 H         1 UNK         0.0000 
     38 H38         1.5055   52.8918   31.9372 H         1 UNK         0.0000 
     39 H39         0.1946   53.3874   30.8895 H         1 UNK         0.0000 
     40 H40         3.7655   52.8968   31.0839 H         1 UNK         0.0000 
     41 H41         5.3629   53.4527   29.2804 H         1 UNK         0.0000 
     42 H42         0.4696   53.0706   28.3205 H         1 UNK         0.0000 
     43 H43         2.6811   53.8580   23.1160 H         1 UNK         0.0000 
     44 H44         3.6626   54.2519   20.9406 H         1 UNK         0.0000 
     45 H45         7.4922   54.9407   22.8134 H         1 UNK         0.0000 
     46 H46         6.4989   54.5574   24.9802 H         1 UNK         0.0000 
     47 H47         5.4172   54.7126   19.6680 H         1 UNK         0.0000 
     48 H48         6.6099   56.2004   18.0880 H         1 UNK         0.0000 
     49 H49         7.2166   54.5648   17.9557 H         1 UNK         0.0000 
     50 H50         9.5528   54.4781   16.8946 H         1 UNK         0.0000 
     51 H51        10.1027   54.6033   18.5832 H         1 UNK         0.0000 
     52 H52        11.0330   56.1223   16.2033 H         1 UNK         0.0000 
     53 H53        11.8211   55.9352   17.7919 H         1 UNK         0.0000 
     54 H54        10.6366   59.0108   19.8216 H         1 UNK         0.0000 
     55 H55        13.2721   61.8254   17.9480 H         1 UNK         0.0000 
     56 H56        13.1741   60.5450   15.8746 H         1 UNK         0.0000 
     57 H57        10.7012   58.0370   13.7370 H         1 UNK         0.0000 
     58 H58         9.7304   58.3299   15.1723 H         1 UNK         0.0000 
     59 H59        10.5579   59.6743   14.3735 H         1 UNK         0.0000 
     60 H60        12.5890   62.7079   21.4508 H         1 UNK         0.0000 
     61 H61        12.4476   63.1253   19.7485 H         1 UNK         0.0000 
     62 H62        13.7804   62.0946   20.3127 H         1 UNK         0.0000 
@<TRIPOS>BOND
     1    1    2 1    
     2    1   37 1    
     3    1   38 1    
     4    1   39 1    
     5    2    7 ar   
     6    2    3 ar   
     7    3    4 ar   
     8    3   40 1    
     9    4    5 ar   
    10    4   41 1    
    11    5   10 1    
    12    5    6 ar   
    13    6    7 ar   
    14    6    8 1    
    15    7   42 1    
    16    8    9 1    
    17    9   10 2    
    18    9   11 1    
    19   11   16 ar   
    20   11   12 ar   
    21   12   13 ar   
    22   12   43 1    
    23   13   14 ar   
    24   13   44 1    
    25   14   15 ar   
    26   14   17 1    
    27   15   16 ar   
    28   15   45 1    
    29   16   46 1    
    30   17   18 am   BACKBONE|DICT|INTERRES
    31   17   47 1    
    32   18   19 2    
    33   18   20 1    
    34   20   21 1    
    35   20   48 1    
    36   20   49 1    
    37   21   25 am   BACKBONE|DICT|INTERRES
    38   21   22 1    
    39   22   23 1    
    40   22   50 1    
    41   22   51 1    
    42   23   24 1    
    43   23   52 1    
    44   23   53 1    
    45   24   25 am   BACKBONE|DICT|INTERRES
    46   24   27 1    
    47   25   26 2    
    48   27   32 ar   
    49   27   28 ar   
    50   28   29 ar   
    51   28   54 1    
    52   29   30 ar   
    53   29   35 1    
    54   30   31 ar   
    55   30   55 1    
    56   31   32 ar   
    57   31   56 1    
    58   32   33 1    
    59   33   34 1    
    60   34   57 1    
    61   34   58 1    
    62   34   59 1    
    63   35   36 1    
    64   36   60 1    
    65   36   61 1    
    66   36   62 1    
@<TRIPOS>SUBSTRUCTURE
     1 UNK         1 GROUP             0       ****    0 ROOT    
