@<TRIPOS>MOLECULE
ZINC54982236_1867
44   47    1
SMALL
USER_CHARGES


@<TRIPOS>ATOM
      1 C1          1.4891   53.3565   28.3377 C.ar      1 UNK         0.0000 
      2 C2          0.4021   52.5586   28.7269 C.ar      1 UNK         0.0000 
      3 N3         -0.1333   52.6603   29.9716 N.ar      1 UNK         0.0000 
      4 C4          0.3910   53.6057   30.7881 C.ar      1 UNK         0.0000 
      5 N5          1.3852   54.4605   30.4683 N.ar      1 UNK         0.0000 
      6 C6          1.9457   54.3084   29.2466 C.ar      1 UNK         0.0000 
      7 Cl7         3.2927   55.2967   28.8332 Cl        1 UNK         0.0000 
      8 N8         -0.0956   53.6967   32.0817 N.pl3     1 UNK         0.0000 
      9 N9         -0.1716   51.5768   27.9029 N.pl3     1 UNK         0.0000 
     10 C10         0.4016   51.1933   26.6071 C.3       1 UNK         0.0000 
     11 C11         0.2071   52.2709   25.5028 C.3       1 UNK         0.0000 
     12 H12         0.5897   53.2273   25.8484 H         1 UNK         0.0000 
     13 C13        -1.3021   52.4965   25.1813 C.3       1 UNK         0.0000 
     14 C14        -2.0684   51.2036   24.8212 C.3       1 UNK         0.0000 
     15 C15        -1.7624   50.0667   25.8205 C.3       1 UNK         0.0000 
     16 C16        -0.2387   49.8878   26.0817 C.3       1 UNK         0.0000 
     17 H17        -0.0959   49.1393   26.8658 H         1 UNK         0.0000 
     18 C18         0.5305   49.3618   24.8438 C.3       1 UNK         0.0000 
     19 N19         0.7434   50.4626   23.7679 N.4       1 UNK         0.0000 
     20 C20         1.0663   51.8917   24.2725 C.3       1 UNK         0.0000 
     21 C21         1.7569   50.0211   22.6953 C.3       1 UNK         0.0000 
     22 C22         1.2629   49.2967   21.4656 C.3       1 UNK         0.0000 
     23 C23         1.7601   50.7168   21.3505 C.3       1 UNK         0.0000 
     24 H24         1.9946   53.2449   27.3936 H         1 UNK         0.0000 
     25 H25         0.3138   54.3634   32.7143 H         1 UNK         0.0000 
     26 H26        -0.7103   52.9501   32.4337 H         1 UNK         0.0000 
     27 H27        -0.6381   50.8433   28.4230 H         1 UNK         0.0000 
     28 H28         1.4589   51.0132   26.8051 H         1 UNK         0.0000 
     29 H29        -1.7841   52.9445   26.0521 H         1 UNK         0.0000 
     30 H30        -1.4122   53.2151   24.3678 H         1 UNK         0.0000 
     31 H31        -3.1409   51.4039   24.8154 H         1 UNK         0.0000 
     32 H32        -1.8341   50.8903   23.8047 H         1 UNK         0.0000 
     33 H33        -2.2742   50.2639   26.7646 H         1 UNK         0.0000 
     34 H34        -2.1874   49.1354   25.4436 H         1 UNK         0.0000 
     35 H35        -0.0237   48.5663   24.3431 H         1 UNK         0.0000 
     36 H36         1.5044   48.9735   25.1323 H         1 UNK         0.0000 
     37 H37         2.1355   51.9178   24.4911 H         1 UNK         0.0000 
     38 H38         0.8522   52.5538   23.4318 H         1 UNK         0.0000 
     39 H39         2.7044   49.7333   23.1596 H         1 UNK         0.0000 
     40 H40         0.1962   49.0941   21.3632 H         1 UNK         0.0000 
     41 H41         1.8776   48.4964   21.0519 H         1 UNK         0.0000 
     42 H42         2.7181   50.9026   20.8614 H         1 UNK         0.0000 
     43 H43         1.0427   51.5152   21.1577 H         1 UNK         0.0000 
     44 H44        -0.1724   50.5691   23.3550 H         1 UNK         0.0000 
@<TRIPOS>BOND
     1    1    6 ar   
     2    1    2 ar   
     3    1   24 1    
     4    2    3 ar   
     5    2    9 1    
     6    3    4 ar   
     7    4    5 ar   
     8    4    8 1    
     9    5    6 ar   
    10    6    7 1    
    11    8   25 1    
    12    8   26 1    
    13    9   10 1    
    14    9   27 1    
    15   10   16 1    
    16   10   11 1    
    17   10   28 1    
    18   11   12 1    
    19   11   20 1    
    20   11   13 1    
    21   13   14 1    
    22   13   29 1    
    23   13   30 1    
    24   14   15 1    
    25   14   31 1    
    26   14   32 1    
    27   15   16 1    
    28   15   33 1    
    29   15   34 1    
    30   16   17 1    
    31   16   18 1    
    32   18   19 1    
    33   18   35 1    
    34   18   36 1    
    35   19   20 1    
    36   19   21 1    
    37   19   44 1    
    38   20   37 1    
    39   20   38 1    
    40   21   23 1    
    41   21   22 1    
    42   21   39 1    
    43   22   23 1    
    44   22   40 1    
    45   22   41 1    
    46   23   42 1    
    47   23   43 1    
@<TRIPOS>SUBSTRUCTURE
     1 UNK         1 GROUP             0       ****    0 ROOT    
