@<TRIPOS>MOLECULE
ZINC20745541_4891
54   57    1
SMALL
USER_CHARGES


@<TRIPOS>ATOM
      1 C1         -4.2759   52.3455   24.1798 C.3       1 UNK         0.0000 
      2 O2         -2.8902   52.3276   23.8694 O.3       1 UNK         0.0000 
      3 C3         -1.9607   52.4962   24.8422 C.2       1 UNK         0.0000 
      4 O4         -2.2350   52.7559   26.0185 O.2       1 UNK         0.0000 
      5 C5         -0.5369   52.4263   24.2649 C.3       1 UNK         0.0000 
      6 H6         -0.4445   53.2799   23.5925 H         1 UNK         0.0000 
      7 C7         -0.2945   51.1163   23.4509 C.3       1 UNK         0.0000 
      8 C8          0.7171   51.2394   22.3287 C.ar      1 UNK         0.0000 
      9 C9          0.3811   51.9467   21.1534 C.ar      1 UNK         0.0000 
     10 C10         1.3178   52.0954   20.1393 C.ar      1 UNK         0.0000 
     11 C11         2.5916   51.5634   20.2821 C.ar      1 UNK         0.0000 
     12 C12         2.9425   50.8966   21.4476 C.ar      1 UNK         0.0000 
     13 C13         2.0253   50.7390   22.4789 C.ar      1 UNK         0.0000 
     14 N14         0.5213   52.6271   25.2923 N.am      1 UNK         0.0000 
     15 C15         0.7035   51.9607   26.4554 C.2       1 UNK         0.0000 
     16 O16         0.1335   50.8887   26.6571 O.2       1 UNK         0.0000 
     17 N17         1.5833   52.5030   27.3498 N.am      1 UNK         0.0000 
     18 C18         1.7993   51.7919   28.6380 C.3       1 UNK         0.0000 
     19 C19         0.8078   52.3702   29.6922 C.3       1 UNK         0.0000 
     20 C20         1.0084   53.8772   29.7355 C.ar      1 UNK         0.0000 
     21 C21         1.5968   54.5514   28.6726 C.ar      1 UNK         0.0000 
     22 N22         1.6435   55.8595   29.0703 N.pl3     1 UNK         0.0000 
     23 H23         2.0123   56.6418   28.5484 H         1 UNK         0.0000 
     24 C24         1.1044   55.8783   30.3314 C.ar      1 UNK         0.0000 
     25 N25         0.7045   54.6924   30.7339 N.2       1 UNK         0.0000 
     26 C26         2.0419   53.9272   27.3445 C.3       1 UNK         0.0000 
     27 H27         1.5048   54.4689   26.5663 H         1 UNK         0.0000 
     28 C28         3.5267   54.0952   26.9976 C.ar      1 UNK         0.0000 
     29 C29         4.4923   54.2556   28.0031 C.ar      1 UNK         0.0000 
     30 C30         5.8419   54.3937   27.6795 C.ar      1 UNK         0.0000 
     31 C31         6.2395   54.3946   26.3440 C.ar      1 UNK         0.0000 
     32 C32         5.2901   54.2524   25.3338 C.ar      1 UNK         0.0000 
     33 C33         3.9395   54.0972   25.6562 C.ar      1 UNK         0.0000 
     34 F34         3.0337   53.9555   24.6600 F         1 UNK         0.0000 
     35 F35         5.6861   54.2561   24.0404 F         1 UNK         0.0000 
     36 H36        -4.5853   53.3327   24.5273 H         1 UNK         0.0000 
     37 H37        -4.8533   52.0950   23.2892 H         1 UNK         0.0000 
     38 H38        -4.5161   51.6148   24.9542 H         1 UNK         0.0000 
     39 H39        -0.0184   50.2899   24.1078 H         1 UNK         0.0000 
     40 H40        -1.2066   50.7796   22.9558 H         1 UNK         0.0000 
     41 H41        -0.6061   52.3675   21.0357 H         1 UNK         0.0000 
     42 H42         1.0586   52.6322   19.2380 H         1 UNK         0.0000 
     43 H43         3.3157   51.6725   19.4862 H         1 UNK         0.0000 
     44 H44         3.9371   50.4977   21.5477 H         1 UNK         0.0000 
     45 H45         2.3077   50.2197   23.3835 H         1 UNK         0.0000 
     46 H46         1.3298   53.1354   24.9548 H         1 UNK         0.0000 
     47 H47         1.7614   50.7077   28.5215 H         1 UNK         0.0000 
     48 H48         2.8324   51.9649   28.9426 H         1 UNK         0.0000 
     49 H49        -0.2178   52.1096   29.4252 H         1 UNK         0.0000 
     50 H50         0.9901   51.9239   30.6692 H         1 UNK         0.0000 
     51 H51         1.0392   56.8066   30.8822 H         1 UNK         0.0000 
     52 H52         4.2064   54.2514   29.0444 H         1 UNK         0.0000 
     53 H53         6.5786   54.4958   28.4637 H         1 UNK         0.0000 
     54 H54         7.2820   54.4969   26.0891 H         1 UNK         0.0000 
@<TRIPOS>BOND
     1    1    2 1    
     2    1   36 1    
     3    1   37 1    
     4    1   38 1    
     5    2    3 1    
     6    3    4 2    
     7    3    5 1    
     8    5    6 1    
     9    5    7 1    
    10    5   14 1    
    11    7    8 1    
    12    7   39 1    
    13    7   40 1    
    14    8   13 ar   
    15    8    9 ar   
    16    9   10 ar   
    17    9   41 1    
    18   10   11 ar   
    19   10   42 1    
    20   11   12 ar   
    21   11   43 1    
    22   12   13 ar   
    23   12   44 1    
    24   13   45 1    
    25   14   15 am   BACKBONE|DICT|INTERRES
    26   14   46 1    
    27   15   16 2    
    28   15   17 am   BACKBONE|DICT|INTERRES
    29   17   26 1    
    30   17   18 1    
    31   18   19 1    
    32   18   47 1    
    33   18   48 1    
    34   19   20 1    
    35   19   49 1    
    36   19   50 1    
    37   20   25 ar   
    38   20   21 ar   
    39   21   22 ar   
    40   21   26 1    
    41   22   23 1    
    42   22   24 ar   
    43   24   25 ar   
    44   24   51 1    
    45   26   27 1    
    46   26   28 1    
    47   28   33 ar   
    48   28   29 ar   
    49   29   30 ar   
    50   29   52 1    
    51   30   31 ar   
    52   30   53 1    
    53   31   32 ar   
    54   31   54 1    
    55   32   33 ar   
    56   32   35 1    
    57   33   34 1    
@<TRIPOS>SUBSTRUCTURE
     1 UNK         1 GROUP             0       ****    0 ROOT    
