@<TRIPOS>MOLECULE
ZINC48930899_3590
33   34    1
SMALL
USER_CHARGES


@<TRIPOS>ATOM
      1 C1         -3.1387   50.6808   29.2759 C.3       1 UNK         0.0000 
      2 C2         -1.8399   51.2968   28.7865 C.ar      1 UNK         0.0000 
      3 C3         -0.8575   51.6985   29.6959 C.ar      1 UNK         0.0000 
      4 C4          0.3347   52.2667   29.2445 C.ar      1 UNK         0.0000 
      5 C5          0.5607   52.4307   27.8692 C.ar      1 UNK         0.0000 
      6 C6         -0.4270   52.0203   26.9581 C.ar      1 UNK         0.0000 
      7 C7         -1.6165   51.4569   27.4189 C.ar      1 UNK         0.0000 
      8 Br8        -0.1905   52.2176   25.0713 Br        1 UNK         0.0000 
      9 N9          1.7383   52.9632   27.3203 N.am      1 UNK         0.0000 
     10 C10         2.7616   53.6444   27.8806 C.2       1 UNK         0.0000 
     11 O11         2.8341   53.9548   29.0720 O.2       1 UNK         0.0000 
     12 C12         3.8834   53.9887   26.9185 C.ar      1 UNK         0.0000 
     13 C13         5.1704   54.2626   27.3966 C.ar      1 UNK         0.0000 
     14 C14         6.2199   54.5047   26.5111 C.ar      1 UNK         0.0000 
     15 C15         6.0100   54.4702   25.1307 C.ar      1 UNK         0.0000 
     16 C16         4.7227   54.2050   24.6139 C.ar      1 UNK         0.0000 
     17 C17         3.6775   54.0041   25.5288 C.ar      1 UNK         0.0000 
     18 N18         4.4243   54.0990   23.1539 N.pl3     1 UNK         0.0000 
     19 O19         5.3368   54.1365   22.3339 O.co2     1 UNK         0.0000 
     20 O20         3.2531   53.9695   22.8108 O.co2     1 UNK         0.0000 
     21 N21         7.1012   54.6941   24.2912 N.pl3     1 UNK         0.0000 
     22 H22        -3.2984   49.7197   28.7858 H         1 UNK         0.0000 
     23 H23        -3.1254   50.4966   30.3513 H         1 UNK         0.0000 
     24 H24        -3.9865   51.3198   29.0312 H         1 UNK         0.0000 
     25 H25        -1.0136   51.5642   30.7586 H         1 UNK         0.0000 
     26 H26         1.0730   52.5513   29.9764 H         1 UNK         0.0000 
     27 H27        -2.3660   51.1332   26.7120 H         1 UNK         0.0000 
     28 H28         1.8150   52.7990   26.3294 H         1 UNK         0.0000 
     29 H29         5.3735   54.2727   28.4592 H         1 UNK         0.0000 
     30 H30         7.2028   54.6968   26.9140 H         1 UNK         0.0000 
     31 H31         2.6890   53.8152   25.1347 H         1 UNK         0.0000 
     32 H32         6.9234   54.6349   23.2955 H         1 UNK         0.0000 
     33 H33         8.0403   54.8881   24.6119 H         1 UNK         0.0000 
@<TRIPOS>BOND
     1    1    2 1    
     2    1   22 1    
     3    1   23 1    
     4    1   24 1    
     5    2    7 ar   
     6    2    3 ar   
     7    3    4 ar   
     8    3   25 1    
     9    4    5 ar   
    10    4   26 1    
    11    5    6 ar   
    12    5    9 1    
    13    6    7 ar   
    14    6    8 1    
    15    7   27 1    
    16    9   10 am   BACKBONE|DICT|INTERRES
    17    9   28 1    
    18   10   11 2    
    19   10   12 1    
    20   12   17 ar   
    21   12   13 ar   
    22   13   14 ar   
    23   13   29 1    
    24   14   15 ar   
    25   14   30 1    
    26   15   16 ar   
    27   15   21 1    
    28   16   17 ar   
    29   16   18 1    
    30   17   31 1    
    31   18   19 2    
    32   18   20 1    
    33   21   32 1    
    34   21   33 1    
@<TRIPOS>SUBSTRUCTURE
     1 UNK         1 GROUP             0       ****    0 ROOT    
