@<TRIPOS>MOLECULE
ZINC00711715_3636
45   48    1
SMALL
USER_CHARGES


@<TRIPOS>ATOM
      1 C1          5.6746   53.9451   28.1990 C.2       1 UNK         0.0000 
      2 C2          4.6886   53.4687   27.3388 C.2       1 UNK         0.0000 
      3 C3          3.4550   53.8701   27.8433 C.2       1 UNK         0.0000 
      4 O4          3.6661   54.5831   28.9825 O.3       1 UNK         0.0000 
      5 C5          5.0052   54.6269   29.1948 C.2       1 UNK         0.0000 
      6 C6          2.0030   53.7358   27.3880 C.3       1 UNK         0.0000 
      7 H7          1.5708   54.7345   27.4538 H         1 UNK         0.0000 
      8 C8          1.8023   53.2960   25.9215 C.ar      1 UNK         0.0000 
      9 C9          2.6153   53.7529   24.8753 C.ar      1 UNK         0.0000 
     10 C10         2.4124   53.3754   23.5377 C.ar      1 UNK         0.0000 
     11 C11         1.3287   52.5298   23.2414 C.ar      1 UNK         0.0000 
     12 C12         0.4987   52.0692   24.2604 C.ar      1 UNK         0.0000 
     13 C13         0.7379   52.4443   25.5784 C.ar      1 UNK         0.0000 
     14 O14        -0.1309   51.9299   26.5165 O.3       1 UNK         0.0000 
     15 C15         0.1655   52.0781   27.8299 C.2       1 UNK         0.0000 
     16 C16         1.1494   52.8595   28.3202 C.2       1 UNK         0.0000 
     17 C17         1.3627   52.9034   29.7333 C.1       1 UNK         0.0000 
     18 N18         1.5290   52.8963   30.8787 N.1       1 UNK         0.0000 
     19 N19        -0.7012   51.2967   28.5403 N.pl3     1 UNK         0.0000 
     20 O20         1.0560   52.1185   21.9599 O.3       1 UNK         0.0000 
     21 C21         3.3273   53.8598   22.4975 C.2       1 UNK         0.0000 
     22 N22         4.5781   53.9978   22.7034 N.2       1 UNK         0.0000 
     23 C23         5.4663   54.4956   21.7342 C.ar      1 UNK         0.0000 
     24 C24         5.3627   54.1940   20.3624 C.ar      1 UNK         0.0000 
     25 C25         6.3026   54.6522   19.4318 C.ar      1 UNK         0.0000 
     26 C26         7.3872   55.4077   19.8828 C.ar      1 UNK         0.0000 
     27 C27         7.5249   55.6964   21.2369 C.ar      1 UNK         0.0000 
     28 C28         6.5714   55.2580   22.1521 C.ar      1 UNK         0.0000 
     29 Cl29        6.7808   55.6896   23.8210 Cl        1 UNK         0.0000 
     30 C30         6.1736   54.3158   17.9466 C.3       1 UNK         0.0000 
     31 F31         4.9477   53.8985   17.6265 F         1 UNK         0.0000 
     32 F32         6.4489   55.3905   17.2043 F         1 UNK         0.0000 
     33 F33         7.0416   53.3531   17.6431 F         1 UNK         0.0000 
     34 H34         6.7433   53.8195   28.1061 H         1 UNK         0.0000 
     35 H35         4.8554   52.8978   26.4378 H         1 UNK         0.0000 
     36 H36         5.3382   55.1719   30.0656 H         1 UNK         0.0000 
     37 H37         3.4255   54.4297   25.1095 H         1 UNK         0.0000 
     38 H38        -0.3295   51.4113   24.0415 H         1 UNK         0.0000 
     39 H39        -0.7198   51.3307   29.5489 H         1 UNK         0.0000 
     40 H40        -1.1027   50.4657   28.1176 H         1 UNK         0.0000 
     41 H41         0.3439   51.4798   21.9161 H         1 UNK         0.0000 
     42 H42         2.8639   54.0963   21.5467 H         1 UNK         0.0000 
     43 H43         4.5451   53.5786   20.0142 H         1 UNK         0.0000 
     44 H44         8.1398   55.7495   19.1863 H         1 UNK         0.0000 
     45 H45         8.3829   56.2534   21.5820 H         1 UNK         0.0000 
@<TRIPOS>BOND
     1    1    5 2    
     2    1    2 1    
     3    1   34 1    
     4    2    3 2    
     5    2   35 1    
     6    3    4 1    
     7    3    6 1    
     8    4    5 1    
     9    5   36 1    
    10    6    7 1    
    11    6   16 1    
    12    6    8 1    
    13    8   13 ar   
    14    8    9 ar   
    15    9   10 ar   
    16    9   37 1    
    17   10   11 ar   
    18   10   21 1    
    19   11   12 ar   
    20   11   20 1    
    21   12   13 ar   
    22   12   38 1    
    23   13   14 1    
    24   14   15 1    
    25   15   16 2    
    26   15   19 1    
    27   16   17 1    
    28   17   18 3    
    29   19   39 1    
    30   19   40 1    
    31   20   41 1    
    32   21   22 2    
    33   21   42 1    
    34   22   23 1    
    35   23   28 ar   
    36   23   24 ar   
    37   24   25 ar   
    38   24   43 1    
    39   25   26 ar   
    40   25   30 1    
    41   26   27 ar   
    42   26   44 1    
    43   27   28 ar   
    44   27   45 1    
    45   28   29 1    
    46   30   31 1    
    47   30   32 1    
    48   30   33 1    
@<TRIPOS>SUBSTRUCTURE
     1 UNK         1 GROUP             0       ****    0 ROOT    
