@<TRIPOS>MOLECULE
ZINC11286290_5327
74   78    1
SMALL
USER_CHARGES


@<TRIPOS>ATOM
      1 C1          0.1366   52.5642   24.2987 C.3       1 UNK         0.0000 
      2 C2         -0.7247   51.4001   24.7682 C.ar      1 UNK         0.0000 
      3 C3         -1.8517   51.6787   25.5469 C.ar      1 UNK         0.0000 
      4 C4         -2.6717   50.6477   25.9966 C.ar      1 UNK         0.0000 
      5 C5         -2.3649   49.3268   25.6816 C.ar      1 UNK         0.0000 
      6 C6         -1.2409   49.0163   24.9116 C.ar      1 UNK         0.0000 
      7 C7         -0.4261   50.0643   24.4277 C.ar      1 UNK         0.0000 
      8 N8          0.6968   49.8062   23.6229 N.am      1 UNK         0.0000 
      9 C9          0.6315   49.3027   22.3755 C.2       1 UNK         0.0000 
     10 O10        -0.4256   49.0087   21.8105 O.2       1 UNK         0.0000 
     11 C11         1.9846   49.1012   21.6691 C.3       1 UNK         0.0000 
     12 N12         1.8513   49.0170   20.2014 N.am      1 UNK         0.0000 
     13 C13         1.4993   47.7095   19.6273 C.3       1 UNK         0.0000 
     14 C14         1.9024   50.0968   19.3758 C.2       1 UNK         0.0000 
     15 O15         1.7173   50.0065   18.1634 O.2       1 UNK         0.0000 
     16 C16         2.1335   51.5101   19.9356 C.3       1 UNK         0.0000 
     17 C17         4.5303   52.1148   20.5740 C.3       1 UNK         0.0000 
     18 C18         4.6313   53.5262   21.2128 C.3       1 UNK         0.0000 
     19 C19         5.6284   53.4210   22.4211 C.3       1 UNK         0.0000 
     20 C20         4.8790   53.8632   23.6850 C.3       1 UNK         0.0000 
     21 C21         3.4053   53.6551   23.3624 C.3       1 UNK         0.0000 
     22 C22         3.3242   54.0280   21.8899 C.3       1 UNK         0.0000 
     23 C23         5.0307   54.5220   20.1025 C.ar      1 UNK         0.0000 
     24 C24         5.9043   55.6057   20.3327 C.ar      1 UNK         0.0000 
     25 C25         6.1853   56.5344   19.3376 C.ar      1 UNK         0.0000 
     26 C26         5.5992   56.4001   18.0796 C.ar      1 UNK         0.0000 
     27 C27         4.7496   55.3360   17.8289 C.ar      1 UNK         0.0000 
     28 C28         4.4383   54.3871   18.8176 C.ar      1 UNK         0.0000 
     29 C29         3.3827   53.2992   18.5073 C.3       1 UNK         0.0000 
     30 H30         2.3994   53.7333   18.6788 H         1 UNK         0.0000 
     31 C31         3.4600   52.7328   17.0697 C.3       1 UNK         0.0000 
     32 O32         5.8537   57.2801   17.0472 O.3       1 UNK         0.0000 
     33 C33         6.3296   58.5573   17.4820 C.3       1 UNK         0.0000 
     34 C34         7.4363   58.3789   18.5484 C.3       1 UNK         0.0000 
     35 O35         6.9503   57.6325   19.6757 O.3       1 UNK         0.0000 
     36 C36        -0.9051   47.5435   24.6892 C.3       1 UNK         0.0000 
     37 H37         1.0867   52.5589   24.8334 H         1 UNK         0.0000 
     38 H38         0.3485   52.4781   23.2325 H         1 UNK         0.0000 
     39 H39        -0.3509   53.5265   24.4548 H         1 UNK         0.0000 
     40 H40        -2.0967   52.6970   25.8142 H         1 UNK         0.0000 
     41 H41        -3.5330   50.8650   26.6117 H         1 UNK         0.0000 
     42 H42        -2.9870   48.5368   26.0800 H         1 UNK         0.0000 
     43 H43         1.5972   50.0271   24.0202 H         1 UNK         0.0000 
     44 H44         2.7312   49.8144   22.0128 H         1 UNK         0.0000 
     45 H45         2.3854   48.1475   22.0105 H         1 UNK         0.0000 
     46 H46         0.4148   47.5919   19.6054 H         1 UNK         0.0000 
     47 H47         1.8759   47.5867   18.6098 H         1 UNK         0.0000 
     48 H48         1.9083   46.8974   20.2202 H         1 UNK         0.0000 
     49 H49         1.3366   52.1486   19.5531 H         1 UNK         0.0000 
     50 H50         2.0999   51.5821   21.0193 H         1 UNK         0.0000 
     51 H51         4.3255   51.3050   21.2749 H         1 UNK         0.0000 
     52 H52         5.4703   51.8587   20.0820 H         1 UNK         0.0000 
     53 H53         5.9780   52.3984   22.5689 H         1 UNK         0.0000 
     54 H54         6.5298   54.0228   22.3356 H         1 UNK         0.0000 
     55 H55         5.1924   53.3121   24.5712 H         1 UNK         0.0000 
     56 H56         5.0691   54.9187   23.8862 H         1 UNK         0.0000 
     57 H57         3.1038   52.6162   23.5016 H         1 UNK         0.0000 
     58 H58         2.7549   54.2726   23.9859 H         1 UNK         0.0000 
     59 H59         3.2698   55.1165   21.8329 H         1 UNK         0.0000 
     60 H60         2.4102   53.6959   21.4068 H         1 UNK         0.0000 
     61 H61         6.3294   55.7934   21.3046 H         1 UNK         0.0000 
     62 H62         4.3037   55.2839   16.8484 H         1 UNK         0.0000 
     63 H63         3.2339   53.4875   16.3169 H         1 UNK         0.0000 
     64 H64         4.4518   52.3293   16.8529 H         1 UNK         0.0000 
     65 H65         2.7435   51.9291   16.9042 H         1 UNK         0.0000 
     66 H66         5.5029   59.1263   17.9121 H         1 UNK         0.0000 
     67 H67         6.7000   59.1227   16.6257 H         1 UNK         0.0000 
     68 H68         7.7961   59.3515   18.8819 H         1 UNK         0.0000 
     69 H69         8.2784   57.8460   18.1040 H         1 UNK         0.0000 
     70 H70        -1.1372   47.2438   23.6666 H         1 UNK         0.0000 
     71 H71         0.1556   47.3560   24.8723 H         1 UNK         0.0000 
     72 H72        -1.4545   46.8971   25.3799 H         1 UNK         0.0000 
     73 N73         3.5050   52.0471   19.4187 N.4       1 UNK         0.0000 
     74 H74         3.8462   51.2926   18.8205 H         1 UNK         0.0000 
@<TRIPOS>BOND
     1    1    2 1    
     2    1   37 1    
     3    1   38 1    
     4    1   39 1    
     5    2    7 ar   
     6    2    3 ar   
     7    3    4 ar   
     8    3   40 1    
     9    4    5 ar   
    10    4   41 1    
    11    5    6 ar   
    12    5   42 1    
    13    6    7 ar   
    14    6   36 1    
    15    7    8 1    
    16    8    9 am   BACKBONE|DICT|INTERRES
    17    8   43 1    
    18    9   10 2    
    19    9   11 1    
    20   11   12 1    
    21   11   44 1    
    22   11   45 1    
    23   12   13 1    
    24   12   14 am   BACKBONE|DICT|INTERRES
    25   13   46 1    
    26   13   47 1    
    27   13   48 1    
    28   14   15 2    
    29   14   16 1    
    30   16   49 1    
    31   16   50 1    
    32   16   73 1    
    33   17   18 1    
    34   17   51 1    
    35   17   52 1    
    36   17   73 1    
    37   18   22 1    
    38   18   19 1    
    39   18   23 1    
    40   19   20 1    
    41   19   53 1    
    42   19   54 1    
    43   20   21 1    
    44   20   55 1    
    45   20   56 1    
    46   21   22 1    
    47   21   57 1    
    48   21   58 1    
    49   22   59 1    
    50   22   60 1    
    51   23   28 ar   
    52   23   24 ar   
    53   24   25 ar   
    54   24   61 1    
    55   25   35 1    
    56   25   26 ar   
    57   26   27 ar   
    58   26   32 1    
    59   27   28 ar   
    60   27   62 1    
    61   28   29 1    
    62   29   30 1    
    63   29   31 1    
    64   29   73 1    
    65   31   63 1    
    66   31   64 1    
    67   31   65 1    
    68   32   33 1    
    69   33   34 1    
    70   33   66 1    
    71   33   67 1    
    72   34   35 1    
    73   34   68 1    
    74   34   69 1    
    75   36   70 1    
    76   36   71 1    
    77   36   72 1    
    78   73   74 1    
@<TRIPOS>SUBSTRUCTURE
     1 UNK         1 GROUP             0       ****    0 ROOT    
