ZINC13547198_3578
                    3D
 Schrodinger Suite 2024-2.
 47 49  0  0  1  0            999 V2000
    1.4454   54.4723   29.1105 C   0  0  0  0  0  0
    2.7044   55.3082   28.8442 C   0  0  0  0  0  0
    3.9712   54.4349   28.7445 C   0  0  0  0  0  0
    3.8560   53.2971   27.6882 C   0  0  0  0  0  0
    2.5620   52.4967   28.0009 C   0  0  0  0  0  0
    1.2921   53.3611   28.0609 C   0  0  0  0  0  0
    3.9693   53.7231   26.2709 N   0  0  0  0  0  0
    5.1017   54.2224   25.7237 C   0  0  0  0  0  0
    6.0785   54.4998   26.4253 O   0  0  0  0  0  0
    5.1735   54.3514   24.2640 C   0  0  0  0  0  0
    6.1332   54.9545   23.5231 C   0  0  0  0  0  0
    6.0719   54.8911   22.1420 N   0  0  0  0  0  0
    5.0720   54.0450   21.7330 C   0  0  0  0  0  0
    4.7044   53.3812   20.2490 S   0  0  0  0  0  0
    4.0267   53.6967   23.1003 S   0  0  0  0  0  0
    6.8487   55.7666   21.1730 C   0  0  0  0  0  0
    8.0647   55.2114   20.4029 C   0  0  0  0  0  0
    8.7571   56.1340   19.3855 C   0  0  0  0  0  0
    7.7650   56.7902   18.4249 C   0  0  0  0  0  0
    6.7044   57.5578   19.2129 C   0  0  0  0  0  0
    6.0006   56.6713   20.2608 C   0  0  0  0  0  0
    7.1044   55.6967   24.1175 N   0  0  0  0  0  0
    0.5690   55.1150   29.1068 H   0  0  0  0  0  0
    1.4962   54.0332   30.1082 H   0  0  0  0  0  0
    2.5656   55.8445   27.9078 H   0  0  0  0  0  0
    2.8229   56.0668   29.6188 H   0  0  0  0  0  0
    4.8393   55.0645   28.5520 H   0  0  0  0  0  0
    4.1674   53.9887   29.7206 H   0  0  0  0  0  0
    4.7022   52.6242   27.8544 H   0  0  0  0  0  0
    2.6852   51.9858   28.9573 H   0  0  0  0  0  0
    2.4116   51.6967   27.2817 H   0  0  0  0  0  0
    1.1044   53.7980   27.0797 H   0  0  0  0  0  0
    0.4254   52.7410   28.2953 H   0  0  0  0  0  0
    3.1729   53.5582   25.6753 H   0  0  0  0  0  0
    7.3501   56.4967   21.8052 H   0  0  0  0  0  0
    8.8180   54.8967   21.1218 H   0  0  0  0  0  0
    7.7346   54.3612   19.8086 H   0  0  0  0  0  0
    9.3320   56.8967   19.9101 H   0  0  0  0  0  0
    9.4936   55.5619   18.8184 H   0  0  0  0  0  0
    8.2868   57.4614   17.7413 H   0  0  0  0  0  0
    7.2883   56.0276   17.8063 H   0  0  0  0  0  0
    7.1447   58.4344   19.6817 H   0  0  0  0  0  0
    5.9616   57.9599   18.5212 H   0  0  0  0  0  0
    5.2663   56.0988   19.6988 H   0  0  0  0  0  0
    5.5044   57.2967   20.9731 H   0  0  0  0  0  0
    7.0751   55.7620   25.1256 H   0  0  0  0  0  0
    8.0169   55.7972   23.6817 H   0  0  0  0  0  0
  1  6  1  0  0  0
  1  2  1  0  0  0
  1 23  1  0  0  0
  1 24  1  0  0  0
  2  3  1  0  0  0
  2 25  1  0  0  0
  2 26  1  0  0  0
  3  4  1  0  0  0
  3 27  1  0  0  0
  3 28  1  0  0  0
  4  5  1  0  0  0
  4  7  1  0  0  0
  4 29  1  0  0  0
  5  6  1  0  0  0
  5 30  1  0  0  0
  5 31  1  0  0  0
  6 32  1  0  0  0
  6 33  1  0  0  0
  7  8  1  0  0  0
  7 34  1  0  0  0
  8  9  2  0  0  0
  8 10  1  0  0  0
 10 15  1  0  0  0
 10 11  2  0  0  0
 11 12  1  0  0  0
 11 22  1  0  0  0
 12 13  1  0  0  0
 12 16  1  0  0  0
 13 14  2  0  0  0
 13 15  1  0  0  0
 16 21  1  0  0  0
 16 17  1  0  0  0
 16 35  1  0  0  0
 17 18  1  0  0  0
 17 36  1  0  0  0
 17 37  1  0  0  0
 18 19  1  0  0  0
 18 38  1  0  0  0
 18 39  1  0  0  0
 19 20  1  0  0  0
 19 40  1  0  0  0
 19 41  1  0  0  0
 20 21  1  0  0  0
 20 42  1  0  0  0
 20 43  1  0  0  0
 21 44  1  0  0  0
 21 45  1  0  0  0
 22 46  1  0  0  0
 22 47  1  0  0  0
M  END
> <i_i_glide_confnum>
59

> <i_i_glide_lignum>
3579

> <i_i_glide_posenum>
397

> <i_i_glide_rotatable_bonds>
4

> <i_m_Source_File_Index>
1094

> <b_m_subgroup_collapsed>
0

> <r_i_docking_score>
-5.61346

> <r_i_glide_ecoul>
-0.553521

> <r_i_glide_eff_state_penalty>
0

> <r_i_glide_einternal>
9.50744

> <r_i_glide_emodel>
-41.1442

> <r_i_glide_energy>
-31.8794

> <r_i_glide_erotb>
0.656719

> <r_i_glide_esite>
-0.0140483

> <r_i_glide_evdw>
-31.3259

> <r_i_glide_gscore>
-5.61346

> <r_i_glide_hbond>
-0.27389

> <r_i_glide_ligand_efficiency>
-0.255157

> <r_i_glide_ligand_efficiency_ln>
-1.37213

> <r_i_glide_ligand_efficiency_sa>
-0.71496

> <r_i_glide_lipo>
-2.54132

> <r_i_glide_metal>
0

> <r_i_glide_rewards>
-1.7916

> <s_i_glide_gridfile>
wee1_glide-grid

> <s_m_Source_File>
wee1_decoys_glide_SP.sdf

> <s_m_Source_Path>
/Users/zhangxujun/Desktop

> <s_m_entry_id>
1369

> <s_m_entry_name>
wee1_decoys_glide_SP.1094

> <s_m_subgroup_title>
wee1_decoys_glide_SP

> <s_m_subgroupid>
wee1_decoys_glide_SP


$$$$
