@<TRIPOS>MOLECULE
ZINC16443065_262
60   63    1
SMALL
USER_CHARGES


@<TRIPOS>ATOM
      1 C1          4.7963   53.4388   16.6971 C.3       1 UNK         0.0000 
      2 C2          6.1061   54.2377   16.8311 C.3       1 UNK         0.0000 
      3 H3          5.9611   55.2211   16.3803 H         1 UNK         0.0000 
      4 C4          6.5139   54.5536   18.2993 C.2       1 UNK         0.0000 
      5 O5          7.6833   54.8575   18.5481 O.2       1 UNK         0.0000 
      6 N6          5.5475   54.4613   19.2381 N.am      1 UNK         0.0000 
      7 C7          5.6606   54.5701   20.6314 C.ar      1 UNK         0.0000 
      8 C8          4.7042   53.8722   21.3638 C.ar      1 UNK         0.0000 
      9 C9          4.7657   53.8533   22.7498 C.ar      1 UNK         0.0000 
     10 C10         5.7749   54.5505   23.4354 C.ar      1 UNK         0.0000 
     11 C11         6.7189   55.2737   22.6886 C.ar      1 UNK         0.0000 
     12 C12         6.6594   55.2966   21.2963 C.ar      1 UNK         0.0000 
     13 C13         5.8223   54.5854   24.9506 C.2       1 UNK         0.0000 
     14 O14         6.8302   54.9841   25.5382 O.2       1 UNK         0.0000 
     15 N15         4.6807   54.1931   25.5583 N.am      1 UNK         0.0000 
     16 C16         4.3337   54.0964   26.9160 C.ar      1 UNK         0.0000 
     17 C17         5.1377   54.5735   27.9630 C.ar      1 UNK         0.0000 
     18 C18         4.7042   54.4735   29.2815 C.ar      1 UNK         0.0000 
     19 C19         3.5057   53.8281   29.5685 C.ar      1 UNK         0.0000 
     20 C20         2.7024   53.3462   28.5407 C.ar      1 UNK         0.0000 
     21 C21         3.0932   53.4930   27.2003 C.ar      1 UNK         0.0000 
     22 O22         2.3118   53.0687   26.1339 O.3       1 UNK         0.0000 
     23 C23         1.0815   52.3983   26.3868 C.3       1 UNK         0.0000 
     24 C24         7.1720   53.8740   14.5311 C.3       1 UNK         0.0000 
     25 C25         8.5334   53.6153   13.8689 C.3       1 UNK         0.0000 
     26 C26         9.1784   52.3086   14.3216 C.ar      1 UNK         0.0000 
     27 C27        10.1585   51.7036   13.5262 C.ar      1 UNK         0.0000 
     28 C28        10.8052   50.5415   13.9349 C.ar      1 UNK         0.0000 
     29 C29        10.4877   49.9711   15.1630 C.ar      1 UNK         0.0000 
     30 C30         9.5065   50.5549   15.9600 C.ar      1 UNK         0.0000 
     31 C31         8.8225   51.7067   15.5504 C.ar      1 UNK         0.0000 
     32 C32         7.6757   52.2425   16.4121 C.3       1 UNK         0.0000 
     33 H33         3.9477   54.0156   17.0694 H         1 UNK         0.0000 
     34 H34         4.5961   53.2079   15.6508 H         1 UNK         0.0000 
     35 H35         4.8496   52.4979   17.2484 H         1 UNK         0.0000 
     36 H36         4.6540   54.1188   18.9206 H         1 UNK         0.0000 
     37 H37         3.9195   53.3180   20.8664 H         1 UNK         0.0000 
     38 H38         4.0066   53.2894   23.2700 H         1 UNK         0.0000 
     39 H39         7.5044   55.8260   23.1841 H         1 UNK         0.0000 
     40 H40         7.4039   55.8587   20.7529 H         1 UNK         0.0000 
     41 H41         3.9355   53.8878   24.9521 H         1 UNK         0.0000 
     42 H42         6.0800   55.0663   27.7855 H         1 UNK         0.0000 
     43 H43         5.3111   54.8962   30.0706 H         1 UNK         0.0000 
     44 H44         3.1852   53.6969   30.5857 H         1 UNK         0.0000 
     45 H45         1.7719   52.8692   28.8064 H         1 UNK         0.0000 
     46 H46         0.6151   52.1343   25.4383 H         1 UNK         0.0000 
     47 H47         1.2359   51.4736   26.9461 H         1 UNK         0.0000 
     48 H48         0.3800   53.0299   26.9334 H         1 UNK         0.0000 
     49 H49         6.3969   53.1784   14.1995 H         1 UNK         0.0000 
     50 H50         6.8534   54.8992   14.3305 H         1 UNK         0.0000 
     51 H51         9.2145   54.4347   14.1078 H         1 UNK         0.0000 
     52 H52         8.4215   53.6290   12.7832 H         1 UNK         0.0000 
     53 H53        10.4355   52.1424   12.5780 H         1 UNK         0.0000 
     54 H54        11.5550   50.0955   13.2944 H         1 UNK         0.0000 
     55 H55        10.9921   49.0738   15.4908 H         1 UNK         0.0000 
     56 H56         9.2601   50.0939   16.9064 H         1 UNK         0.0000 
     57 H57         6.7701   51.6620   16.2347 H         1 UNK         0.0000 
     58 H58         7.9106   52.2172   17.4780 H         1 UNK         0.0000 
     59 N59         7.3554   53.7175   16.0570 N.4       1 UNK         0.0000 
     60 H60         8.1334   54.2979   16.3481 H         1 UNK         0.0000 
@<TRIPOS>BOND
     1    1    2 1    
     2    1   33 1    
     3    1   34 1    
     4    1   35 1    
     5    2    3 1    
     6    2    4 1    
     7    2   59 1    
     8    4    5 2    
     9    4    6 am   BACKBONE|DICT|INTERRES
    10    6    7 1    
    11    6   36 1    
    12    7   12 ar   
    13    7    8 ar   
    14    8    9 ar   
    15    8   37 1    
    16    9   10 ar   
    17    9   38 1    
    18   10   11 ar   
    19   10   13 1    
    20   11   12 ar   
    21   11   39 1    
    22   12   40 1    
    23   13   14 2    
    24   13   15 am   BACKBONE|DICT|INTERRES
    25   15   16 1    
    26   15   41 1    
    27   16   21 ar   
    28   16   17 ar   
    29   17   18 ar   
    30   17   42 1    
    31   18   19 ar   
    32   18   43 1    
    33   19   20 ar   
    34   19   44 1    
    35   20   21 ar   
    36   20   45 1    
    37   21   22 1    
    38   22   23 1    
    39   23   46 1    
    40   23   47 1    
    41   23   48 1    
    42   24   25 1    
    43   24   49 1    
    44   24   50 1    
    45   24   59 1    
    46   25   26 1    
    47   25   51 1    
    48   25   52 1    
    49   26   31 ar   
    50   26   27 ar   
    51   27   28 ar   
    52   27   53 1    
    53   28   29 ar   
    54   28   54 1    
    55   29   30 ar   
    56   29   55 1    
    57   30   31 ar   
    58   30   56 1    
    59   31   32 1    
    60   32   57 1    
    61   32   58 1    
    62   32   59 1    
    63   59   60 1    
@<TRIPOS>SUBSTRUCTURE
     1 UNK         1 GROUP             0       ****    0 ROOT    
