@<TRIPOS>MOLECULE
ZINC27265196_5155
61   66    1
SMALL
USER_CHARGES


@<TRIPOS>ATOM
      1 C1          0.7615   51.7567   20.4410 C.ar      1 UNK         0.0000 
      2 C2         -0.3137   51.6556   21.3162 C.ar      1 UNK         0.0000 
      3 C3         -0.1913   52.0816   22.6347 C.ar      1 UNK         0.0000 
      4 C4          1.0308   52.6289   23.0949 C.ar      1 UNK         0.0000 
      5 C5          2.1355   52.7619   22.2081 C.ar      1 UNK         0.0000 
      6 C6          1.9731   52.2966   20.8665 C.ar      1 UNK         0.0000 
      7 C7          3.3350   53.3401   22.7392 C.ar      1 UNK         0.0000 
      8 C8          3.4100   53.6968   24.1068 C.ar      1 UNK         0.0000 
      9 C9          2.2710   53.4785   24.9132 C.ar      1 UNK         0.0000 
     10 N10         1.1111   52.9935   24.3944 N.ar      1 UNK         0.0000 
     11 C11         2.2868   53.7202   26.3987 C.2       1 UNK         0.0000 
     12 C12         1.2840   53.2655   27.1931 C.2       1 UNK         0.0000 
     13 C13         1.0602   53.4644   28.6120 C.2       1 UNK         0.0000 
     14 C14         0.4769   52.5439   29.4786 C.2       1 UNK         0.0000 
     15 C15         0.3041   53.0448   30.7717 C.2       1 UNK         0.0000 
     16 C16         0.7044   54.3659   30.8821 C.2       1 UNK         0.0000 
     17 S17         1.3692   54.9818   29.4120 S.3       1 UNK         0.0000 
     18 C18         3.4944   54.4877   26.9405 C.3       1 UNK         0.0000 
     19 C19         4.7738   54.0308   26.2454 C.3       1 UNK         0.0000 
     20 C20         4.6861   54.2881   24.7388 C.3       1 UNK         0.0000 
     21 C21         4.5407   53.5091   21.8572 C.2       1 UNK         0.0000 
     22 O22         5.5044   52.7679   22.0181 O.2       1 UNK         0.0000 
     23 N23         4.4534   54.4966   20.9466 N.am      1 UNK         0.0000 
     24 C24         5.5044   55.0447   20.1914 C.ar      1 UNK         0.0000 
     25 C25         6.7810   55.2968   20.7143 C.ar      1 UNK         0.0000 
     26 C26         7.7473   55.9201   19.9158 C.ar      1 UNK         0.0000 
     27 C27         7.4225   56.3005   18.6028 C.ar      1 UNK         0.0000 
     28 N28         6.1784   56.0486   18.0986 N.ar      1 UNK         0.0000 
     29 C29         5.2468   55.4495   18.8818 C.ar      1 UNK         0.0000 
     30 N30         8.3676   56.8646   17.7332 N.pl3     1 UNK         0.0000 
     31 C31         8.0648   57.1948   16.3298 C.3       1 UNK         0.0000 
     32 C32         7.6242   58.6681   16.1462 C.3       1 UNK         0.0000 
     33 N33         8.3037   59.5953   17.0644 N.am      1 UNK         0.0000 
     34 C34         9.1074   59.2447   18.0845 C.2       1 UNK         0.0000 
     35 O35         9.5047   60.0966   18.8800 O.2       1 UNK         0.0000 
     36 C36         9.4862   57.7382   18.1647 C.3       1 UNK         0.0000 
     37 H37         0.6592   51.4102   19.4227 H         1 UNK         0.0000 
     38 H38        -1.2454   51.2305   20.9731 H         1 UNK         0.0000 
     39 H39        -1.0220   51.9816   23.3186 H         1 UNK         0.0000 
     40 H40         2.7917   52.3567   20.1635 H         1 UNK         0.0000 
     41 H41         0.4972   52.6648   26.7606 H         1 UNK         0.0000 
     42 H42         0.1863   51.5449   29.1864 H         1 UNK         0.0000 
     43 H43        -0.1129   52.4751   31.5913 H         1 UNK         0.0000 
     44 H44         0.6709   54.9913   31.7626 H         1 UNK         0.0000 
     45 H45         3.3420   55.5519   26.7917 H         1 UNK         0.0000 
     46 H46         3.6216   54.3288   28.0102 H         1 UNK         0.0000 
     47 H47         5.6339   54.5580   26.6600 H         1 UNK         0.0000 
     48 H48         4.9448   52.9706   26.4414 H         1 UNK         0.0000 
     49 H49         4.7067   55.3578   24.5532 H         1 UNK         0.0000 
     50 H50         5.5940   53.8885   24.2888 H         1 UNK         0.0000 
     51 H51         3.5366   54.8955   20.7987 H         1 UNK         0.0000 
     52 H52         7.0267   55.0157   21.7285 H         1 UNK         0.0000 
     53 H53         8.7364   56.0760   20.3183 H         1 UNK         0.0000 
     54 H54         4.2760   55.2974   18.4312 H         1 UNK         0.0000 
     55 H55         8.9913   57.0301   15.7772 H         1 UNK         0.0000 
     56 H56         7.3276   56.5134   15.9037 H         1 UNK         0.0000 
     57 H57         7.7153   58.9817   15.1061 H         1 UNK         0.0000 
     58 H58         6.5695   58.7260   16.4206 H         1 UNK         0.0000 
     59 H59         7.9911   60.5586   17.0605 H         1 UNK         0.0000 
     60 H60         9.8427   57.5151   19.1695 H         1 UNK         0.0000 
     61 H61        10.3465   57.5925   17.5097 H         1 UNK         0.0000 
@<TRIPOS>BOND
     1    1    6 ar   
     2    1    2 ar   
     3    1   37 1    
     4    2    3 ar   
     5    2   38 1    
     6    3    4 ar   
     7    3   39 1    
     8    4   10 ar   
     9    4    5 ar   
    10    5    6 ar   
    11    5    7 ar   
    12    6   40 1    
    13    7    8 ar   
    14    7   21 1    
    15    8   20 1    
    16    8    9 ar   
    17    9   10 ar   
    18    9   11 1    
    19   11   12 2    
    20   11   18 1    
    21   12   13 1    
    22   12   41 1    
    23   13   17 1    
    24   13   14 2    
    25   14   15 1    
    26   14   42 1    
    27   15   16 2    
    28   15   43 1    
    29   16   17 1    
    30   16   44 1    
    31   18   19 1    
    32   18   45 1    
    33   18   46 1    
    34   19   20 1    
    35   19   47 1    
    36   19   48 1    
    37   20   49 1    
    38   20   50 1    
    39   21   22 2    
    40   21   23 am   BACKBONE|DICT|INTERRES
    41   23   24 1    
    42   23   51 1    
    43   24   29 ar   
    44   24   25 ar   
    45   25   26 ar   
    46   25   52 1    
    47   26   27 ar   
    48   26   53 1    
    49   27   28 ar   
    50   27   30 1    
    51   28   29 ar   
    52   29   54 1    
    53   30   36 1    
    54   30   31 1    
    55   31   32 1    
    56   31   55 1    
    57   31   56 1    
    58   32   33 1    
    59   32   57 1    
    60   32   58 1    
    61   33   34 am   BACKBONE|DICT|INTERRES
    62   33   59 1    
    63   34   35 2    
    64   34   36 1    
    65   36   60 1    
    66   36   61 1    
@<TRIPOS>SUBSTRUCTURE
     1 UNK         1 GROUP             0       ****    0 ROOT    
