@<TRIPOS>MOLECULE
ZINC63010006_3856
29   31    1
SMALL
USER_CHARGES


@<TRIPOS>ATOM
      1 C1          4.0653   54.0919   22.4827 C.ar      1 UNK         0.0000 
      2 C2          5.0492   54.4969   21.5818 C.ar      1 UNK         0.0000 
      3 C3          6.2819   54.9384   22.0576 C.ar      1 UNK         0.0000 
      4 C4          6.5585   54.9088   23.4201 C.ar      1 UNK         0.0000 
      5 C5          5.5824   54.4965   24.3183 C.ar      1 UNK         0.0000 
      6 C6          4.3137   54.1116   23.8630 C.ar      1 UNK         0.0000 
      7 C7          3.2370   53.7755   24.8571 C.2       1 UNK         0.0000 
      8 N8          3.4881   53.6963   26.1522 N.2       1 UNK         0.0000 
      9 C9          2.3285   53.3688   26.6527 C.2       1 UNK         0.0000 
     10 O10         1.3536   53.2774   25.7155 O.3       1 UNK         0.0000 
     11 N11         1.9848   53.5575   24.5053 N.2       1 UNK         0.0000 
     12 C12         2.0069   53.0634   28.0776 C.ar      1 UNK         0.0000 
     13 C13         0.6793   53.0199   28.5186 C.ar      1 UNK         0.0000 
     14 C14         0.3869   52.7343   29.8530 C.ar      1 UNK         0.0000 
     15 C15         1.4182   52.4834   30.7576 C.ar      1 UNK         0.0000 
     16 C16         2.7479   52.4969   30.3203 C.ar      1 UNK         0.0000 
     17 C17         3.0369   52.7986   28.9899 C.ar      1 UNK         0.0000 
     18 F18         3.7618   52.2129   31.1729 F         1 UNK         0.0000 
     19 N19         1.1043   52.1790   32.0817 N.pl3     1 UNK         0.0000 
     20 Br20        7.5518   55.6960   20.8580 Br        1 UNK         0.0000 
     21 H21         3.0984   53.7966   22.1012 H         1 UNK         0.0000 
     22 H22         4.8345   54.5187   20.5230 H         1 UNK         0.0000 
     23 H23         7.5044   55.2636   23.7901 H         1 UNK         0.0000 
     24 H24         5.8079   54.5201   25.3742 H         1 UNK         0.0000 
     25 H25        -0.1313   53.2070   27.8293 H         1 UNK         0.0000 
     26 H26        -0.6421   52.6970   30.1802 H         1 UNK         0.0000 
     27 H27         4.0680   52.8070   28.6652 H         1 UNK         0.0000 
     28 H28         0.1269   52.0969   32.3686 H         1 UNK         0.0000 
     29 H29         1.8367   52.0967   32.7760 H         1 UNK         0.0000 
@<TRIPOS>BOND
     1    1    6 ar   
     2    1    2 ar   
     3    1   21 1    
     4    2    3 ar   
     5    2   22 1    
     6    3    4 ar   
     7    3   20 1    
     8    4    5 ar   
     9    4   23 1    
    10    5    6 ar   
    11    5   24 1    
    12    6    7 1    
    13    7   11 2    
    14    7    8 1    
    15    8    9 2    
    16    9   10 1    
    17    9   12 1    
    18   10   11 1    
    19   12   17 ar   
    20   12   13 ar   
    21   13   14 ar   
    22   13   25 1    
    23   14   15 ar   
    24   14   26 1    
    25   15   16 ar   
    26   15   19 1    
    27   16   17 ar   
    28   16   18 1    
    29   17   27 1    
    30   19   28 1    
    31   19   29 1    
@<TRIPOS>SUBSTRUCTURE
     1 UNK         1 GROUP             0       ****    0 ROOT    
