ZINC12042755_6037
                    3D
 Schrodinger Suite 2024-2.
 67 71  0  0  1  0            999 V2000
   -1.3611   52.4983   18.5325 C   0  0  0  0  0  0
   -1.3217   51.7840   19.7641 O   0  0  0  0  0  0
   -0.2426   50.9532   20.0316 C   0  0  0  0  0  0
    0.8513   50.8036   19.1599 C   0  0  0  0  0  0
    1.9128   49.9594   19.4810 C   0  0  0  0  0  0
    1.9042   49.2659   20.6864 C   0  0  0  0  0  0
    0.8410   49.4138   21.5707 C   0  0  0  0  0  0
   -0.2491   50.2377   21.2450 C   0  0  0  0  0  0
   -1.3695   50.4097   22.0830 N   0  0  0  0  0  0
   -1.7260   49.7641   23.2145 C   0  0  0  0  0  0
   -1.1395   48.7918   23.6844 O   0  0  0  0  0  0
   -2.9740   50.2803   23.9588 C   0  0  2  0  0  0
   -3.6334   49.4735   24.2857 H   0  0  0  0  0  0
   -3.6084   51.5985   23.5412 C   0  0  0  0  0  0
   -2.8336   51.5163   24.8464 C   0  0  2  0  0  0
   -1.4703   52.2390   24.9743 C   0  0  0  0  0  0
   -0.6454   51.7100   26.1555 C   0  0  0  0  0  0
   -2.7825   51.0472   27.3685 C   0  0  0  0  0  0
   -3.6270   51.5266   26.1747 C   0  0  0  0  0  0
   -0.6871   51.5399   28.7091 C   0  0  0  0  0  0
    0.5566   52.3860   28.9238 C   0  0  0  0  0  0
    0.4518   53.6739   29.4484 C   0  0  0  0  0  0
    1.5908   54.4664   29.5683 C   0  0  0  0  0  0
    2.8365   53.9741   29.1772 C   0  0  0  0  0  0
    2.9452   52.6520   28.7228 C   0  0  0  0  0  0
    1.8084   51.8634   28.5917 C   0  0  0  0  0  0
    3.8874   54.8720   29.2087 O   0  0  0  0  0  0
    5.1737   54.5017   28.6994 C   0  0  0  0  0  0
    5.2763   54.4959   27.1683 C   0  0  0  0  0  0
    6.5519   54.4851   26.5996 C   0  0  0  0  0  0
    6.7043   54.4968   25.2165 C   0  0  0  0  0  0
    5.5821   54.4958   24.3946 C   0  0  0  0  0  0
    4.3052   54.4968   24.9462 C   0  0  0  0  0  0
    4.1526   54.5110   26.3287 C   0  0  0  0  0  0
   -2.2874   53.0705   18.4746 H   0  0  0  0  0  0
   -0.5330   53.2039   18.4544 H   0  0  0  0  0  0
   -1.3400   51.8241   17.6744 H   0  0  0  0  0  0
    0.9018   51.3337   18.2204 H   0  0  0  0  0  0
    2.7450   49.8490   18.7965 H   0  0  0  0  0  0
    2.7249   48.6146   20.9452 H   0  0  0  0  0  0
    0.8958   48.8824   22.5068 H   0  0  0  0  0  0
   -2.0060   51.1170   21.7502 H   0  0  0  0  0  0
   -3.1895   52.2038   22.7394 H   0  0  0  0  0  0
   -4.6934   51.6864   23.5772 H   0  0  0  0  0  0
   -0.8780   52.1948   24.0621 H   0  0  0  0  0  0
   -1.6652   53.2967   25.1272 H   0  0  0  0  0  0
    0.2612   52.3070   26.2644 H   0  0  0  0  0  0
   -0.3906   50.6513   26.0681 H   0  0  0  0  0  0
   -3.3262   51.1941   28.3029 H   0  0  0  0  0  0
   -2.4956   49.9982   27.2803 H   0  0  0  0  0  0
   -3.9820   52.5401   26.3701 H   0  0  0  0  0  0
   -4.5247   50.9111   26.0963 H   0  0  0  0  0  0
   -1.3741   51.6203   29.5541 H   0  0  0  0  0  0
   -0.4263   50.4969   28.5756 H   0  0  0  0  0  0
   -0.5068   54.0773   29.7375 H   0  0  0  0  0  0
    1.5046   55.4815   29.9296 H   0  0  0  0  0  0
    3.8908   52.2371   28.4093 H   0  0  0  0  0  0
    1.9035   50.8609   28.1973 H   0  0  0  0  0  0
    5.8683   55.2521   29.0762 H   0  0  0  0  0  0
    5.5132   53.5498   29.1064 H   0  0  0  0  0  0
    7.4270   54.4687   27.2331 H   0  0  0  0  0  0
    7.6895   54.4962   24.7760 H   0  0  0  0  0  0
    5.7031   54.4995   23.3221 H   0  0  0  0  0  0
    3.4374   54.5017   24.3023 H   0  0  0  0  0  0
    3.1506   54.5392   26.7233 H   0  0  0  0  0  0
   -1.4920   51.8999   27.4367 N   0  3  1  0  0  0
   -1.7410   52.8759   27.5169 H   0  0  0  0  0  0
  1  2  1  0  0  0
  1 35  1  0  0  0
  1 36  1  0  0  0
  1 37  1  0  0  0
  2  3  1  0  0  0
  3  8  2  0  0  0
  3  4  1  0  0  0
  4  5  2  0  0  0
  4 38  1  0  0  0
  5  6  1  0  0  0
  5 39  1  0  0  0
  6  7  2  0  0  0
  6 40  1  0  0  0
  7  8  1  0  0  0
  7 41  1  0  0  0
  8  9  1  0  0  0
  9 10  1  0  0  0
  9 42  1  0  0  0
 10 11  2  0  0  0
 10 12  1  0  0  0
 12 13  1  0  0  0
 12 15  1  0  0  0
 12 14  1  0  0  0
 14 15  1  0  0  0
 14 43  1  0  0  0
 14 44  1  0  0  0
 15 19  1  0  0  0
 15 16  1  0  0  0
 16 17  1  0  0  0
 16 45  1  0  0  0
 16 46  1  0  0  0
 17 47  1  0  0  0
 17 48  1  0  0  0
 17 66  1  0  0  0
 18 19  1  0  0  0
 18 49  1  0  0  0
 18 50  1  0  0  0
 18 66  1  0  0  0
 19 51  1  0  0  0
 19 52  1  0  0  0
 20 21  1  0  0  0
 20 53  1  0  0  0
 20 54  1  0  0  0
 20 66  1  0  0  0
 21 26  2  0  0  0
 21 22  1  0  0  0
 22 23  2  0  0  0
 22 55  1  0  0  0
 23 24  1  0  0  0
 23 56  1  0  0  0
 24 25  2  0  0  0
 24 27  1  0  0  0
 25 26  1  0  0  0
 25 57  1  0  0  0
 26 58  1  0  0  0
 27 28  1  0  0  0
 28 29  1  0  0  0
 28 59  1  0  0  0
 28 60  1  0  0  0
 29 34  2  0  0  0
 29 30  1  0  0  0
 30 31  2  0  0  0
 30 61  1  0  0  0
 31 32  1  0  0  0
 31 62  1  0  0  0
 32 33  2  0  0  0
 32 63  1  0  0  0
 33 34  1  0  0  0
 33 64  1  0  0  0
 34 65  1  0  0  0
 66 67  1  0  0  0
M  CHG  1  66   1
M  END
> <i_i_glide_confnum>
57

> <i_i_glide_lignum>
6038

> <i_i_glide_posenum>
271

> <i_i_glide_rotatable_bonds>
9

> <i_m_Source_File_Index>
5554

> <b_m_subgroup_collapsed>
0

> <r_i_docking_score>
-4.97791

> <r_i_glide_ecoul>
-1.09211

> <r_i_glide_eff_state_penalty>
0

> <r_i_glide_einternal>
1.65221

> <r_i_glide_emodel>
-59.3783

> <r_i_glide_energy>
-44.2216

> <r_i_glide_erotb>
0.768201

> <r_i_glide_esite>
-0.0474377

> <r_i_glide_evdw>
-43.1295

> <r_i_glide_gscore>
-4.97791

> <r_i_glide_hbond>
0

> <r_i_glide_ligand_efficiency>
-0.146409

> <r_i_glide_ligand_efficiency_ln>
-1.09976

> <r_i_glide_ligand_efficiency_sa>
-0.474309

> <r_i_glide_lipo>
-2.98145

> <r_i_glide_metal>
0

> <r_i_glide_rewards>
-0.396932

> <s_i_glide_gridfile>
wee1_glide-grid

> <s_m_Source_File>
wee1_decoys_glide_SP.sdf

> <s_m_Source_Path>
/Users/zhangxujun/Desktop

> <s_m_entry_id>
5829

> <s_m_entry_name>
wee1_decoys_glide_SP.5554

> <s_m_subgroup_title>
wee1_decoys_glide_SP

> <s_m_subgroupid>
wee1_decoys_glide_SP


$$$$
