@<TRIPOS>MOLECULE
ZINC63541084_5118
53   57    1
SMALL
USER_CHARGES


@<TRIPOS>ATOM
      1 C1         -8.0091   51.4274   31.2648 C.2       1 UNK         0.0000 
      2 C2         -7.3725   50.9179   32.4714 C.2       1 UNK         0.0000 
      3 C3         -6.0914   50.4632   32.4674 C.2       1 UNK         0.0000 
      4 C4         -5.3344   50.4765   31.2870 C.2       1 UNK         0.0000 
      5 N5         -4.0959   50.0968   31.0826 N.pl3     1 UNK         0.0000 
      6 C6         -3.7378   50.2798   29.6696 C.3       1 UNK         0.0000 
      7 C7         -5.0085   50.8762   29.0955 C.2       1 UNK         0.0000 
      8 C8         -5.8998   50.9544   30.1028 C.2       1 UNK         0.0000 
      9 C9         -7.2895   51.4387   30.1239 C.2       1 UNK         0.0000 
     10 C10        -5.1589   51.2400   27.6264 C.3       1 UNK         0.0000 
     11 C11        -4.6777   50.1669   26.6300 C.3       1 UNK         0.0000 
     12 N12        -3.2211   50.0622   26.5295 N.am      1 UNK         0.0000 
     13 C13        -2.4541   50.9121   25.8252 C.2       1 UNK         0.0000 
     14 O14        -2.9104   51.9076   25.2590 O.2       1 UNK         0.0000 
     15 C15        -0.9540   50.5625   25.7171 C.3       1 UNK         0.0000 
     16 H16        -0.9411   49.4763   25.6023 H         1 UNK         0.0000 
     17 C17        -0.2128   51.2494   24.5668 C.3       1 UNK         0.0000 
     18 H18        -0.8413   51.4870   23.7084 H         1 UNK         0.0000 
     19 C19         0.3337   52.5162   25.2502 C.3       1 UNK         0.0000 
     20 H20        -0.4131   53.2920   25.0725 H         1 UNK         0.0000 
     21 N21         1.5824   53.0685   24.7007 N.2       1 UNK         0.0000 
     22 C22         2.5021   53.5155   25.4869 C.2       1 UNK         0.0000 
     23 C23         2.2898   53.5014   26.9193 C.2       1 UNK         0.0000 
     24 C24         1.2423   52.9117   27.5415 C.2       1 UNK         0.0000 
     25 N25         0.2962   52.2873   26.7112 N.pl3     1 UNK         0.0000 
     26 N26        -0.2159   50.9287   26.9167 N.3       1 UNK         0.0000 
     27 C27         1.0138   52.8837   29.0575 C.3       1 UNK         0.0000 
     28 F28         1.8181   51.9733   29.6161 F         1 UNK         0.0000 
     29 F29         1.3000   54.0808   29.5772 F         1 UNK         0.0000 
     30 F30        -0.2549   52.5901   29.3663 F         1 UNK         0.0000 
     31 C31         3.7429   54.0034   24.8605 C.2       1 UNK         0.0000 
     32 C32         4.0600   54.0925   23.4994 C.2       1 UNK         0.0000 
     33 C33         5.3782   54.4965   23.2525 C.2       1 UNK         0.0000 
     34 C34         6.0783   54.7617   24.4160 C.2       1 UNK         0.0000 
     35 S35         5.1141   54.4967   25.8287 S.3       1 UNK         0.0000 
     36 Cl36        1.1047   50.1403   24.0757 Cl        1 UNK         0.0000 
     37 H37        -9.0322   51.7782   31.2868 H         1 UNK         0.0000 
     38 H38        -7.9339   50.9025   33.3938 H         1 UNK         0.0000 
     39 H39        -5.6663   50.0966   33.3917 H         1 UNK         0.0000 
     40 H40        -2.8586   50.9233   29.6164 H         1 UNK         0.0000 
     41 H41        -3.4803   49.2976   29.2685 H         1 UNK         0.0000 
     42 H42        -7.7737   51.8096   29.2330 H         1 UNK         0.0000 
     43 H43        -6.2187   51.4227   27.4470 H         1 UNK         0.0000 
     44 H44        -4.6540   52.1869   27.4317 H         1 UNK         0.0000 
     45 H45        -5.0732   49.1930   26.9170 H         1 UNK         0.0000 
     46 H46        -5.0938   50.3736   25.6411 H         1 UNK         0.0000 
     47 H47        -2.7610   49.3188   27.0477 H         1 UNK         0.0000 
     48 H48         3.0140   53.9801   27.5586 H         1 UNK         0.0000 
     49 H49         0.6009   50.3350   26.9944 H         1 UNK         0.0000 
     50 H50         3.3648   53.8421   22.7100 H         1 UNK         0.0000 
     51 H51         5.7970   54.5975   22.2627 H         1 UNK         0.0000 
     52 H52         7.1045   55.0912   24.5068 H         1 UNK         0.0000 
     53 H53        -3.4493   49.7302   31.7775 H         1 UNK         0.0000 
@<TRIPOS>BOND
     1    1    9 2    
     2    1    2 1    
     3    1   37 1    
     4    2    3 2    
     5    2   38 1    
     6    3    4 1    
     7    3   39 1    
     8    4    8 1    
     9    4    5 2    
    10    5    6 1    
    11    5   53 1    
    12    6    7 1    
    13    6   40 1    
    14    6   41 1    
    15    7    8 2    
    16    7   10 1    
    17    8    9 1    
    18    9   42 1    
    19   10   11 1    
    20   10   43 1    
    21   10   44 1    
    22   11   12 1    
    23   11   45 1    
    24   11   46 1    
    25   12   13 am   BACKBONE|DICT|INTERRES
    26   12   47 1    
    27   13   14 2    
    28   13   15 1    
    29   15   16 1    
    30   15   26 1    
    31   15   17 1    
    32   17   18 1    
    33   17   19 1    
    34   17   36 1    
    35   19   20 1    
    36   19   25 1    
    37   19   21 1    
    38   21   22 2    
    39   22   23 1    
    40   22   31 1    
    41   23   24 2    
    42   23   48 1    
    43   24   25 1    
    44   24   27 1    
    45   25   26 1    
    46   26   49 1    
    47   27   28 1    
    48   27   29 1    
    49   27   30 1    
    50   31   35 1    
    51   31   32 2    
    52   32   33 1    
    53   32   50 1    
    54   33   34 2    
    55   33   51 1    
    56   34   35 1    
    57   34   52 1    
@<TRIPOS>SUBSTRUCTURE
     1 UNK         1 GROUP             0       ****    0 ROOT    
