@<TRIPOS>MOLECULE
ZINC00702394_990
57   61    1
SMALL
USER_CHARGES


@<TRIPOS>ATOM
      1 C1          3.9505   54.5381   24.9206 C.3       1 UNK         0.0000 
      2 C2          2.9717   53.8325   24.0007 C.ar      1 UNK         0.0000 
      3 C3          1.6290   53.7126   24.3565 C.ar      1 UNK         0.0000 
      4 C4          0.7513   53.0100   23.5356 C.ar      1 UNK         0.0000 
      5 C5          1.2158   52.3535   22.3911 C.ar      1 UNK         0.0000 
      6 C6          2.5537   52.5420   22.0084 C.ar      1 UNK         0.0000 
      7 C7          3.4205   53.2966   22.7962 C.ar      1 UNK         0.0000 
      8 C8          0.3189   51.5012   21.5355 C.2       1 UNK         0.0000 
      9 C9         -0.9768   50.9759   22.0036 C.2       1 UNK         0.0000 
     10 C10        -1.1494   49.9465   23.0933 C.3       1 UNK         0.0000 
     11 H11        -0.5197   49.0805   22.8781 H         1 UNK         0.0000 
     12 N12        -2.5475   49.5167   22.9460 N.am      1 UNK         0.0000 
     13 C13        -3.1890   50.2629   21.9980 C.2       1 UNK         0.0000 
     14 O14        -4.3812   50.1817   21.6793 O.2       1 UNK         0.0000 
     15 C15        -2.1714   51.1292   21.4214 C.2       1 UNK         0.0000 
     16 O16        -2.4951   51.8764   20.4208 O.co2     1 UNK         0.0000 
     17 C17        -3.1035   48.4350   23.6638 C.2       1 UNK         0.0000 
     18 N18        -4.2932   47.9325   23.4404 N.2       1 UNK         0.0000 
     19 C19        -4.5832   46.9002   24.2723 C.ar      1 UNK         0.0000 
     20 C20        -5.7767   46.1674   24.2470 C.ar      1 UNK         0.0000 
     21 C21        -5.9353   45.1242   25.1607 C.ar      1 UNK         0.0000 
     22 C22        -4.9425   44.8170   26.0956 C.ar      1 UNK         0.0000 
     23 C23        -3.7571   45.5556   26.1557 C.ar      1 UNK         0.0000 
     24 C24        -3.5732   46.5735   25.2108 C.ar      1 UNK         0.0000 
     25 S25        -2.1912   47.6152   24.9330 S.3       1 UNK         0.0000 
     26 C26        -5.1572   43.6777   27.0753 C.3       1 UNK         0.0000 
     27 C27        -0.7934   50.4161   24.5095 C.ar      1 UNK         0.0000 
     28 C28        -1.5771   51.3526   25.1967 C.ar      1 UNK         0.0000 
     29 C29        -1.1925   51.7930   26.4635 C.ar      1 UNK         0.0000 
     30 C30        -0.0499   51.2594   27.0791 C.ar      1 UNK         0.0000 
     31 C31         0.6507   50.2401   26.4267 C.ar      1 UNK         0.0000 
     32 C32         0.3050   49.8429   25.1442 C.ar      1 UNK         0.0000 
     33 C33         0.4693   51.7364   28.4019 C.2       1 UNK         0.0000 
     34 O34         1.5055   51.2968   28.9119 O.2       1 UNK         0.0000 
     35 O35        -0.2868   52.7077   28.9686 O.3       1 UNK         0.0000 
     36 C36         0.0663   53.2497   30.2353 C.3       1 UNK         0.0000 
     37 O37         0.6576   51.2090   20.3880 O.2       1 UNK         0.0000 
     38 H38         4.7318   55.0414   24.3499 H         1 UNK         0.0000 
     39 H39         3.4559   55.2971   25.5244 H         1 UNK         0.0000 
     40 H40         4.4224   53.8174   25.5904 H         1 UNK         0.0000 
     41 H41         1.2629   54.1529   25.2713 H         1 UNK         0.0000 
     42 H42        -0.2898   52.9763   23.8047 H         1 UNK         0.0000 
     43 H43         2.9394   52.0927   21.1030 H         1 UNK         0.0000 
     44 H44         4.4523   53.4075   22.4963 H         1 UNK         0.0000 
     45 H45        -6.5537   46.4045   23.5358 H         1 UNK         0.0000 
     46 H46        -6.8505   44.5493   25.1423 H         1 UNK         0.0000 
     47 H47        -2.9980   45.3346   26.8966 H         1 UNK         0.0000 
     48 H48        -6.1951   43.3400   27.1004 H         1 UNK         0.0000 
     49 H49        -4.5105   42.8322   26.8360 H         1 UNK         0.0000 
     50 H50        -4.8957   44.0035   28.0816 H         1 UNK         0.0000 
     51 H51        -2.4547   51.7730   24.7281 H         1 UNK         0.0000 
     52 H52        -1.7840   52.5563   26.9471 H         1 UNK         0.0000 
     53 H53         1.4992   49.7568   26.8904 H         1 UNK         0.0000 
     54 H54         0.8941   49.0809   24.6539 H         1 UNK         0.0000 
     55 H55        -0.4948   54.1643   30.4207 H         1 UNK         0.0000 
     56 H56         1.1267   53.5041   30.2828 H         1 UNK         0.0000 
     57 H57        -0.1562   52.5403   31.0343 H         1 UNK         0.0000 
@<TRIPOS>BOND
     1    1    2 1    
     2    1   38 1    
     3    1   39 1    
     4    1   40 1    
     5    2    7 ar   
     6    2    3 ar   
     7    3    4 ar   
     8    3   41 1    
     9    4    5 ar   
    10    4   42 1    
    11    5    6 ar   
    12    5    8 1    
    13    6    7 ar   
    14    6   43 1    
    15    7   44 1    
    16    8    9 1    
    17    8   37 2    
    18    9   15 2    
    19    9   10 1    
    20   10   12 1    
    21   10   27 1    
    22   10   11 1    
    23   12   17 am   BACKBONE|DICT|INTERRES
    24   12   13 am   BACKBONE|DICT|INTERRES
    25   13   14 2    
    26   13   15 1    
    27   15   16 1    
    28   17   25 1    
    29   17   18 2    
    30   18   19 1    
    31   19   24 ar   
    32   19   20 ar   
    33   20   21 ar   
    34   20   45 1    
    35   21   22 ar   
    36   21   46 1    
    37   22   23 ar   
    38   22   26 1    
    39   23   24 ar   
    40   23   47 1    
    41   24   25 1    
    42   26   48 1    
    43   26   49 1    
    44   26   50 1    
    45   27   32 ar   
    46   27   28 ar   
    47   28   29 ar   
    48   28   51 1    
    49   29   30 ar   
    50   29   52 1    
    51   30   31 ar   
    52   30   33 1    
    53   31   32 ar   
    54   31   53 1    
    55   32   54 1    
    56   33   34 2    
    57   33   35 1    
    58   35   36 1    
    59   36   55 1    
    60   36   56 1    
    61   36   57 1    
@<TRIPOS>SUBSTRUCTURE
     1 UNK         1 GROUP             0       ****    0 ROOT    
