@<TRIPOS>MOLECULE
ZINC20885304_3928
37   39    1
SMALL
USER_CHARGES


@<TRIPOS>ATOM
      1 C1          2.6998   53.5421   27.4897 C.ar      1 UNK         0.0000 
      2 C2          1.9017   53.0566   28.5234 C.ar      1 UNK         0.0000 
      3 C3          2.4882   52.6804   29.7291 C.ar      1 UNK         0.0000 
      4 C4          3.8627   52.7912   29.9131 C.ar      1 UNK         0.0000 
      5 C5          4.6601   53.2797   28.8817 C.ar      1 UNK         0.0000 
      6 C6          4.0835   53.6522   27.6661 C.ar      1 UNK         0.0000 
      7 C7          4.9694   54.1191   26.5648 C.2       1 UNK         0.0000 
      8 C8          6.2845   54.5638   26.5151 C.2       1 UNK         0.0000 
      9 C9          6.5758   54.7977   25.1712 C.2       1 UNK         0.0000 
     10 C10         5.4391   54.4814   24.4429 C.2       1 UNK         0.0000 
     11 O11         4.4613   54.0967   25.3031 O.3       1 UNK         0.0000 
     12 C12         5.1114   54.4967   23.0290 C.2       1 UNK         0.0000 
     13 N13         6.0046   54.7818   22.1735 N.2       1 UNK         0.0000 
     14 N14         5.5114   54.8966   20.9285 N.am      1 UNK         0.0000 
     15 C15         6.2813   55.2458   19.8798 C.2       1 UNK         0.0000 
     16 O16         7.5143   55.2974   19.8903 O.2       1 UNK         0.0000 
     17 C17         5.5064   55.6341   18.6525 C.ar      1 UNK         0.0000 
     18 C18         5.5571   56.9343   18.1176 C.ar      1 UNK         0.0000 
     19 C19         4.7617   57.2202   16.9949 C.ar      1 UNK         0.0000 
     20 C20         3.9404   56.2184   16.4511 C.ar      1 UNK         0.0000 
     21 C21         3.9520   54.9494   17.0451 C.ar      1 UNK         0.0000 
     22 N22         4.7214   54.6608   18.1218 N.ar      1 UNK         0.0000 
     23 Cl23        2.9641   53.6707   16.4292 Cl        1 UNK         0.0000 
     24 Cl24        2.9274   56.5373   15.0764 Cl        1 UNK         0.0000 
     25 N25         4.7830   58.4967   16.4245 N.pl3     1 UNK         0.0000 
     26 Cl26        6.5562   58.1713   18.8315 Cl        1 UNK         0.0000 
     27 F27         1.7211   52.2010   30.7325 F         1 UNK         0.0000 
     28 H28         2.2424   53.8205   26.5511 H         1 UNK         0.0000 
     29 H29         0.8339   52.9617   28.3909 H         1 UNK         0.0000 
     30 H30         4.3045   52.4936   30.8520 H         1 UNK         0.0000 
     31 H31         5.7288   53.3499   29.0195 H         1 UNK         0.0000 
     32 H32         6.9502   54.6919   27.3567 H         1 UNK         0.0000 
     33 H33         7.5048   55.1473   24.7497 H         1 UNK         0.0000 
     34 H34         4.0688   54.2680   22.8123 H         1 UNK         0.0000 
     35 H35         4.5112   54.7952   20.8334 H         1 UNK         0.0000 
     36 H36         5.3742   59.1823   16.8815 H         1 UNK         0.0000 
     37 H37         3.9031   58.8506   16.0770 H         1 UNK         0.0000 
@<TRIPOS>BOND
     1    1    6 ar   
     2    1    2 ar   
     3    1   28 1    
     4    2    3 ar   
     5    2   29 1    
     6    3    4 ar   
     7    3   27 1    
     8    4    5 ar   
     9    4   30 1    
    10    5    6 ar   
    11    5   31 1    
    12    6    7 1    
    13    7   11 1    
    14    7    8 2    
    15    8    9 1    
    16    8   32 1    
    17    9   10 2    
    18    9   33 1    
    19   10   11 1    
    20   10   12 1    
    21   12   13 2    
    22   12   34 1    
    23   13   14 1    
    24   14   15 am   BACKBONE|DICT|INTERRES
    25   14   35 1    
    26   15   16 2    
    27   15   17 1    
    28   17   22 ar   
    29   17   18 ar   
    30   18   19 ar   
    31   18   26 1    
    32   19   20 ar   
    33   19   25 1    
    34   20   21 ar   
    35   20   24 1    
    36   21   22 ar   
    37   21   23 1    
    38   25   36 1    
    39   25   37 1    
@<TRIPOS>SUBSTRUCTURE
     1 UNK         1 GROUP             0       ****    0 ROOT    
