@<TRIPOS>MOLECULE
ZINC33260009_3385
65   67    1
SMALL
USER_CHARGES


@<TRIPOS>ATOM
      1 C1          6.7074   54.8507   22.9692 C.3       1 UNK         0.0000 
      2 C2          5.8582   54.5323   24.1868 C.ar      1 UNK         0.0000 
      3 C3          4.4898   54.3375   24.0602 C.ar      1 UNK         0.0000 
      4 C4          3.6823   54.1045   25.1777 C.ar      1 UNK         0.0000 
      5 C5          4.2527   54.0876   26.4784 C.ar      1 UNK         0.0000 
      6 C6          5.6608   54.2126   26.5838 C.ar      1 UNK         0.0000 
      7 C7          6.4362   54.4481   25.4451 C.ar      1 UNK         0.0000 
      8 C8          6.4180   54.0572   27.8915 C.3       1 UNK         0.0000 
      9 S9          3.2013   54.0468   27.9818 S.o2      1 UNK         0.0000 
     10 O10         1.9393   54.7278   27.6821 O.2       1 UNK         0.0000 
     11 O11         3.9695   54.5056   29.1431 O.2       1 UNK         0.0000 
     12 N12         2.8184   52.3490   28.2822 N.pl3     1 UNK         0.0000 
     13 C13         1.4688   51.9876   28.3825 C.ar      1 UNK         0.0000 
     14 C14         0.8818   51.4224   27.2582 C.ar      1 UNK         0.0000 
     15 C15        -0.4897   51.1918   27.2013 C.ar      1 UNK         0.0000 
     16 C16        -1.3074   51.4900   28.2942 C.ar      1 UNK         0.0000 
     17 C17        -0.6977   51.9790   29.4571 C.ar      1 UNK         0.0000 
     18 C18         0.6790   52.2356   29.5215 C.ar      1 UNK         0.0000 
     19 C19         1.2552   52.7589   30.7933 C.2       1 UNK         0.0000 
     20 O20         0.6424   53.6989   31.3473 O.co2     1 UNK         0.0000 
     21 O21         2.3070   52.2217   31.2176 O.co2     1 UNK         0.0000 
     22 N22        -2.6851   51.2966   28.2351 N.pl3     1 UNK         0.0000 
     23 C23        -3.4886   50.7626   29.3495 C.3       1 UNK         0.0000 
     24 C24        -4.3587   49.5313   28.9910 C.3       1 UNK         0.0000 
     25 N25        -5.1433   49.7341   27.7646 N.3       1 UNK         0.0000 
     26 C26        -4.2151   50.0817   26.6793 C.3       1 UNK         0.0000 
     27 C27        -3.4966   51.4038   27.0141 C.3       1 UNK         0.0000 
     28 C28        -5.9105   48.5086   27.4665 C.3       1 UNK         0.0000 
     29 C29        -7.0525   48.7193   26.4292 C.2       1 UNK         0.0000 
     30 O30        -7.2967   49.8488   25.9917 O.2       1 UNK         0.0000 
     31 N31        -7.7693   47.6348   26.0295 N.am      1 UNK         0.0000 
     32 C32        -8.8473   47.7342   25.0395 C.3       1 UNK         0.0000 
     33 C33        -7.5738   46.2690   26.5226 C.3       1 UNK         0.0000 
     34 C34         2.2173   53.8148   24.8786 C.3       1 UNK         0.0000 
     35 H35         7.5031   55.5555   23.2184 H         1 UNK         0.0000 
     36 H36         7.1680   53.9483   22.5733 H         1 UNK         0.0000 
     37 H37         6.1134   55.3156   22.1824 H         1 UNK         0.0000 
     38 H38         4.0512   54.3734   23.0723 H         1 UNK         0.0000 
     39 H39         7.5046   54.5591   25.5313 H         1 UNK         0.0000 
     40 H40         7.4815   53.8702   27.7384 H         1 UNK         0.0000 
     41 H41         6.3046   54.9595   28.4868 H         1 UNK         0.0000 
     42 H42         6.0365   53.2070   28.4584 H         1 UNK         0.0000 
     43 H43         3.3255   51.7665   27.6344 H         1 UNK         0.0000 
     44 H44         1.4949   51.1963   26.4050 H         1 UNK         0.0000 
     45 H45        -0.9060   50.7624   26.3030 H         1 UNK         0.0000 
     46 H46        -1.2956   52.1726   30.3342 H         1 UNK         0.0000 
     47 H47        -2.8594   50.5012   30.2012 H         1 UNK         0.0000 
     48 H48        -4.1417   51.5678   29.6819 H         1 UNK         0.0000 
     49 H49        -5.0124   49.3123   29.8371 H         1 UNK         0.0000 
     50 H50        -3.6959   48.6763   28.8502 H         1 UNK         0.0000 
     51 H51        -3.4849   49.2871   26.5089 H         1 UNK         0.0000 
     52 H52        -4.7666   50.2300   25.7504 H         1 UNK         0.0000 
     53 H53        -2.8773   51.6973   26.1672 H         1 UNK         0.0000 
     54 H54        -4.2131   52.2176   27.1363 H         1 UNK         0.0000 
     55 H55        -6.3877   48.1483   28.3810 H         1 UNK         0.0000 
     56 H56        -5.2329   47.7220   27.1227 H         1 UNK         0.0000 
     57 H57        -9.0089   48.7515   24.6803 H         1 UNK         0.0000 
     58 H58        -9.7864   47.3839   25.4685 H         1 UNK         0.0000 
     59 H59        -8.6236   47.1090   24.1749 H         1 UNK         0.0000 
     60 H60        -6.8003   46.1692   27.2834 H         1 UNK         0.0000 
     61 H61        -8.5019   45.8957   26.9584 H         1 UNK         0.0000 
     62 H62        -7.3096   45.6079   25.6962 H         1 UNK         0.0000 
     63 H63         1.9926   53.8517   23.8128 H         1 UNK         0.0000 
     64 H64         1.9769   52.8143   25.2116 H         1 UNK         0.0000 
     65 H65         1.5263   54.4965   25.3572 H         1 UNK         0.0000 
@<TRIPOS>BOND
     1    1    2 1    
     2    1   35 1    
     3    1   36 1    
     4    1   37 1    
     5    2    7 ar   
     6    2    3 ar   
     7    3    4 ar   
     8    3   38 1    
     9    4    5 ar   
    10    4   34 1    
    11    5    6 ar   
    12    5    9 1    
    13    6    7 ar   
    14    6    8 1    
    15    7   39 1    
    16    8   40 1    
    17    8   41 1    
    18    8   42 1    
    19    9   10 2    
    20    9   11 2    
    21    9   12 1    
    22   12   13 1    
    23   12   43 1    
    24   13   18 ar   
    25   13   14 ar   
    26   14   15 ar   
    27   14   44 1    
    28   15   16 ar   
    29   15   45 1    
    30   16   17 ar   
    31   16   22 1    
    32   17   18 ar   
    33   17   46 1    
    34   18   19 1    
    35   19   20 2    
    36   19   21 1    
    37   22   27 1    
    38   22   23 1    
    39   23   24 1    
    40   23   47 1    
    41   23   48 1    
    42   24   25 1    
    43   24   49 1    
    44   24   50 1    
    45   25   26 1    
    46   25   28 1    
    47   26   27 1    
    48   26   51 1    
    49   26   52 1    
    50   27   53 1    
    51   27   54 1    
    52   28   29 1    
    53   28   55 1    
    54   28   56 1    
    55   29   30 2    
    56   29   31 am   BACKBONE|DICT|INTERRES
    57   31   32 1    
    58   31   33 1    
    59   32   57 1    
    60   32   58 1    
    61   32   59 1    
    62   33   60 1    
    63   33   61 1    
    64   33   62 1    
    65   34   63 1    
    66   34   64 1    
    67   34   65 1    
@<TRIPOS>SUBSTRUCTURE
     1 UNK         1 GROUP             0       ****    0 ROOT    
