@<TRIPOS>MOLECULE
ZINC52607219_797
66   71    1
SMALL
USER_CHARGES


@<TRIPOS>ATOM
      1 C1          5.6761   54.6236   24.2936 C.3       1 UNK         0.0000 
      2 C2          5.2713   53.6821   23.1482 C.3       1 UNK         0.0000 
      3 C3          4.8387   54.3971   21.8515 C.3       1 UNK         0.0000 
      4 H4          3.9597   55.0219   22.0012 H         1 UNK         0.0000 
      5 N5          5.9066   55.2030   21.2582 N.pl3     1 UNK         0.0000 
      6 C6          6.2482   54.7157   20.0004 C.ar      1 UNK         0.0000 
      7 C7          7.2176   55.1372   19.0812 C.ar      1 UNK         0.0000 
      8 C8          7.3467   54.4162   17.8857 C.ar      1 UNK         0.0000 
      9 C9          6.5406   53.2912   17.6563 C.ar      1 UNK         0.0000 
     10 N10         5.6464   52.8968   18.5951 N.pl3     1 UNK         0.0000 
     11 C11         5.4703   53.6073   19.7298 C.ar      1 UNK         0.0000 
     12 N12         4.5674   53.3942   20.7888 N.pl3     1 UNK         0.0000 
     13 C13         3.2780   52.6921   20.5915 C.3       1 UNK         0.0000 
     14 C14         2.3941   52.4309   21.8098 C.ar      1 UNK         0.0000 
     15 C15         1.7896   53.4909   22.4947 C.ar      1 UNK         0.0000 
     16 C16         0.9223   53.2585   23.5605 C.ar      1 UNK         0.0000 
     17 C17         0.6360   51.9500   23.9416 C.ar      1 UNK         0.0000 
     18 C18         1.2187   50.8812   23.2531 C.ar      1 UNK         0.0000 
     19 C19         2.0973   51.1185   22.1923 C.ar      1 UNK         0.0000 
     20 C20         0.7024   49.5765   23.7834 C.3       1 UNK         0.0000 
     21 C21        -0.0182   50.0239   25.0379 C.3       1 UNK         0.0000 
     22 N22        -0.3301   51.4296   24.8115 N.pl3     1 UNK         0.0000 
     23 C23        -0.8505   52.0821   26.0249 C.3       1 UNK         0.0000 
     24 H24        -1.0420   53.0931   25.6692 H         1 UNK         0.0000 
     25 C25        -2.2787   51.6201   26.3914 C.ar      1 UNK         0.0000 
     26 C26        -2.6629   51.2967   27.7012 C.ar      1 UNK         0.0000 
     27 C27        -3.9656   50.8953   27.9814 C.ar      1 UNK         0.0000 
     28 C28        -4.9042   50.8358   26.9564 C.ar      1 UNK         0.0000 
     29 C29        -4.5505   51.1761   25.6547 C.ar      1 UNK         0.0000 
     30 C30        -3.2443   51.5679   25.3768 C.ar      1 UNK         0.0000 
     31 C31         0.2093   52.2112   27.1280 C.ar      1 UNK         0.0000 
     32 N32         1.1045   53.1699   27.1997 N.2       1 UNK         0.0000 
     33 N33         1.8958   52.8767   28.3060 N.2       1 UNK         0.0000 
     34 N34         1.4808   51.6960   28.8835 N.2       1 UNK         0.0000 
     35 N35         0.4592   51.2978   28.1218 N.pl3     1 UNK         0.0000 
     36 C36         6.6666   52.4571   16.3974 C.3       1 UNK         0.0000 
     37 C37         8.1439   56.3071   19.3601 C.3       1 UNK         0.0000 
     38 H38         5.9369   54.0518   25.1852 H         1 UNK         0.0000 
     39 H39         6.5419   55.2328   24.0294 H         1 UNK         0.0000 
     40 H40         4.8597   55.2923   24.5622 H         1 UNK         0.0000 
     41 H41         4.4477   53.0651   23.4985 H         1 UNK         0.0000 
     42 H42         6.0965   52.9995   22.9383 H         1 UNK         0.0000 
     43 H43         6.3408   55.8767   21.8705 H         1 UNK         0.0000 
     44 H44         8.0812   54.7104   17.1491 H         1 UNK         0.0000 
     45 H45         2.7123   53.2963   19.8810 H         1 UNK         0.0000 
     46 H46         3.5138   51.7527   20.0869 H         1 UNK         0.0000 
     47 H47         1.9502   54.5054   22.1751 H         1 UNK         0.0000 
     48 H48         0.4392   54.0946   24.0435 H         1 UNK         0.0000 
     49 H49         2.5291   50.2900   21.6481 H         1 UNK         0.0000 
     50 H50         0.0183   49.0894   23.0878 H         1 UNK         0.0000 
     51 H51         1.5043   48.8968   24.0356 H         1 UNK         0.0000 
     52 H52         0.6148   49.8738   25.9143 H         1 UNK         0.0000 
     53 H53        -0.9280   49.4479   25.2153 H         1 UNK         0.0000 
     54 H54        -1.9778   51.3460   28.5294 H         1 UNK         0.0000 
     55 H55        -4.2417   50.6279   28.9920 H         1 UNK         0.0000 
     56 H56        -5.9162   50.5250   27.1716 H         1 UNK         0.0000 
     57 H57        -5.2834   51.1325   24.8623 H         1 UNK         0.0000 
     58 H58        -2.9806   51.8269   24.3616 H         1 UNK         0.0000 
     59 H59         7.2987   52.9397   15.6521 H         1 UNK         0.0000 
     60 H60         7.1050   51.4869   16.6295 H         1 UNK         0.0000 
     61 H61         5.6856   52.2861   15.9481 H         1 UNK         0.0000 
     62 H62         7.6028   57.2493   19.2735 H         1 UNK         0.0000 
     63 H63         9.0024   56.3203   18.6875 H         1 UNK         0.0000 
     64 H64         8.5395   56.2341   20.3733 H         1 UNK         0.0000 
     65 H65         5.1657   52.0049   18.4395 H         1 UNK         0.0000 
     66 H66        -0.0575   50.4413   28.2852 H         1 UNK         0.0000 
@<TRIPOS>BOND
     1    1    2 1    
     2    1   38 1    
     3    1   39 1    
     4    1   40 1    
     5    2    3 1    
     6    2   41 1    
     7    2   42 1    
     8    3    4 1    
     9    3   12 1    
    10    3    5 1    
    11    5    6 1    
    12    5   43 1    
    13    6   11 ar   
    14    6    7 ar   
    15    7    8 ar   
    16    7   37 1    
    17    8    9 ar   
    18    8   44 1    
    19    9   10 ar   
    20    9   36 1    
    21   10   11 ar   
    22   10   65 1    
    23   11   12 1    
    24   12   13 1    
    25   13   14 1    
    26   13   45 1    
    27   13   46 1    
    28   14   19 ar   
    29   14   15 ar   
    30   15   16 ar   
    31   15   47 1    
    32   16   17 ar   
    33   16   48 1    
    34   17   22 1    
    35   17   18 ar   
    36   18   19 ar   
    37   18   20 1    
    38   19   49 1    
    39   20   21 1    
    40   20   50 1    
    41   20   51 1    
    42   21   22 1    
    43   21   52 1    
    44   21   53 1    
    45   22   23 1    
    46   23   24 1    
    47   23   25 1    
    48   23   31 1    
    49   25   30 ar   
    50   25   26 ar   
    51   26   27 ar   
    52   26   54 1    
    53   27   28 ar   
    54   27   55 1    
    55   28   29 ar   
    56   28   56 1    
    57   29   30 ar   
    58   29   57 1    
    59   30   58 1    
    60   31   32 ar   
    61   31   35 ar   
    62   32   33 ar   
    63   33   34 ar   
    64   34   35 ar   
    65   35   66 1    
    66   36   59 1    
    67   36   60 1    
    68   36   61 1    
    69   37   62 1    
    70   37   63 1    
    71   37   64 1    
@<TRIPOS>SUBSTRUCTURE
     1 UNK         1 GROUP             0       ****    0 ROOT    
