@<TRIPOS>MOLECULE
ZINC15728475_2094
49   51    1
SMALL
USER_CHARGES


@<TRIPOS>ATOM
      1 C1          3.4319   53.3230   21.5219 C.3       1 UNK         0.0000 
      2 C2          4.5379   53.8843   22.3997 C.ar      1 UNK         0.0000 
      3 C3          4.4300   53.7553   23.7869 C.ar      1 UNK         0.0000 
      4 C4          5.4421   54.2065   24.6406 C.ar      1 UNK         0.0000 
      5 C5          6.5915   54.7810   24.0726 C.ar      1 UNK         0.0000 
      6 C6          6.7025   54.9206   22.6907 C.ar      1 UNK         0.0000 
      7 C7          5.6726   54.4974   21.8521 C.ar      1 UNK         0.0000 
      8 Br8         5.8493   54.8025   19.9764 Br        1 UNK         0.0000 
      9 N9          5.2273   54.0144   26.0229 N.am      1 UNK         0.0000 
     10 C10         6.0200   54.3271   27.0708 C.2       1 UNK         0.0000 
     11 O11         7.1033   54.8955   26.9593 O.2       1 UNK         0.0000 
     12 C12         5.5691   53.9283   28.4950 C.3       1 UNK         0.0000 
     13 N13         4.2866   53.1997   28.5746 N.pl3     1 UNK         0.0000 
     14 C14         4.2908   52.0580   29.5194 C.3       1 UNK         0.0000 
     15 S15         2.7868   54.1457   28.6657 S.o2      1 UNK         0.0000 
     16 O16         2.4679   54.3577   30.0816 O.2       1 UNK         0.0000 
     17 O17         2.9087   55.2842   27.7553 O.2       1 UNK         0.0000 
     18 C18         1.5222   53.0948   27.9618 C.ar      1 UNK         0.0000 
     19 C19         0.5593   52.4789   28.7621 C.ar      1 UNK         0.0000 
     20 C20        -0.4311   51.6967   28.1699 C.ar      1 UNK         0.0000 
     21 C21        -0.4602   51.5033   26.7860 C.ar      1 UNK         0.0000 
     22 C22         0.5372   52.0947   25.9697 C.ar      1 UNK         0.0000 
     23 C23         1.5026   52.8972   26.5820 C.ar      1 UNK         0.0000 
     24 N24         0.6082   51.8593   24.5823 N.am      1 UNK         0.0000 
     25 C25         0.4704   50.7151   23.8762 C.2       1 UNK         0.0000 
     26 O26         0.3469   50.6968   22.6547 O.2       1 UNK         0.0000 
     27 C27         0.4152   49.4333   24.7305 C.3       1 UNK         0.0000 
     28 C28        -0.9756   49.1429   25.3361 C.3       1 UNK         0.0000 
     29 S29        -1.8090   50.5852   26.0812 S.3       1 UNK         0.0000 
     30 H30         2.9140   52.4957   22.0113 H         1 UNK         0.0000 
     31 H31         3.8300   52.9164   20.5905 H         1 UNK         0.0000 
     32 H32         2.7050   54.0964   21.2827 H         1 UNK         0.0000 
     33 H33         3.5484   53.2878   24.1949 H         1 UNK         0.0000 
     34 H34         7.4191   55.1318   24.6646 H         1 UNK         0.0000 
     35 H35         7.5874   55.3798   22.2716 H         1 UNK         0.0000 
     36 H36         4.3718   53.5408   26.2619 H         1 UNK         0.0000 
     37 H37         6.3842   53.3143   28.8814 H         1 UNK         0.0000 
     38 H38         5.5473   54.8168   29.1289 H         1 UNK         0.0000 
     39 H39         5.1043   51.3771   29.2814 H         1 UNK         0.0000 
     40 H40         4.4295   52.4192   30.5392 H         1 UNK         0.0000 
     41 H41         3.3501   51.5116   29.4499 H         1 UNK         0.0000 
     42 H42         0.5616   52.6150   29.8340 H         1 UNK         0.0000 
     43 H43        -1.1858   51.2332   28.7905 H         1 UNK         0.0000 
     44 H44         2.2559   53.3741   25.9761 H         1 UNK         0.0000 
     45 H45         0.6188   52.6766   23.9909 H         1 UNK         0.0000 
     46 H46         1.1041   49.5790   25.5629 H         1 UNK         0.0000 
     47 H47         0.7623   48.5945   24.1261 H         1 UNK         0.0000 
     48 H48        -0.8957   48.3485   26.0813 H         1 UNK         0.0000 
     49 H49        -1.6418   48.7467   24.5698 H         1 UNK         0.0000 
@<TRIPOS>BOND
     1    1    2 1    
     2    1   30 1    
     3    1   31 1    
     4    1   32 1    
     5    2    7 ar   
     6    2    3 ar   
     7    3    4 ar   
     8    3   33 1    
     9    4    5 ar   
    10    4    9 1    
    11    5    6 ar   
    12    5   34 1    
    13    6    7 ar   
    14    6   35 1    
    15    7    8 1    
    16    9   10 am   BACKBONE|DICT|INTERRES
    17    9   36 1    
    18   10   11 2    
    19   10   12 1    
    20   12   13 1    
    21   12   37 1    
    22   12   38 1    
    23   13   14 1    
    24   13   15 1    
    25   14   39 1    
    26   14   40 1    
    27   14   41 1    
    28   15   16 2    
    29   15   17 2    
    30   15   18 1    
    31   18   23 ar   
    32   18   19 ar   
    33   19   20 ar   
    34   19   42 1    
    35   20   21 ar   
    36   20   43 1    
    37   21   29 1    
    38   21   22 ar   
    39   22   23 ar   
    40   22   24 1    
    41   23   44 1    
    42   24   25 am   BACKBONE|DICT|INTERRES
    43   24   45 1    
    44   25   26 2    
    45   25   27 1    
    46   27   28 1    
    47   27   46 1    
    48   27   47 1    
    49   28   29 1    
    50   28   48 1    
    51   28   49 1    
@<TRIPOS>SUBSTRUCTURE
     1 UNK         1 GROUP             0       ****    0 ROOT    
