@<TRIPOS>MOLECULE
ZINC20602324_2463
50   53    1
SMALL
USER_CHARGES


@<TRIPOS>ATOM
      1 C1          1.7877   52.8966   25.7845 C.ar      1 UNK         0.0000 
      2 C2          1.4949   52.7624   27.1397 C.ar      1 UNK         0.0000 
      3 C3          0.5398   51.8386   27.5523 C.ar      1 UNK         0.0000 
      4 C4         -0.1340   51.0562   26.6193 C.ar      1 UNK         0.0000 
      5 C5          0.1508   51.1980   25.2628 C.ar      1 UNK         0.0000 
      6 C6          1.1225   52.1106   24.8302 C.ar      1 UNK         0.0000 
      7 C7          1.4435   52.2226   23.3278 C.3       1 UNK         0.0000 
      8 H8          0.4845   52.5183   22.8979 H         1 UNK         0.0000 
      9 C9          1.8618   50.8538   22.7049 C.3       1 UNK         0.0000 
     10 C10         2.2178   50.9290   21.1918 C.3       1 UNK         0.0000 
     11 H11         2.7229   50.0018   20.9157 H         1 UNK         0.0000 
     12 N12         3.1897   52.0213   21.0851 N.pl3     1 UNK         0.0000 
     13 C13         3.2087   53.1577   21.8639 C.ar      1 UNK         0.0000 
     14 C14         4.2081   53.9442   21.3337 C.ar      1 UNK         0.0000 
     15 C15         4.7275   53.2500   20.2284 C.ar      1 UNK         0.0000 
     16 N16         4.0981   52.0962   20.0943 N.2       1 UNK         0.0000 
     17 C17         5.7762   53.7688   19.3700 C.2       1 UNK         0.0000 
     18 O18         6.1705   54.9298   19.5120 O.2       1 UNK         0.0000 
     19 N19         6.2921   52.8994   18.4694 N.am      1 UNK         0.0000 
     20 N20         7.3116   53.2505   17.6518 N.2       1 UNK         0.0000 
     21 C21         7.7386   52.2910   16.9313 C.2       1 UNK         0.0000 
     22 C22         8.8739   52.4170   16.0074 C.ar      1 UNK         0.0000 
     23 C23         9.5766   53.6234   15.8395 C.ar      1 UNK         0.0000 
     24 C24        10.6552   53.6700   14.9542 C.ar      1 UNK         0.0000 
     25 N25        11.0640   52.5949   14.2354 N.ar      1 UNK         0.0000 
     26 C26        10.3847   51.4317   14.3964 C.ar      1 UNK         0.0000 
     27 C27         9.2964   51.3041   15.2634 C.ar      1 UNK         0.0000 
     28 N28         2.3814   53.3021   22.9603 N.pl3     1 UNK         0.0000 
     29 C29         0.9616   51.0794   20.2708 C.3       1 UNK         0.0000 
     30 C30         1.2539   50.9643   18.7543 C.3       1 UNK         0.0000 
     31 F31         1.9811   51.9816   18.2991 F         1 UNK         0.0000 
     32 F32         1.9096   49.8399   18.4730 F         1 UNK         0.0000 
     33 F33         0.1259   50.9525   18.0444 F         1 UNK         0.0000 
     34 F34         0.0968   50.1138   20.5933 F         1 UNK         0.0000 
     35 F35         0.3291   52.2321   20.5079 F         1 UNK         0.0000 
     36 F36         0.2685   51.6999   28.8693 F         1 UNK         0.0000 
     37 H37         2.5456   53.6066   25.4889 H         1 UNK         0.0000 
     38 H38         2.0062   53.3662   27.8741 H         1 UNK         0.0000 
     39 H39        -0.8686   50.3342   26.9513 H         1 UNK         0.0000 
     40 H40        -0.3832   50.5846   24.5526 H         1 UNK         0.0000 
     41 H41         1.0565   50.1315   22.8429 H         1 UNK         0.0000 
     42 H42         2.6967   50.4155   23.2582 H         1 UNK         0.0000 
     43 H43         4.5255   54.9121   21.6920 H         1 UNK         0.0000 
     44 H44         5.9429   51.9442   18.3767 H         1 UNK         0.0000 
     45 H45         7.2966   51.2969   16.9583 H         1 UNK         0.0000 
     46 H46         9.2987   54.5133   16.3872 H         1 UNK         0.0000 
     47 H47        11.2138   54.5846   14.8131 H         1 UNK         0.0000 
     48 H48        10.7322   50.5897   13.8125 H         1 UNK         0.0000 
     49 H49         8.7976   50.3495   15.3504 H         1 UNK         0.0000 
     50 H50         2.0526   54.2193   23.2266 H         1 UNK         0.0000 
@<TRIPOS>BOND
     1    1    6 ar   
     2    1    2 ar   
     3    1   37 1    
     4    2    3 ar   
     5    2   38 1    
     6    3    4 ar   
     7    3   36 1    
     8    4    5 ar   
     9    4   39 1    
    10    5    6 ar   
    11    5   40 1    
    12    6    7 1    
    13    7    8 1    
    14    7   28 1    
    15    7    9 1    
    16    9   10 1    
    17    9   41 1    
    18    9   42 1    
    19   10   11 1    
    20   10   12 1    
    21   10   29 1    
    22   12   16 ar   
    23   12   13 ar   
    24   13   14 ar   
    25   13   28 1    
    26   14   15 ar   
    27   14   43 1    
    28   15   16 ar   
    29   15   17 1    
    30   17   18 2    
    31   17   19 am   BACKBONE|DICT|INTERRES
    32   19   20 1    
    33   19   44 1    
    34   20   21 2    
    35   21   22 1    
    36   21   45 1    
    37   22   27 ar   
    38   22   23 ar   
    39   23   24 ar   
    40   23   46 1    
    41   24   25 ar   
    42   24   47 1    
    43   25   26 ar   
    44   26   27 ar   
    45   26   48 1    
    46   27   49 1    
    47   28   50 1    
    48   29   30 1    
    49   29   34 1    
    50   29   35 1    
    51   30   31 1    
    52   30   32 1    
    53   30   33 1    
@<TRIPOS>SUBSTRUCTURE
     1 UNK         1 GROUP             0       ****    0 ROOT    
