@<TRIPOS>MOLECULE
ZINC33009242_2365
57   60    1
SMALL
USER_CHARGES


@<TRIPOS>ATOM
      1 C1          5.3180   58.7936   15.8432 C.3       1 UNK         0.0000 
      2 C2          5.3641   57.4220   16.4910 C.ar      1 UNK         0.0000 
      3 C3          5.0899   56.2747   15.7438 C.ar      1 UNK         0.0000 
      4 C4          5.1342   55.0188   16.3497 C.ar      1 UNK         0.0000 
      5 C5          5.4453   54.9032   17.7056 C.ar      1 UNK         0.0000 
      6 C6          5.7238   56.0480   18.4726 C.ar      1 UNK         0.0000 
      7 C7          5.6921   57.3024   17.8432 C.ar      1 UNK         0.0000 
      8 C8          6.0480   55.9653   19.9445 C.2       1 UNK         0.0000 
      9 O9          6.7051   56.8645   20.4842 O.2       1 UNK         0.0000 
     10 N10         5.5078   54.9112   20.6047 N.am      1 UNK         0.0000 
     11 C11         5.5534   54.6894   21.9895 C.ar      1 UNK         0.0000 
     12 C12         6.7041   54.9233   22.7402 C.ar      1 UNK         0.0000 
     13 C13         6.6871   54.7572   24.1180 C.ar      1 UNK         0.0000 
     14 C14         5.5341   54.3594   24.8036 C.ar      1 UNK         0.0000 
     15 C15         4.3665   54.0964   24.0391 C.ar      1 UNK         0.0000 
     16 C16         4.3969   54.2466   22.6365 C.ar      1 UNK         0.0000 
     17 N17         3.2077   53.6470   24.7045 N.am      1 UNK         0.0000 
     18 C18         1.9267   53.5824   24.3048 C.2       1 UNK         0.0000 
     19 O19         1.4787   54.0957   23.2820 O.2       1 UNK         0.0000 
     20 N20         1.2282   52.8412   25.1871 N.am      1 UNK         0.0000 
     21 C21        -0.1100   52.4094   25.1601 C.ar      1 UNK         0.0000 
     22 C22        -0.5174   51.6260   26.2450 C.ar      1 UNK         0.0000 
     23 C23        -1.8256   51.1513   26.3180 C.ar      1 UNK         0.0000 
     24 C24        -2.7290   51.4632   25.3058 C.ar      1 UNK         0.0000 
     25 C25        -2.3346   52.2365   24.2171 C.ar      1 UNK         0.0000 
     26 C26        -1.0254   52.7065   24.1382 C.ar      1 UNK         0.0000 
     27 F27        -3.9994   51.0057   25.3771 F         1 UNK         0.0000 
     28 N28         5.6276   54.2348   26.2121 N.pl3     1 UNK         0.0000 
     29 C29         6.8787   54.0561   26.9604 C.3       1 UNK         0.0000 
     30 C30         6.5147   53.5861   28.3609 C.3       1 UNK         0.0000 
     31 C31         5.1853   54.2590   28.5925 C.3       1 UNK         0.0000 
     32 C32         4.5518   54.1637   27.2100 C.3       1 UNK         0.0000 
     33 H33         6.1318   59.4206   16.2097 H         1 UNK         0.0000 
     34 H34         5.4255   58.7349   14.7610 H         1 UNK         0.0000 
     35 H35         4.3804   59.2966   16.0797 H         1 UNK         0.0000 
     36 H36         4.8448   56.3522   14.6947 H         1 UNK         0.0000 
     37 H37         4.9261   54.1330   15.7695 H         1 UNK         0.0000 
     38 H38         5.4715   53.9118   18.1403 H         1 UNK         0.0000 
     39 H39         5.9058   58.2021   18.4048 H         1 UNK         0.0000 
     40 H40         4.8807   54.3201   20.0793 H         1 UNK         0.0000 
     41 H41         7.6189   55.2523   22.2667 H         1 UNK         0.0000 
     42 H42         7.5936   54.9684   24.6574 H         1 UNK         0.0000 
     43 H43         3.5219   54.0433   22.0371 H         1 UNK         0.0000 
     44 H44         3.3858   53.3885   25.6622 H         1 UNK         0.0000 
     45 H45         1.7404   52.5061   25.9873 H         1 UNK         0.0000 
     46 H46         0.1717   51.3734   27.0390 H         1 UNK         0.0000 
     47 H47        -2.1346   50.5357   27.1527 H         1 UNK         0.0000 
     48 H48        -3.0449   52.4669   23.4377 H         1 UNK         0.0000 
     49 H49        -0.7472   53.2961   23.2834 H         1 UNK         0.0000 
     50 H50         7.4527   53.2603   26.4839 H         1 UNK         0.0000 
     51 H51         7.4869   54.9621   26.9962 H         1 UNK         0.0000 
     52 H52         6.4116   52.5000   28.3671 H         1 UNK         0.0000 
     53 H53         7.2681   53.8593   29.0986 H         1 UNK         0.0000 
     54 H54         5.3046   55.2957   28.9067 H         1 UNK         0.0000 
     55 H55         4.5907   53.7530   29.3537 H         1 UNK         0.0000 
     56 H56         3.8748   55.0053   27.0583 H         1 UNK         0.0000 
     57 H57         3.9888   53.2340   27.1260 H         1 UNK         0.0000 
@<TRIPOS>BOND
     1    1    2 1    
     2    1   33 1    
     3    1   34 1    
     4    1   35 1    
     5    2    7 ar   
     6    2    3 ar   
     7    3    4 ar   
     8    3   36 1    
     9    4    5 ar   
    10    4   37 1    
    11    5    6 ar   
    12    5   38 1    
    13    6    7 ar   
    14    6    8 1    
    15    7   39 1    
    16    8    9 2    
    17    8   10 am   BACKBONE|DICT|INTERRES
    18   10   11 1    
    19   10   40 1    
    20   11   16 ar   
    21   11   12 ar   
    22   12   13 ar   
    23   12   41 1    
    24   13   14 ar   
    25   13   42 1    
    26   14   15 ar   
    27   14   28 1    
    28   15   16 ar   
    29   15   17 1    
    30   16   43 1    
    31   17   18 am   BACKBONE|DICT|INTERRES
    32   17   44 1    
    33   18   19 2    
    34   18   20 am   BACKBONE|DICT|INTERRES
    35   20   21 1    
    36   20   45 1    
    37   21   26 ar   
    38   21   22 ar   
    39   22   23 ar   
    40   22   46 1    
    41   23   24 ar   
    42   23   47 1    
    43   24   25 ar   
    44   24   27 1    
    45   25   26 ar   
    46   25   48 1    
    47   26   49 1    
    48   28   32 1    
    49   28   29 1    
    50   29   30 1    
    51   29   50 1    
    52   29   51 1    
    53   30   31 1    
    54   30   52 1    
    55   30   53 1    
    56   31   32 1    
    57   31   54 1    
    58   31   55 1    
    59   32   56 1    
    60   32   57 1    
@<TRIPOS>SUBSTRUCTURE
     1 UNK         1 GROUP             0       ****    0 ROOT    
