ZINC12381406_4422
                    3D
 Schrodinger Suite 2024-2.
 66 69  0  0  1  0            999 V2000
    3.7995   51.7184   29.6904 C   0  0  0  0  0  0
    3.1288   53.1022   29.5271 C   0  0  0  0  0  0
    1.8197   53.0843   30.3555 C   0  0  0  0  0  0
    4.0785   54.1469   30.1509 C   0  0  0  0  0  0
    2.8432   53.4735   28.0190 C   0  0  2  0  0  0
    2.3452   54.4451   28.0327 H   0  0  0  0  0  0
    1.8987   52.4679   27.3108 C   0  0  0  0  0  0
    1.5240   52.8401   25.8641 C   0  0  0  0  0  0
    2.7102   53.4011   25.0758 C   0  0  0  0  0  0
    3.8674   53.8220   25.7255 C   0  0  0  0  0  0
    5.0439   54.4532   24.6390 S   0  0  0  0  0  0
    4.0370   54.0874   23.2603 C   0  0  0  0  0  0
    2.8334   53.4459   23.6532 C   0  0  0  0  0  0
    1.7256   53.0652   22.7756 C   0  0  0  0  0  0
    0.5837   53.2961   23.1771 O   0  0  0  0  0  0
    1.9535   52.5135   21.5429 N   0  0  0  0  0  0
    0.8169   52.3838   20.5970 C   0  0  0  0  0  0
    0.5438   50.8920   20.3295 C   0  0  0  0  0  0
    1.8142   50.2441   19.7462 C   0  0  0  0  0  0
    2.9783   50.4155   20.7380 C   0  0  0  0  0  0
    3.2251   51.8972   21.0996 C   0  0  0  0  0  0
    1.5924   48.7425   19.4537 C   0  0  0  0  0  0
    0.7764   48.0729   20.0828 O   0  0  0  0  0  0
    2.3045   48.1844   18.4808 N   0  0  0  0  0  0
    4.4241   54.4141   21.9571 N   0  0  0  0  0  0
    5.6237   54.8486   21.5017 C   0  0  0  0  0  0
    6.6051   55.0674   22.2142 O   0  0  0  0  0  0
    5.7352   55.0394   20.0010 C   0  0  0  0  0  0
    4.6261   54.8949   19.1463 C   0  0  0  0  0  0
    4.7639   55.0673   17.7725 C   0  0  0  0  0  0
    6.0083   55.3821   17.2362 C   0  0  0  0  0  0
    7.1173   55.5282   18.0644 C   0  0  0  0  0  0
    6.9796   55.3568   19.4384 C   0  0  0  0  0  0
    4.1560   53.6726   27.2042 C   0  0  0  0  0  0
    4.7800   51.6858   29.2153 H   0  0  0  0  0  0
    3.9636   51.4848   30.7433 H   0  0  0  0  0  0
    3.1903   50.9156   29.2815 H   0  0  0  0  0  0
    1.2791   54.0289   30.2838 H   0  0  0  0  0  0
    1.1402   52.2929   30.0406 H   0  0  0  0  0  0
    2.0131   52.8964   31.4120 H   0  0  0  0  0  0
    3.6467   55.1452   30.0815 H   0  0  0  0  0  0
    4.3044   53.9157   31.1900 H   0  0  0  0  0  0
    5.0566   54.1788   29.6763 H   0  0  0  0  0  0
    2.3056   51.4655   27.3363 H   0  0  0  0  0  0
    0.9695   52.3726   27.8683 H   0  0  0  0  0  0
    0.7339   53.5832   25.8665 H   0  0  0  0  0  0
    1.0956   51.9636   25.3760 H   0  0  0  0  0  0
    1.1146   52.8690   19.6672 H   0  0  0  0  0  0
   -0.0861   52.8970   20.9233 H   0  0  0  0  0  0
   -0.2764   50.8568   19.6111 H   0  0  0  0  0  0
    0.2444   50.4534   21.2855 H   0  0  0  0  0  0
    2.0507   50.7050   18.7843 H   0  0  0  0  0  0
    2.7971   49.8910   21.6783 H   0  0  0  0  0  0
    3.9085   50.0960   20.2771 H   0  0  0  0  0  0
    3.5679   52.4327   20.2144 H   0  0  0  0  0  0
    4.0067   51.9366   21.8565 H   0  0  0  0  0  0
    2.1701   47.2099   18.2788 H   0  0  0  0  0  0
    2.9680   48.7192   17.9165 H   0  0  0  0  0  0
    3.7265   54.2164   21.2554 H   0  0  0  0  0  0
    3.6419   54.6558   19.5219 H   0  0  0  0  0  0
    3.9070   54.9579   17.1247 H   0  0  0  0  0  0
    6.1138   55.5133   16.1684 H   0  0  0  0  0  0
    8.0809   55.7743   17.6402 H   0  0  0  0  0  0
    7.8595   55.4735   20.0601 H   0  0  0  0  0  0
    4.8196   52.8163   27.3289 H   0  0  0  0  0  0
    4.6995   54.5550   27.5437 H   0  0  0  0  0  0
  1  2  1  0  0  0
  1 35  1  0  0  0
  1 36  1  0  0  0
  1 37  1  0  0  0
  2  3  1  0  0  0
  2  4  1  0  0  0
  2  5  1  0  0  0
  3 38  1  0  0  0
  3 39  1  0  0  0
  3 40  1  0  0  0
  4 41  1  0  0  0
  4 42  1  0  0  0
  4 43  1  0  0  0
  5  6  1  0  0  0
  5 34  1  0  0  0
  5  7  1  0  0  0
  7  8  1  0  0  0
  7 44  1  0  0  0
  7 45  1  0  0  0
  8  9  1  0  0  0
  8 46  1  0  0  0
  8 47  1  0  0  0
  9 13  1  0  0  0
  9 10  2  0  0  0
 10 11  1  0  0  0
 10 34  1  0  0  0
 11 12  1  0  0  0
 12 13  2  0  0  0
 12 25  1  0  0  0
 13 14  1  0  0  0
 14 15  2  0  0  0
 14 16  1  0  0  0
 16 21  1  0  0  0
 16 17  1  0  0  0
 17 18  1  0  0  0
 17 48  1  0  0  0
 17 49  1  0  0  0
 18 19  1  0  0  0
 18 50  1  0  0  0
 18 51  1  0  0  0
 19 20  1  0  0  0
 19 22  1  0  0  0
 19 52  1  0  0  0
 20 21  1  0  0  0
 20 53  1  0  0  0
 20 54  1  0  0  0
 21 55  1  0  0  0
 21 56  1  0  0  0
 22 23  2  0  0  0
 22 24  1  0  0  0
 24 57  1  0  0  0
 24 58  1  0  0  0
 25 26  1  0  0  0
 25 59  1  0  0  0
 26 27  2  0  0  0
 26 28  1  0  0  0
 28 33  2  0  0  0
 28 29  1  0  0  0
 29 30  2  0  0  0
 29 60  1  0  0  0
 30 31  1  0  0  0
 30 61  1  0  0  0
 31 32  2  0  0  0
 31 62  1  0  0  0
 32 33  1  0  0  0
 32 63  1  0  0  0
 33 64  1  0  0  0
 34 65  1  0  0  0
 34 66  1  0  0  0
M  END
> <i_i_glide_confnum>
51

> <i_i_glide_lignum>
4423

> <i_i_glide_posenum>
181

> <i_i_glide_rotatable_bonds>
7

> <i_m_Source_File_Index>
5108

> <b_m_subgroup_collapsed>
0

> <r_i_docking_score>
-5.77795

> <r_i_glide_ecoul>
-6.08127

> <r_i_glide_eff_state_penalty>
0

> <r_i_glide_einternal>
4.27041

> <r_i_glide_emodel>
-59.6863

> <r_i_glide_energy>
-44.3148

> <r_i_glide_erotb>
0.461506

> <r_i_glide_esite>
-0.141357

> <r_i_glide_evdw>
-38.2335

> <r_i_glide_gscore>
-5.77795

> <r_i_glide_hbond>
-0.16

> <r_i_glide_ligand_efficiency>
-0.175089

> <r_i_glide_ligand_efficiency_ln>
-1.28499

> <r_i_glide_ligand_efficiency_sa>
-0.561605

> <r_i_glide_lipo>
-2.43102

> <r_i_glide_metal>
0

> <r_i_glide_rewards>
-0.683211

> <s_i_glide_gridfile>
wee1_glide-grid

> <s_m_Source_File>
wee1_decoys_glide_SP.sdf

> <s_m_Source_Path>
/Users/zhangxujun/Desktop

> <s_m_entry_id>
5383

> <s_m_entry_name>
wee1_decoys_glide_SP.5108

> <s_m_subgroup_title>
wee1_decoys_glide_SP

> <s_m_subgroupid>
wee1_decoys_glide_SP


$$$$
