@<TRIPOS>MOLECULE
ZINC38796911_739
54   57    1
SMALL
USER_CHARGES


@<TRIPOS>ATOM
      1 C1         -0.0970   53.7699   29.9439 C.3       1 UNK         0.0000 
      2 N2          0.3184   53.4087   28.5935 N.3       1 UNK         0.0000 
      3 C3          1.4393   54.1303   27.9532 C.3       1 UNK         0.0000 
      4 C4          2.7527   54.2420   28.7917 C.2       1 UNK         0.0000 
      5 O5          2.7046   54.2738   30.0205 O.2       1 UNK         0.0000 
      6 N6          3.9869   54.3136   28.2430 N.am      1 UNK         0.0000 
      7 C7          4.4872   54.3168   26.9229 C.ar      1 UNK         0.0000 
      8 C8          3.7228   54.5734   25.7765 C.ar      1 UNK         0.0000 
      9 C9          4.2855   54.4972   24.5031 C.ar      1 UNK         0.0000 
     10 C10         5.6508   54.2793   24.3584 C.ar      1 UNK         0.0000 
     11 C11         6.4393   54.0966   25.4891 C.ar      1 UNK         0.0000 
     12 C12         5.8647   54.0770   26.7615 C.ar      1 UNK         0.0000 
     13 Br13        7.0030   53.6967   28.2450 Br        1 UNK         0.0000 
     14 C14        -0.2106   52.0782   28.1340 C.3       1 UNK         0.0000 
     15 H15        -0.3331   51.5200   29.0645 H         1 UNK         0.0000 
     16 C16        -1.5803   51.9580   27.4819 C.ar      1 UNK         0.0000 
     17 C17        -2.5494   51.1419   28.0794 C.ar      1 UNK         0.0000 
     18 C18        -3.8091   50.9914   27.5080 C.ar      1 UNK         0.0000 
     19 C19        -4.1169   51.6699   26.3327 C.ar      1 UNK         0.0000 
     20 C20        -3.1738   52.4972   25.7304 C.ar      1 UNK         0.0000 
     21 C21        -1.9140   52.6402   26.3069 C.ar      1 UNK         0.0000 
     22 C22         0.8511   51.2179   27.4707 C.2       1 UNK         0.0000 
     23 O23         1.8986   50.9925   28.0817 O.2       1 UNK         0.0000 
     24 C24         0.6082   50.5952   26.1642 C.2       1 UNK         0.0000 
     25 C25         0.6958   51.0955   24.9111 C.2       1 UNK         0.0000 
     26 C26         0.9880   52.4418   24.3861 C.2       1 UNK         0.0000 
     27 C27         1.0727   52.6671   23.0596 C.2       1 UNK         0.0000 
     28 C28         0.8647   51.5419   22.1618 C.2       1 UNK         0.0000 
     29 C29         0.5907   50.2933   22.6233 C.2       1 UNK         0.0000 
     30 C30         0.5135   50.0471   23.9996 C.2       1 UNK         0.0000 
     31 N31         0.3042   48.9118   24.6258 N.pl3     1 UNK         0.0000 
     32 C32         0.3413   49.1108   26.0821 C.3       1 UNK         0.0000 
     33 H33        -0.0316   54.8451   30.1127 H         1 UNK         0.0000 
     34 H34        -1.1234   53.4542   30.0975 H         1 UNK         0.0000 
     35 H35         0.5140   53.2591   30.6889 H         1 UNK         0.0000 
     36 H36         1.6646   53.6262   27.0265 H         1 UNK         0.0000 
     37 H37         1.1119   55.1339   27.6816 H         1 UNK         0.0000 
     38 H38         4.7223   54.3374   28.9341 H         1 UNK         0.0000 
     39 H39         2.7044   54.8943   25.8338 H         1 UNK         0.0000 
     40 H40         3.6772   54.6839   23.6299 H         1 UNK         0.0000 
     41 H41         6.1005   54.2666   23.3756 H         1 UNK         0.0000 
     42 H42         7.4952   53.9266   25.3690 H         1 UNK         0.0000 
     43 H43        -2.3239   50.5891   28.9835 H         1 UNK         0.0000 
     44 H44        -4.5395   50.3435   27.9737 H         1 UNK         0.0000 
     45 H45        -5.0945   51.5515   25.8857 H         1 UNK         0.0000 
     46 H46        -3.4174   53.0251   24.8208 H         1 UNK         0.0000 
     47 H47        -1.2034   53.2917   25.8293 H         1 UNK         0.0000 
     48 H48         1.1221   53.2897   25.0341 H         1 UNK         0.0000 
     49 H49         1.2831   53.6531   22.6692 H         1 UNK         0.0000 
     50 H50         0.9335   51.7062   21.0948 H         1 UNK         0.0000 
     51 H51         0.4471   49.4978   21.9062 H         1 UNK         0.0000 
     52 H52        -0.6239   48.7995   26.4816 H         1 UNK         0.0000 
     53 H53         1.1433   48.4965   26.4924 H         1 UNK         0.0000 
     54 H54         0.1581   48.0105   24.1844 H         1 UNK         0.0000 
@<TRIPOS>BOND
     1    1    2 1    
     2    1   33 1    
     3    1   34 1    
     4    1   35 1    
     5    2    3 1    
     6    2   14 1    
     7    3    4 1    
     8    3   36 1    
     9    3   37 1    
    10    4    5 2    
    11    4    6 am   BACKBONE|DICT|INTERRES
    12    6    7 1    
    13    6   38 1    
    14    7   12 ar   
    15    7    8 ar   
    16    8    9 ar   
    17    8   39 1    
    18    9   10 ar   
    19    9   40 1    
    20   10   11 ar   
    21   10   41 1    
    22   11   12 ar   
    23   11   42 1    
    24   12   13 1    
    25   14   15 1    
    26   14   16 1    
    27   14   22 1    
    28   16   21 ar   
    29   16   17 ar   
    30   17   18 ar   
    31   17   43 1    
    32   18   19 ar   
    33   18   44 1    
    34   19   20 ar   
    35   19   45 1    
    36   20   21 ar   
    37   20   46 1    
    38   21   47 1    
    39   22   23 2    
    40   22   24 1    
    41   24   32 1    
    42   24   25 2    
    43   25   30 1    
    44   25   26 1    
    45   26   27 2    
    46   26   48 1    
    47   27   28 1    
    48   27   49 1    
    49   28   29 2    
    50   28   50 1    
    51   29   30 1    
    52   29   51 1    
    53   30   31 2    
    54   31   32 1    
    55   31   54 1    
    56   32   52 1    
    57   32   53 1    
@<TRIPOS>SUBSTRUCTURE
     1 UNK         1 GROUP             0       ****    0 ROOT    
