ZINC31170046_3571
                    3D
 Schrodinger Suite 2024-2.
 49 52  0  0  1  0            999 V2000
   -4.8152   51.2499   27.7626 C   0  0  0  0  0  0
   -3.9342   52.1473   26.9040 C   0  0  0  0  0  0
   -2.5853   52.0962   26.8555 C   0  0  0  0  0  0
   -1.6443   51.1617   27.6062 C   0  0  0  0  0  0
   -0.5173   51.8937   28.3375 C   0  0  0  0  0  0
    0.4645   52.5174   27.5770 C   0  0  0  0  0  0
    1.5412   53.1468   28.1888 C   0  0  0  0  0  0
    1.6439   53.1712   29.5931 C   0  0  0  0  0  0
    0.6423   52.5840   30.3758 C   0  0  0  0  0  0
   -0.4230   51.9350   29.7373 C   0  0  0  0  0  0
   -1.3680   51.2967   30.4817 O   0  0  0  0  0  0
    0.7044   52.6406   31.7535 O   0  0  0  0  0  0
    2.7586   53.7003   30.2533 O   0  0  0  0  0  0
    3.7450   54.4348   29.4865 C   0  0  0  0  0  0
    3.8977   53.7852   28.1053 C   0  0  1  0  0  0
    4.1519   52.7303   28.2391 H   0  0  0  0  0  0
    2.5589   53.9322   27.4243 C   0  0  1  0  0  0
    2.2033   54.9665   27.4506 H   0  0  0  0  0  0
    2.7691   53.6005   26.0618 O   0  0  0  0  0  0
    4.0319   54.0966   25.8325 C   0  0  0  0  0  0
    4.7401   54.3345   27.0081 C   0  0  0  0  0  0
    6.0106   54.8966   26.9610 C   0  0  0  0  0  0
    6.5459   55.2111   25.7112 C   0  0  0  0  0  0
    5.8585   54.9143   24.5325 C   0  0  0  0  0  0
    4.5789   54.3547   24.5812 C   0  0  0  0  0  0
    3.8706   54.0960   23.4348 O   0  0  0  0  0  0
    6.4573   55.1931   23.3377 O   0  0  0  0  0  0
    7.2623   54.1238   22.8816 C   0  0  0  0  0  0
   -4.7093   53.1557   26.0721 C   0  0  0  0  0  0
   -5.4502   50.6354   27.1247 H   0  0  0  0  0  0
   -5.4570   51.8508   28.4058 H   0  0  0  0  0  0
   -4.2613   50.5730   28.4084 H   0  0  0  0  0  0
   -2.0793   52.7856   26.1950 H   0  0  0  0  0  0
   -2.1767   50.4985   28.2826 H   0  0  0  0  0  0
   -1.1905   50.4920   26.8746 H   0  0  0  0  0  0
    0.3954   52.5106   26.4980 H   0  0  0  0  0  0
   -1.2957   51.3066   31.4503 H   0  0  0  0  0  0
   -0.1080   52.3750   32.2117 H   0  0  0  0  0  0
    3.4342   55.4775   29.3925 H   0  0  0  0  0  0
    4.6960   54.4288   30.0203 H   0  0  0  0  0  0
    6.5765   55.0868   27.8616 H   0  0  0  0  0  0
    7.5044   55.6775   25.6253 H   0  0  0  0  0  0
    4.3485   54.3795   22.6514 H   0  0  0  0  0  0
    7.9033   54.4968   22.0818 H   0  0  0  0  0  0
    6.6250   53.3313   22.4879 H   0  0  0  0  0  0
    7.9038   53.6965   23.6554 H   0  0  0  0  0  0
   -4.0500   53.7902   25.4787 H   0  0  0  0  0  0
   -5.3011   53.8064   26.7159 H   0  0  0  0  0  0
   -5.3817   52.6432   25.3834 H   0  0  0  0  0  0
  1  2  1  0  0  0
  1 30  1  0  0  0
  1 31  1  0  0  0
  1 32  1  0  0  0
  2  3  2  0  0  0
  2 29  1  0  0  0
  3  4  1  0  0  0
  3 33  1  0  0  0
  4  5  1  0  0  0
  4 34  1  0  0  0
  4 35  1  0  0  0
  5 10  2  0  0  0
  5  6  1  0  0  0
  6  7  2  0  0  0
  6 36  1  0  0  0
  7 17  1  0  0  0
  7  8  1  0  0  0
  8  9  2  0  0  0
  8 13  1  0  0  0
  9 10  1  0  0  0
  9 12  1  0  0  0
 10 11  1  0  0  0
 11 37  1  0  0  0
 12 38  1  0  0  0
 13 14  1  0  0  0
 14 15  1  0  0  0
 14 39  1  0  0  0
 14 40  1  0  0  0
 15 16  1  0  0  0
 15 21  1  0  0  0
 15 17  1  0  0  0
 17 18  1  0  0  0
 17 19  1  0  0  0
 19 20  1  0  0  0
 20 25  2  0  0  0
 20 21  1  0  0  0
 21 22  2  0  0  0
 22 23  1  0  0  0
 22 41  1  0  0  0
 23 24  2  0  0  0
 23 42  1  0  0  0
 24 25  1  0  0  0
 24 27  1  0  0  0
 25 26  1  0  0  0
 26 43  1  0  0  0
 27 28  1  0  0  0
 28 44  1  0  0  0
 28 45  1  0  0  0
 28 46  1  0  0  0
 29 47  1  0  0  0
 29 48  1  0  0  0
 29 49  1  0  0  0
M  END
> <i_i_glide_confnum>
1

> <i_i_glide_lignum>
3572

> <i_i_glide_posenum>
4

> <i_i_glide_rotatable_bonds>
6

> <i_m_Source_File_Index>
2388

> <b_m_subgroup_collapsed>
0

> <r_i_docking_score>
-6.72971

> <r_i_glide_ecoul>
-9.29556

> <r_i_glide_eff_state_penalty>
0

> <r_i_glide_einternal>
2.37462

> <r_i_glide_emodel>
-64.2023

> <r_i_glide_energy>
-43.1466

> <r_i_glide_erotb>
0.281233

> <r_i_glide_esite>
0

> <r_i_glide_evdw>
-33.851

> <r_i_glide_gscore>
-6.72971

> <r_i_glide_hbond>
-0.288

> <r_i_glide_ligand_efficiency>
-0.249249

> <r_i_glide_ligand_efficiency_ln>
-1.56657

> <r_i_glide_ligand_efficiency_sa>
-0.747746

> <r_i_glide_lipo>
-2.66987

> <r_i_glide_metal>
0

> <r_i_glide_rewards>
-0.966192

> <s_i_glide_gridfile>
wee1_glide-grid

> <s_m_Source_File>
wee1_decoys_glide_SP.sdf

> <s_m_Source_Path>
/Users/zhangxujun/Desktop

> <s_m_entry_id>
2663

> <s_m_entry_name>
wee1_decoys_glide_SP.2388

> <s_m_subgroup_title>
wee1_decoys_glide_SP

> <s_m_subgroupid>
wee1_decoys_glide_SP


$$$$
