ZINC63820519_5018
                    3D
 Schrodinger Suite 2024-2.
 53 56  0  0  1  0            999 V2000
    4.1677   53.8706   21.5505 C   0  0  0  0  0  0
    5.3853   54.4951   21.0556 C   0  0  0  0  0  0
    6.3805   54.8957   21.8910 C   0  0  0  0  0  0
    6.2594   54.7145   23.2745 C   0  0  0  0  0  0
    7.1043   55.0025   24.2311 N   0  3  0  0  0  0
    6.4926   54.7296   25.5440 C   0  0  0  0  0  0
    5.1799   54.0966   25.1465 C   0  0  0  0  0  0
    5.0960   54.1441   23.8035 C   0  0  0  0  0  0
    4.0376   53.6991   22.8814 C   0  0  0  0  0  0
    4.2398   53.5227   26.1872 C   0  0  0  0  0  0
    3.6034   54.6042   27.0877 C   0  0  0  0  0  0
    2.3402   54.2167   27.8701 C   0  0  0  0  0  0
    1.9017   55.0141   28.7011 O   0  0  0  0  0  0
    1.7537   53.0380   27.5792 N   0  0  0  0  0  0
    0.6061   52.5203   28.1902 C   0  0  0  0  0  0
   -0.4928   52.2426   27.3691 C   0  0  0  0  0  0
   -1.6557   51.6965   27.9161 C   0  0  0  0  0  0
   -1.6953   51.3647   29.2704 C   0  0  0  0  0  0
   -0.6255   51.6968   30.0925 C   0  0  0  0  0  0
    0.5337   52.2575   29.5706 C   0  0  0  0  0  0
    1.5755   52.4977   30.4344 O   0  0  0  0  0  0
   -3.1179   51.4880   26.9091 S   0  0  0  0  0  0
   -4.2529   51.2919   27.8174 O   0  0  0  0  0  0
   -3.1266   52.5742   25.9236 O   0  0  0  0  0  0
   -2.8869   49.9588   26.0611 N   0  0  0  0  0  0
   -1.8639   49.8053   25.1222 C   0  0  0  0  0  0
   -1.0007   48.7229   25.2703 C   0  0  0  0  0  0
    0.0511   48.5478   24.3803 C   0  0  0  0  0  0
    0.2523   49.4657   23.3506 C   0  0  0  0  0  0
   -0.6277   50.5304   23.1773 C   0  0  0  0  0  0
   -1.6974   50.6927   24.0532 C   0  0  0  0  0  0
    1.6039   49.2964   22.2892 Cl  0  0  0  0  0  0
    3.3918   53.5559   20.8646 H   0  0  0  0  0  0
    5.4975   54.6383   19.9887 H   0  0  0  0  0  0
    7.2659   55.3436   21.4644 H   0  0  0  0  0  0
    7.1259   54.0490   26.1085 H   0  0  0  0  0  0
    6.3785   55.6808   26.0721 H   0  0  0  0  0  0
    3.1290   53.2356   23.2394 H   0  0  0  0  0  0
    3.4979   52.9118   25.6679 H   0  0  0  0  0  0
    4.8071   52.8323   26.8116 H   0  0  0  0  0  0
    4.3451   54.9556   27.8048 H   0  0  0  0  0  0
    3.3441   55.4627   26.4757 H   0  0  0  0  0  0
    2.1189   52.5037   26.8077 H   0  0  0  0  0  0
   -0.4571   52.4765   26.3140 H   0  0  0  0  0  0
   -2.5690   50.8966   29.7045 H   0  0  0  0  0  0
   -0.6970   51.4633   31.1454 H   0  0  0  0  0  0
    1.2969   52.4021   31.3484 H   0  0  0  0  0  0
   -3.0160   49.1753   26.6860 H   0  0  0  0  0  0
   -1.1285   48.0205   26.0817 H   0  0  0  0  0  0
    0.7044   47.7017   24.5136 H   0  0  0  0  0  0
   -0.4810   51.2276   22.3670 H   0  0  0  0  0  0
   -2.3824   51.5116   23.8961 H   0  0  0  0  0  0
    8.0517   55.3656   24.0812 H   0  0  0  0  0  0
  1  9  2  0  0  0
  1  2  1  0  0  0
  1 33  1  0  0  0
  2  3  2  0  0  0
  2 34  1  0  0  0
  3  4  1  0  0  0
  3 35  1  0  0  0
  4  8  1  0  0  0
  4  5  2  0  0  0
  5  6  1  0  0  0
  5 53  1  0  0  0
  6  7  1  0  0  0
  6 36  1  0  0  0
  6 37  1  0  0  0
  7  8  2  0  0  0
  7 10  1  0  0  0
  8  9  1  0  0  0
  9 38  1  0  0  0
 10 11  1  0  0  0
 10 39  1  0  0  0
 10 40  1  0  0  0
 11 12  1  0  0  0
 11 41  1  0  0  0
 11 42  1  0  0  0
 12 13  2  0  0  0
 12 14  1  0  0  0
 14 15  1  0  0  0
 14 43  1  0  0  0
 15 20  2  0  0  0
 15 16  1  0  0  0
 16 17  2  0  0  0
 16 44  1  0  0  0
 17 18  1  0  0  0
 17 22  1  0  0  0
 18 19  2  0  0  0
 18 45  1  0  0  0
 19 20  1  0  0  0
 19 46  1  0  0  0
 20 21  1  0  0  0
 21 47  1  0  0  0
 22 23  2  0  0  0
 22 24  2  0  0  0
 22 25  1  0  0  0
 25 26  1  0  0  0
 25 48  1  0  0  0
 26 31  2  0  0  0
 26 27  1  0  0  0
 27 28  2  0  0  0
 27 49  1  0  0  0
 28 29  1  0  0  0
 28 50  1  0  0  0
 29 30  2  0  0  0
 29 32  1  0  0  0
 30 31  1  0  0  0
 30 51  1  0  0  0
 31 52  1  0  0  0
M  CHG  1   5   1
M  END
> <i_i_glide_confnum>
191

> <i_i_glide_lignum>
5019

> <i_i_glide_posenum>
135

> <i_i_glide_rotatable_bonds>
9

> <i_m_Source_File_Index>
3973

> <b_m_subgroup_collapsed>
0

> <r_i_docking_score>
-5.81492

> <r_i_glide_ecoul>
-9.74629

> <r_i_glide_eff_state_penalty>
0

> <r_i_glide_einternal>
7.65359

> <r_i_glide_emodel>
-66.8485

> <r_i_glide_energy>
-48.7565

> <r_i_glide_erotb>
0.637812

> <r_i_glide_esite>
-0.140987

> <r_i_glide_evdw>
-39.0102

> <r_i_glide_gscore>
-5.81492

> <r_i_glide_hbond>
-0.000933283

> <r_i_glide_ligand_efficiency>
-0.181716

> <r_i_glide_ligand_efficiency_ln>
-1.30212

> <r_i_glide_ligand_efficiency_sa>
-0.576913

> <r_i_glide_lipo>
-2.46945

> <r_i_glide_metal>
0

> <r_i_glide_rewards>
-0.428909

> <s_i_glide_gridfile>
wee1_glide-grid

> <s_m_Source_File>
wee1_decoys_glide_SP.sdf

> <s_m_Source_Path>
/Users/zhangxujun/Desktop

> <s_m_entry_id>
4248

> <s_m_entry_name>
wee1_decoys_glide_SP.3973

> <s_m_subgroup_title>
wee1_decoys_glide_SP

> <s_m_subgroupid>
wee1_decoys_glide_SP


$$$$
