@<TRIPOS>MOLECULE
ZINC65074652_203
64   67    1
SMALL
USER_CHARGES


@<TRIPOS>ATOM
      1 C1          1.4392   51.8628   29.4125 C.3       1 UNK         0.0000 
      2 C2          1.6709   52.3300   27.9915 C.ar      1 UNK         0.0000 
      3 C3          2.8670   52.9251   27.6211 C.ar      1 UNK         0.0000 
      4 C4          3.1050   53.3070   26.2958 C.ar      1 UNK         0.0000 
      5 C5          2.1148   53.1026   25.2941 C.ar      1 UNK         0.0000 
      6 C6          0.8847   52.5145   25.7047 C.ar      1 UNK         0.0000 
      7 C7          0.6936   52.1243   27.0322 C.ar      1 UNK         0.0000 
      8 C8         -0.2970   52.2353   24.7859 C.3       1 UNK         0.0000 
      9 S9          2.3298   53.7528   23.5793 S.o2      1 UNK         0.0000 
     10 O10         3.6026   54.4736   23.4851 O.2       1 UNK         0.0000 
     11 O11         1.1044   54.4911   23.2817 O.2       1 UNK         0.0000 
     12 N12         2.4235   52.3491   22.4654 N.pl3     1 UNK         0.0000 
     13 C13         3.6835   52.0862   21.7207 C.3       1 UNK         0.0000 
     14 C14         3.5769   52.5596   20.2523 C.3       1 UNK         0.0000 
     15 C15         2.3865   51.8933   19.4933 C.3       1 UNK         0.0000 
     16 C16         1.0968   52.1705   20.3187 C.3       1 UNK         0.0000 
     17 C17         1.1988   51.8069   21.8165 C.3       1 UNK         0.0000 
     18 C18         2.2074   52.3824   18.0439 C.2       1 UNK         0.0000 
     19 N19         1.6098   51.6242   17.1135 N.pl3     1 UNK         0.0000 
     20 C20         1.3068   50.2004   17.2411 C.3       1 UNK         0.0000 
     21 C21         1.6622   49.6834   18.6461 C.3       1 UNK         0.0000 
     22 N22         2.7045   50.4687   19.2988 N.3       1 UNK         0.0000 
     23 N23         2.6323   53.6148   17.7326 N.pl3     1 UNK         0.0000 
     24 C24         2.5189   54.2747   16.4227 C.3       1 UNK         0.0000 
     25 C25         1.0982   54.7198   16.1140 C.ar      1 UNK         0.0000 
     26 C26         0.3694   54.1269   15.0784 C.ar      1 UNK         0.0000 
     27 C27        -0.9494   54.5176   14.8384 C.ar      1 UNK         0.0000 
     28 C28        -1.5480   55.4980   15.6320 C.ar      1 UNK         0.0000 
     29 C29        -0.8193   56.1012   16.6606 C.ar      1 UNK         0.0000 
     30 C30         0.5035   55.7223   16.8835 C.ar      1 UNK         0.0000 
     31 Cl31       -1.5421   57.2977   17.6766 Cl        1 UNK         0.0000 
     32 F32        -2.8336   55.8514   15.4020 F         1 UNK         0.0000 
     33 C33         4.4800   53.9088   26.0299 C.3       1 UNK         0.0000 
     34 H34         0.8093   52.5668   29.9571 H         1 UNK         0.0000 
     35 H35         0.9292   50.8998   29.3865 H         1 UNK         0.0000 
     36 H36         2.3761   51.7187   29.9505 H         1 UNK         0.0000 
     37 H37         3.6302   53.0734   28.3715 H         1 UNK         0.0000 
     38 H38        -0.2312   51.6492   27.3315 H         1 UNK         0.0000 
     39 H39        -1.2103   52.0419   25.3502 H         1 UNK         0.0000 
     40 H40        -0.5501   53.0743   24.1457 H         1 UNK         0.0000 
     41 H41        -0.0985   51.3488   24.1870 H         1 UNK         0.0000 
     42 H42         3.8881   51.0160   21.7659 H         1 UNK         0.0000 
     43 H43         4.5112   52.5856   22.2236 H         1 UNK         0.0000 
     44 H44         4.5139   52.3565   19.7305 H         1 UNK         0.0000 
     45 H45         3.4681   53.6451   20.2584 H         1 UNK         0.0000 
     46 H46         0.8517   53.2274   20.2476 H         1 UNK         0.0000 
     47 H47         0.2353   51.6738   19.8766 H         1 UNK         0.0000 
     48 H48         1.1718   50.7292   21.9795 H         1 UNK         0.0000 
     49 H49         0.3243   52.2265   22.3011 H         1 UNK         0.0000 
     50 H50         0.2562   50.0354   17.0029 H         1 UNK         0.0000 
     51 H51         1.9048   49.6894   16.4864 H         1 UNK         0.0000 
     52 H52         0.7721   49.6543   19.2743 H         1 UNK         0.0000 
     53 H53         2.0096   48.6524   18.5580 H         1 UNK         0.0000 
     54 H54         3.6017   50.3523   18.8088 H         1 UNK         0.0000 
     55 H55         3.0388   54.1520   18.4861 H         1 UNK         0.0000 
     56 H56         2.9054   53.5887   15.6678 H         1 UNK         0.0000 
     57 H57         3.1798   55.1420   16.4463 H         1 UNK         0.0000 
     58 H58         0.8157   53.3619   14.4593 H         1 UNK         0.0000 
     59 H59        -1.5127   54.0564   14.0404 H         1 UNK         0.0000 
     60 H60         1.0621   56.1889   17.6812 H         1 UNK         0.0000 
     61 H61         5.1528   53.8129   26.8830 H         1 UNK         0.0000 
     62 H62         4.9697   53.3923   25.2045 H         1 UNK         0.0000 
     63 H63         4.3976   54.9681   25.7859 H         1 UNK         0.0000 
     64 H64         1.4981   52.0492   16.2050 H         1 UNK         0.0000 
@<TRIPOS>BOND
     1    1    2 1    
     2    1   34 1    
     3    1   35 1    
     4    1   36 1    
     5    2    7 ar   
     6    2    3 ar   
     7    3    4 ar   
     8    3   37 1    
     9    4    5 ar   
    10    4   33 1    
    11    5    6 ar   
    12    5    9 1    
    13    6    7 ar   
    14    6    8 1    
    15    7   38 1    
    16    8   39 1    
    17    8   40 1    
    18    8   41 1    
    19    9   10 2    
    20    9   11 2    
    21    9   12 1    
    22   12   17 1    
    23   12   13 1    
    24   13   14 1    
    25   13   42 1    
    26   13   43 1    
    27   14   15 1    
    28   14   44 1    
    29   14   45 1    
    30   15   22 1    
    31   15   16 1    
    32   15   18 1    
    33   16   17 1    
    34   16   46 1    
    35   16   47 1    
    36   17   48 1    
    37   17   49 1    
    38   18   19 2    
    39   18   23 1    
    40   19   20 1    
    41   19   64 1    
    42   20   21 1    
    43   20   50 1    
    44   20   51 1    
    45   21   22 1    
    46   21   52 1    
    47   21   53 1    
    48   22   54 1    
    49   23   24 1    
    50   23   55 1    
    51   24   25 1    
    52   24   56 1    
    53   24   57 1    
    54   25   30 ar   
    55   25   26 ar   
    56   26   27 ar   
    57   26   58 1    
    58   27   28 ar   
    59   27   59 1    
    60   28   29 ar   
    61   28   32 1    
    62   29   30 ar   
    63   29   31 1    
    64   30   60 1    
    65   33   61 1    
    66   33   62 1    
    67   33   63 1    
@<TRIPOS>SUBSTRUCTURE
     1 UNK         1 GROUP             0       ****    0 ROOT    
