@<TRIPOS>MOLECULE
ZINC12378763_4387
42   44    1
SMALL
USER_CHARGES


@<TRIPOS>ATOM
      1 C1          6.7044   57.6010   18.9227 C.3       1 UNK         0.0000 
      2 C2          5.8613   56.8207   17.9077 C.2       1 UNK         0.0000 
      3 N3          5.4109   55.6345   18.0570 N.2       1 UNK         0.0000 
      4 N4          5.5044   55.0349   19.2843 N.pl3     1 UNK         0.0000 
      5 C5          5.2686   53.7224   19.4242 C.2       1 UNK         0.0000 
      6 N6          5.1364   52.8967   18.3869 N.pl3     1 UNK         0.0000 
      7 S7          5.1044   53.0221   21.0175 S.3       1 UNK         0.0000 
      8 C8          5.0333   54.4283   22.1854 C.3       1 UNK         0.0000 
      9 H9          4.4776   55.2288   21.6963 H         1 UNK         0.0000 
     10 C10         6.3715   54.8967   22.6799 C.3       1 UNK         0.0000 
     11 C11         6.2449   54.8967   24.1889 C.2       1 UNK         0.0000 
     12 O12         7.1044   55.3618   24.9361 O.2       1 UNK         0.0000 
     13 N13         5.0472   54.3450   24.5433 N.am      1 UNK         0.0000 
     14 C14         4.2758   54.0532   23.4498 C.2       1 UNK         0.0000 
     15 O15         3.1471   53.5598   23.4327 O.2       1 UNK         0.0000 
     16 C16         4.6671   54.0967   25.9042 C.ar      1 UNK         0.0000 
     17 C17         5.6288   53.7081   26.8567 C.ar      1 UNK         0.0000 
     18 C18         5.2724   53.4676   28.1771 C.ar      1 UNK         0.0000 
     19 C19         3.9451   53.5946   28.5706 C.ar      1 UNK         0.0000 
     20 C20         2.9718   53.9641   27.6472 C.ar      1 UNK         0.0000 
     21 C21         3.3303   54.2102   26.3239 C.ar      1 UNK         0.0000 
     22 Cl22        3.5044   53.2794   30.2086 Cl        1 UNK         0.0000 
     23 C23         5.5928   57.5094   16.6345 C.2       1 UNK         0.0000 
     24 C24         5.9717   58.8003   16.2543 C.2       1 UNK         0.0000 
     25 C25         5.5220   59.1717   14.9840 C.2       1 UNK         0.0000 
     26 C26         4.8063   58.1691   14.3536 C.2       1 UNK         0.0000 
     27 S27         4.6753   56.7560   15.3460 S.3       1 UNK         0.0000 
     28 Br28        4.0016   58.2153   12.6303 Br        1 UNK         0.0000 
     29 H29         6.2255   58.5468   19.1763 H         1 UNK         0.0000 
     30 H30         6.9039   57.0605   19.8455 H         1 UNK         0.0000 
     31 H31         7.6684   57.8612   18.4841 H         1 UNK         0.0000 
     32 H32         5.1748   53.2894   17.4573 H         1 UNK         0.0000 
     33 H33         5.1044   51.8705   18.4817 H         1 UNK         0.0000 
     34 H34         7.1971   54.2357   22.4178 H         1 UNK         0.0000 
     35 H35         6.6141   55.9050   22.3428 H         1 UNK         0.0000 
     36 H36         6.6647   53.5666   26.5856 H         1 UNK         0.0000 
     37 H37         6.0319   53.1715   28.8823 H         1 UNK         0.0000 
     38 H38         1.9397   54.0564   27.9527 H         1 UNK         0.0000 
     39 H39         2.5520   54.4967   25.6334 H         1 UNK         0.0000 
     40 H40         6.5354   59.4774   16.8806 H         1 UNK         0.0000 
     41 H41         5.7010   60.1469   14.5547 H         1 UNK         0.0000 
     42 H42         5.6833   55.6173   20.0881 H         1 UNK         0.0000 
@<TRIPOS>BOND
     1    1    2 1    
     2    1   29 1    
     3    1   30 1    
     4    1   31 1    
     5    2    3 2    
     6    2   23 1    
     7    3    4 1    
     8    4    5 2    
     9    4   42 1    
    10    5    6 1    
    11    5    7 1    
    12    6   32 1    
    13    6   33 1    
    14    7    8 1    
    15    8    9 1    
    16    8   14 1    
    17    8   10 1    
    18   10   11 1    
    19   10   34 1    
    20   10   35 1    
    21   11   12 2    
    22   11   13 am   BACKBONE|DICT|INTERRES
    23   13   14 am   BACKBONE|DICT|INTERRES
    24   13   16 1    
    25   14   15 2    
    26   16   21 ar   
    27   16   17 ar   
    28   17   18 ar   
    29   17   36 1    
    30   18   19 ar   
    31   18   37 1    
    32   19   20 ar   
    33   19   22 1    
    34   20   21 ar   
    35   20   38 1    
    36   21   39 1    
    37   23   27 1    
    38   23   24 2    
    39   24   25 1    
    40   24   40 1    
    41   25   26 2    
    42   25   41 1    
    43   26   27 1    
    44   26   28 1    
@<TRIPOS>SUBSTRUCTURE
     1 UNK         1 GROUP             0       ****    0 ROOT    
