@<TRIPOS>MOLECULE
ZINC63405723_1348
49   51    1
SMALL
USER_CHARGES


@<TRIPOS>ATOM
      1 C1         -0.7785   51.4474   25.9690 C.3       1 UNK         0.0000 
      2 C2          0.3542   51.4404   27.0157 C.3       1 UNK         0.0000 
      3 H3          1.0127   50.5846   26.8649 H         1 UNK         0.0000 
      4 C4          1.1299   52.7465   27.1570 C.2       1 UNK         0.0000 
      5 C5          0.9596   53.2189   28.4100 C.2       1 UNK         0.0000 
      6 C6          1.4191   54.4470   29.0788 C.2       1 UNK         0.0000 
      7 C7          1.0953   54.6949   30.3640 C.2       1 UNK         0.0000 
      8 C8          0.3057   53.6971   31.0784 C.2       1 UNK         0.0000 
      9 C9         -0.1120   52.5538   30.4779 C.2       1 UNK         0.0000 
     10 C10         0.1768   52.3090   29.1327 C.2       1 UNK         0.0000 
     11 N11        -0.1875   51.2968   28.3771 N.pl3     1 UNK         0.0000 
     12 C12         1.9046   53.2961   26.0378 C.2       1 UNK         0.0000 
     13 O13         1.4274   53.3822   24.9008 O.2       1 UNK         0.0000 
     14 C14         3.4277   53.6969   26.2708 C.2       1 UNK         0.0000 
     15 O15         3.9800   53.5521   27.3623 O.2       1 UNK         0.0000 
     16 N16         4.0079   54.1350   25.1359 N.am      1 UNK         0.0000 
     17 C17         5.4437   54.2592   24.8466 C.3       1 UNK         0.0000 
     18 H18         5.8945   53.2968   25.0866 H         1 UNK         0.0000 
     19 C19         6.1471   55.2968   25.7391 C.3       1 UNK         0.0000 
     20 C20         5.6970   54.4415   23.3344 C.ar      1 UNK         0.0000 
     21 C21         6.7044   55.2815   22.8369 C.ar      1 UNK         0.0000 
     22 C22         6.8331   55.5138   21.4683 C.ar      1 UNK         0.0000 
     23 C23         5.9707   54.8931   20.5670 C.ar      1 UNK         0.0000 
     24 C24         5.0094   53.9914   21.0288 C.ar      1 UNK         0.0000 
     25 C25         4.8687   53.7900   22.4099 C.ar      1 UNK         0.0000 
     26 N26         4.2044   53.3479   20.0720 N.am      1 UNK         0.0000 
     27 C27         3.5482   52.1741   20.1884 C.2       1 UNK         0.0000 
     28 O28         3.6034   51.4272   21.1669 O.2       1 UNK         0.0000 
     29 C29         2.7038   51.7685   18.9883 C.3       1 UNK         0.0000 
     30 H30        -0.3837   51.4903   24.9529 H         1 UNK         0.0000 
     31 H31        -1.3783   50.5357   26.0373 H         1 UNK         0.0000 
     32 H32        -1.4488   52.2986   26.0998 H         1 UNK         0.0000 
     33 H33         2.0123   55.1851   28.5554 H         1 UNK         0.0000 
     34 H34         1.4156   55.6031   30.8571 H         1 UNK         0.0000 
     35 H35         0.0593   53.8578   32.1199 H         1 UNK         0.0000 
     36 H36        -0.6860   51.8444   31.0609 H         1 UNK         0.0000 
     37 H37         3.4062   54.1843   24.3231 H         1 UNK         0.0000 
     38 H38         7.2294   55.2030   25.6691 H         1 UNK         0.0000 
     39 H39         5.8711   56.3089   25.4429 H         1 UNK         0.0000 
     40 H40         5.8945   55.1803   26.7938 H         1 UNK         0.0000 
     41 H41         7.3896   55.7885   23.4988 H         1 UNK         0.0000 
     42 H42         7.6131   56.1634   21.1026 H         1 UNK         0.0000 
     43 H43         6.0895   55.0784   19.5061 H         1 UNK         0.0000 
     44 H44         4.0953   53.1331   22.7766 H         1 UNK         0.0000 
     45 H45         4.1577   53.7947   19.1682 H         1 UNK         0.0000 
     46 H46         1.9105   52.4957   18.8201 H         1 UNK         0.0000 
     47 H47         3.3190   51.6980   18.0913 H         1 UNK         0.0000 
     48 H48         2.2485   50.7913   19.1556 H         1 UNK         0.0000 
     49 H49        -0.7633   50.5079   28.6725 H         1 UNK         0.0000 
@<TRIPOS>BOND
     1    1    2 1    
     2    1   30 1    
     3    1   31 1    
     4    1   32 1    
     5    2    3 1    
     6    2   11 1    
     7    2    4 1    
     8    4    5 2    
     9    4   12 1    
    10    5   10 1    
    11    5    6 1    
    12    6    7 2    
    13    6   33 1    
    14    7    8 1    
    15    7   34 1    
    16    8    9 2    
    17    8   35 1    
    18    9   10 1    
    19    9   36 1    
    20   10   11 2    
    21   11   49 1    
    22   12   13 2    
    23   12   14 1    
    24   14   15 2    
    25   14   16 am   BACKBONE|DICT|INTERRES
    26   16   17 1    
    27   16   37 1    
    28   17   18 1    
    29   17   19 1    
    30   17   20 1    
    31   19   38 1    
    32   19   39 1    
    33   19   40 1    
    34   20   25 ar   
    35   20   21 ar   
    36   21   22 ar   
    37   21   41 1    
    38   22   23 ar   
    39   22   42 1    
    40   23   24 ar   
    41   23   43 1    
    42   24   25 ar   
    43   24   26 1    
    44   25   44 1    
    45   26   27 am   BACKBONE|DICT|INTERRES
    46   26   45 1    
    47   27   28 2    
    48   27   29 1    
    49   29   46 1    
    50   29   47 1    
    51   29   48 1    
@<TRIPOS>SUBSTRUCTURE
     1 UNK         1 GROUP             0       ****    0 ROOT    
