ZINC39836511_1048
                    3D
 Schrodinger Suite 2024-2.
 72 75  0  0  1  0            999 V2000
    8.2964   58.6066   18.0762 C   0  0  0  0  0  0
    7.0747   57.7086   18.1234 C   0  0  0  0  0  0
    5.9021   58.0961   17.4716 C   0  0  0  0  0  0
    4.7734   57.2750   17.5080 C   0  0  0  0  0  0
    4.8165   56.0659   18.2130 C   0  0  0  0  0  0
    5.9875   55.6661   18.8812 C   0  0  0  0  0  0
    7.1112   56.4946   18.8188 C   0  0  0  0  0  0
    6.1516   54.4878   19.5852 O   0  0  0  0  0  0
    5.0357   53.6967   20.0150 C   0  0  0  0  0  0
    4.7775   53.9193   21.5159 C   0  0  0  0  0  0
    5.6193   54.4984   22.2032 O   0  0  0  0  0  0
    3.6125   53.4221   21.9821 N   0  0  0  0  0  0
    3.0879   53.4433   23.2830 C   0  0  0  0  0  0
    1.9158   52.7817   23.7270 C   0  0  0  0  0  0
    1.7469   52.9027   25.1422 C   0  0  0  0  0  0
    2.7374   53.6972   25.7369 C   0  0  0  0  0  0
    3.8867   54.2748   24.5925 S   0  0  0  0  0  0
    2.8787   53.9862   27.2263 C   0  0  0  0  0  0
    1.5478   53.6570   27.9633 C   0  0  1  0  0  0
    0.8070   54.3980   27.6626 H   0  0  0  0  0  0
    1.0716   52.2566   27.4956 C   0  0  0  0  0  0
    0.6515   52.2599   26.0111 C   0  0  0  0  0  0
    1.6634   53.8398   29.5257 C   0  0  0  0  0  0
    2.6942   52.8716   30.1604 C   0  0  0  0  0  0
    0.2961   53.5797   30.2049 C   0  0  0  0  0  0
    2.0679   55.3050   29.8426 C   0  0  0  0  0  0
    1.0748   51.9429   22.8830 C   0  0  0  0  0  0
    0.5232   50.9300   23.3134 O   0  0  0  0  0  0
    0.9676   52.3280   21.5960 N   0  0  0  0  0  0
    0.2894   51.5561   20.5578 C   0  0  2  0  0  0
    0.6796   50.5376   20.4821 H   0  0  0  0  0  0
    0.5348   52.2259   19.1873 C   0  0  0  0  0  0
   -0.4047   51.6045   18.1492 C   0  0  0  0  0  0
   -2.0036   51.3540   19.0813 S   0  0  0  0  0  0
   -2.4864   49.9905   18.8605 O   0  0  0  0  0  0
   -2.8965   52.4971   18.8818 O   0  0  0  0  0  0
   -1.2340   51.5075   20.7790 C   0  0  0  0  0  0
    3.5187   57.6917   16.7671 C   0  0  0  0  0  0
    7.9980   59.6508   18.1917 H   0  0  0  0  0  0
    9.0018   58.3791   18.8814 H   0  0  0  0  0  0
    8.8078   58.5019   17.1167 H   0  0  0  0  0  0
    5.8694   59.0385   16.9379 H   0  0  0  0  0  0
    3.9311   55.4546   18.2105 H   0  0  0  0  0  0
    8.0233   56.1848   19.3180 H   0  0  0  0  0  0
    5.3322   52.6553   19.8721 H   0  0  0  0  0  0
    4.1222   53.8224   19.4360 H   0  0  0  0  0  0
    3.0598   52.9049   21.3149 H   0  0  0  0  0  0
    3.6884   53.3700   27.6162 H   0  0  0  0  0  0
    3.1620   55.0273   27.3749 H   0  0  0  0  0  0
    1.8173   51.4904   27.7151 H   0  0  0  0  0  0
    0.1933   51.9478   28.0632 H   0  0  0  0  0  0
   -0.2773   52.8203   25.8892 H   0  0  0  0  0  0
    0.4386   51.2311   25.7255 H   0  0  0  0  0  0
    3.7176   53.1095   29.8713 H   0  0  0  0  0  0
    2.6578   52.8958   31.2498 H   0  0  0  0  0  0
    2.5046   51.8360   29.8748 H   0  0  0  0  0  0
   -0.5003   54.1340   29.7096 H   0  0  0  0  0  0
    0.0131   52.5260   30.1960 H   0  0  0  0  0  0
    0.2971   53.8800   31.2541 H   0  0  0  0  0  0
    1.4925   56.0157   29.2484 H   0  0  0  0  0  0
    1.9040   55.5711   30.8835 H   0  0  0  0  0  0
    3.1218   55.4894   29.6365 H   0  0  0  0  0  0
    1.2640   53.2622   21.3485 H   0  0  0  0  0  0
    1.5813   52.1426   18.8875 H   0  0  0  0  0  0
    0.3449   53.2968   19.2543 H   0  0  0  0  0  0
   -0.0225   50.6150   17.9031 H   0  0  0  0  0  0
   -0.5737   52.1374   17.2177 H   0  0  0  0  0  0
   -1.5545   52.4938   21.1117 H   0  0  0  0  0  0
   -1.6267   50.7717   21.4805 H   0  0  0  0  0  0
    3.0109   58.5062   17.2864 H   0  0  0  0  0  0
    3.7782   58.0551   15.7724 H   0  0  0  0  0  0
    2.8255   56.8596   16.6330 H   0  0  0  0  0  0
  1  2  1  0  0  0
  1 39  1  0  0  0
  1 40  1  0  0  0
  1 41  1  0  0  0
  2  7  2  0  0  0
  2  3  1  0  0  0
  3  4  2  0  0  0
  3 42  1  0  0  0
  4  5  1  0  0  0
  4 38  1  0  0  0
  5  6  2  0  0  0
  5 43  1  0  0  0
  6  7  1  0  0  0
  6  8  1  0  0  0
  7 44  1  0  0  0
  8  9  1  0  0  0
  9 10  1  0  0  0
  9 45  1  0  0  0
  9 46  1  0  0  0
 10 11  2  0  0  0
 10 12  1  0  0  0
 12 13  1  0  0  0
 12 47  1  0  0  0
 13 17  1  0  0  0
 13 14  2  0  0  0
 14 15  1  0  0  0
 14 27  1  0  0  0
 15 22  1  0  0  0
 15 16  2  0  0  0
 16 17  1  0  0  0
 16 18  1  0  0  0
 18 19  1  0  0  0
 18 48  1  0  0  0
 18 49  1  0  0  0
 19 20  1  0  0  0
 19 21  1  0  0  0
 19 23  1  0  0  0
 21 22  1  0  0  0
 21 50  1  0  0  0
 21 51  1  0  0  0
 22 52  1  0  0  0
 22 53  1  0  0  0
 23 24  1  0  0  0
 23 25  1  0  0  0
 23 26  1  0  0  0
 24 54  1  0  0  0
 24 55  1  0  0  0
 24 56  1  0  0  0
 25 57  1  0  0  0
 25 58  1  0  0  0
 25 59  1  0  0  0
 26 60  1  0  0  0
 26 61  1  0  0  0
 26 62  1  0  0  0
 27 28  2  0  0  0
 27 29  1  0  0  0
 29 30  1  0  0  0
 29 63  1  0  0  0
 30 31  1  0  0  0
 30 37  1  0  0  0
 30 32  1  0  0  0
 32 33  1  0  0  0
 32 64  1  0  0  0
 32 65  1  0  0  0
 33 34  1  0  0  0
 33 66  1  0  0  0
 33 67  1  0  0  0
 34 35  2  0  0  0
 34 36  2  0  0  0
 34 37  1  0  0  0
 37 68  1  0  0  0
 37 69  1  0  0  0
 38 70  1  0  0  0
 38 71  1  0  0  0
 38 72  1  0  0  0
M  END
> <i_i_glide_confnum>
48

> <i_i_glide_lignum>
1049

> <i_i_glide_posenum>
347

> <i_i_glide_rotatable_bonds>
9

> <i_m_Source_File_Index>
3152

> <b_m_subgroup_collapsed>
0

> <r_i_docking_score>
-5.3894

> <r_i_glide_ecoul>
-6.38721

> <r_i_glide_eff_state_penalty>
0

> <r_i_glide_einternal>
4.22809

> <r_i_glide_emodel>
-64.7927

> <r_i_glide_energy>
-50.3408

> <r_i_glide_erotb>
0.5815

> <r_i_glide_esite>
-0.0806528

> <r_i_glide_evdw>
-43.9536

> <r_i_glide_gscore>
-5.3894

> <r_i_glide_hbond>
-0.0900226

> <r_i_glide_ligand_efficiency>
-0.149706

> <r_i_glide_ligand_efficiency_ln>
-1.17582

> <r_i_glide_ligand_efficiency_sa>
-0.494317

> <r_i_glide_lipo>
-2.28732

> <r_i_glide_metal>
0

> <r_i_glide_rewards>
-0.357144

> <s_i_glide_gridfile>
wee1_glide-grid

> <s_m_Source_File>
wee1_decoys_glide_SP.sdf

> <s_m_Source_Path>
/Users/zhangxujun/Desktop

> <s_m_entry_id>
3427

> <s_m_entry_name>
wee1_decoys_glide_SP.3152

> <s_m_subgroup_title>
wee1_decoys_glide_SP

> <s_m_subgroupid>
wee1_decoys_glide_SP


$$$$
