@<TRIPOS>MOLECULE
ZINC03096834_2301
39   40    1
SMALL
USER_CHARGES


@<TRIPOS>ATOM
      1 C1          2.5646   54.2661   29.4548 C.3       1 UNK         0.0000 
      2 C2          3.4307   54.2457   28.2094 C.ar      1 UNK         0.0000 
      3 C3          4.8155   54.3714   28.3209 C.ar      1 UNK         0.0000 
      4 C4          5.6206   54.3413   27.1831 C.ar      1 UNK         0.0000 
      5 C5          5.0467   54.1969   25.9115 C.ar      1 UNK         0.0000 
      6 C6          3.6507   54.0922   25.7997 C.ar      1 UNK         0.0000 
      7 C7          2.8547   54.0972   26.9464 C.ar      1 UNK         0.0000 
      8 Br8         2.7877   53.9211   24.1053 Br        1 UNK         0.0000 
      9 N9          5.8593   54.0986   24.7713 N.pl3     1 UNK         0.0000 
     10 C10         6.4270   55.2536   24.1126 C.3       1 UNK         0.0000 
     11 C11         6.3193   55.2183   22.5678 C.2       1 UNK         0.0000 
     12 O12         6.9877   56.0229   21.9138 O.2       1 UNK         0.0000 
     13 N13         5.4632   54.3069   22.0267 N.am      1 UNK         0.0000 
     14 N14         5.1056   54.0345   20.7239 N.2       1 UNK         0.0000 
     15 C15         5.2023   54.9073   19.7920 C.2       1 UNK         0.0000 
     16 C16         4.8613   54.6345   18.3908 C.ar      1 UNK         0.0000 
     17 C17         4.8016   55.6932   17.4797 C.ar      1 UNK         0.0000 
     18 C18         4.4761   55.4629   16.1454 C.ar      1 UNK         0.0000 
     19 C19         4.2051   54.1651   15.6892 C.ar      1 UNK         0.0000 
     20 C20         4.2664   53.1039   16.6012 C.ar      1 UNK         0.0000 
     21 C21         4.5891   53.3392   17.9339 C.ar      1 UNK         0.0000 
     22 N22         3.8647   53.9195   14.2661 N.pl3     1 UNK         0.0000 
     23 O23         3.6173   52.7703   13.9088 O.co2     1 UNK         0.0000 
     24 O24         3.8439   54.8770   13.4955 O.co2     1 UNK         0.0000 
     25 Br25        7.5026   54.4967   27.4118 Br        1 UNK         0.0000 
     26 H26         1.5203   54.0375   29.2351 H         1 UNK         0.0000 
     27 H27         2.6160   55.2439   29.9362 H         1 UNK         0.0000 
     28 H28         2.9234   53.5221   30.1671 H         1 UNK         0.0000 
     29 H29         5.2770   54.4912   29.2900 H         1 UNK         0.0000 
     30 H30         1.7833   53.9999   26.8470 H         1 UNK         0.0000 
     31 H31         6.3346   53.2149   24.6509 H         1 UNK         0.0000 
     32 H32         5.9592   56.1818   24.4444 H         1 UNK         0.0000 
     33 H33         7.4776   55.3879   24.3711 H         1 UNK         0.0000 
     34 H34         5.1062   53.6180   22.6731 H         1 UNK         0.0000 
     35 H35         5.5243   55.9279   19.9775 H         1 UNK         0.0000 
     36 H36         5.0031   56.7073   17.7960 H         1 UNK         0.0000 
     37 H37         4.4374   56.3033   15.4675 H         1 UNK         0.0000 
     38 H38         4.0715   52.0846   16.2913 H         1 UNK         0.0000 
     39 H39         4.6360   52.4966   18.6077 H         1 UNK         0.0000 
@<TRIPOS>BOND
     1    1    2 1    
     2    1   26 1    
     3    1   27 1    
     4    1   28 1    
     5    2    7 ar   
     6    2    3 ar   
     7    3    4 ar   
     8    3   29 1    
     9    4    5 ar   
    10    4   25 1    
    11    5    6 ar   
    12    5    9 1    
    13    6    7 ar   
    14    6    8 1    
    15    7   30 1    
    16    9   10 1    
    17    9   31 1    
    18   10   11 1    
    19   10   32 1    
    20   10   33 1    
    21   11   12 2    
    22   11   13 am   BACKBONE|DICT|INTERRES
    23   13   14 1    
    24   13   34 1    
    25   14   15 2    
    26   15   16 1    
    27   15   35 1    
    28   16   21 ar   
    29   16   17 ar   
    30   17   18 ar   
    31   17   36 1    
    32   18   19 ar   
    33   18   37 1    
    34   19   20 ar   
    35   19   22 1    
    36   20   21 ar   
    37   20   38 1    
    38   21   39 1    
    39   22   23 2    
    40   22   24 1    
@<TRIPOS>SUBSTRUCTURE
     1 UNK         1 GROUP             0       ****    0 ROOT    
