@<TRIPOS>MOLECULE
ZINC20441788_1175
64   68    1
SMALL
USER_CHARGES


@<TRIPOS>ATOM
      1 C1          1.7975   50.2430   18.7622 C.ar      1 UNK         0.0000 
      2 C2          1.4564   50.4693   17.4314 C.ar      1 UNK         0.0000 
      3 C3          0.5783   51.5037   17.1071 C.ar      1 UNK         0.0000 
      4 C4          0.0352   52.3128   18.1055 C.ar      1 UNK         0.0000 
      5 C5          0.3830   52.0965   19.4364 C.ar      1 UNK         0.0000 
      6 C6          1.2704   51.0679   19.7620 C.ar      1 UNK         0.0000 
      7 S7          1.7599   50.8505   21.4707 S.o2      1 UNK         0.0000 
      8 O8          2.7041   49.7321   21.5354 O.2       1 UNK         0.0000 
      9 O9          0.5170   50.8314   22.2490 O.2       1 UNK         0.0000 
     10 N10         2.6184   52.3220   21.9427 N.pl3     1 UNK         0.0000 
     11 C11         3.9697   52.7058   21.4438 C.3       1 UNK         0.0000 
     12 H12         4.7143   52.0139   21.8425 H         1 UNK         0.0000 
     13 C13         3.9735   52.6831   19.8971 C.3       1 UNK         0.0000 
     14 C14         5.2352   53.2997   19.2816 C.3       1 UNK         0.0000 
     15 C15         5.5058   54.7054   19.8381 C.3       1 UNK         0.0000 
     16 C16         5.5878   54.7032   21.3746 C.3       1 UNK         0.0000 
     17 C17         4.3391   54.0955   22.0716 C.3       1 UNK         0.0000 
     18 H18         3.5059   54.7859   21.9104 H         1 UNK         0.0000 
     19 N19         4.5755   53.9003   23.6139 N.4       1 UNK         0.0000 
     20 C20         3.2970   54.2426   24.4186 C.3       1 UNK         0.0000 
     21 C21         3.5010   53.8766   25.8975 C.3       1 UNK         0.0000 
     22 N22         4.6257   54.6173   26.4852 N.3       1 UNK         0.0000 
     23 C23         5.8804   54.3425   25.7723 C.3       1 UNK         0.0000 
     24 C24         5.7906   54.6309   24.2606 C.3       1 UNK         0.0000 
     25 C25         4.8479   54.3199   27.9117 C.3       1 UNK         0.0000 
     26 C26         3.5920   54.2244   28.7753 C.ar      1 UNK         0.0000 
     27 C27         2.6056   55.2346   28.7702 C.ar      1 UNK         0.0000 
     28 C28         1.4614   55.1340   29.5681 C.ar      1 UNK         0.0000 
     29 C29         1.3297   53.9975   30.3538 C.ar      1 UNK         0.0000 
     30 C30         2.2865   53.0217   30.3741 C.ar      1 UNK         0.0000 
     31 C31         3.4349   53.1011   29.6008 C.ar      1 UNK         0.0000 
     32 O32         1.9731   52.0964   31.3099 O.3       1 UNK         0.0000 
     33 C33         0.7045   52.4500   31.7846 C.3       1 UNK         0.0000 
     34 O34         0.3681   53.7079   31.2631 O.3       1 UNK         0.0000 
     35 Cl35        0.1631   51.7884   15.4569 Cl        1 UNK         0.0000 
     36 H36         2.5007   49.4554   18.9978 H         1 UNK         0.0000 
     37 H37         1.8914   49.8493   16.6583 H         1 UNK         0.0000 
     38 H38        -0.6396   53.1164   17.8460 H         1 UNK         0.0000 
     39 H39        -0.0167   52.7326   20.2109 H         1 UNK         0.0000 
     40 H40         2.0098   53.1054   22.1868 H         1 UNK         0.0000 
     41 H41         3.1047   53.2179   19.5083 H         1 UNK         0.0000 
     42 H42         3.9040   51.6581   19.5391 H         1 UNK         0.0000 
     43 H43         5.1290   53.3394   18.1957 H         1 UNK         0.0000 
     44 H44         6.0880   52.6465   19.4673 H         1 UNK         0.0000 
     45 H45         4.7147   55.3832   19.5116 H         1 UNK         0.0000 
     46 H46         6.4304   55.0991   19.4134 H         1 UNK         0.0000 
     47 H47         5.8282   55.6961   21.7504 H         1 UNK         0.0000 
     48 H48         6.4483   54.0988   21.6428 H         1 UNK         0.0000 
     49 H49         3.0669   55.2965   24.2659 H         1 UNK         0.0000 
     50 H50         2.4814   53.6354   24.0381 H         1 UNK         0.0000 
     51 H51         3.7123   52.8139   25.9881 H         1 UNK         0.0000 
     52 H52         2.5662   54.0860   26.4167 H         1 UNK         0.0000 
     53 H53         6.7081   54.9093   26.2037 H         1 UNK         0.0000 
     54 H54         6.0851   53.2769   25.8889 H         1 UNK         0.0000 
     55 H55         5.6935   55.6966   24.0797 H         1 UNK         0.0000 
     56 H56         6.6905   54.2347   23.7895 H         1 UNK         0.0000 
     57 H57         5.4757   55.1055   28.3358 H         1 UNK         0.0000 
     58 H58         5.4086   53.3886   28.0168 H         1 UNK         0.0000 
     59 H59         2.7038   56.0970   28.1347 H         1 UNK         0.0000 
     60 H60         0.7221   55.9208   29.5753 H         1 UNK         0.0000 
     61 H61         4.1873   52.3281   29.6471 H         1 UNK         0.0000 
     62 H62        -0.0281   51.7106   31.4417 H         1 UNK         0.0000 
     63 H63         0.7029   52.4868   32.8756 H         1 UNK         0.0000 
     64 H64         4.7336   52.9114   23.7512 H         1 UNK         0.0000 
@<TRIPOS>BOND
     1    1    6 ar   
     2    1    2 ar   
     3    1   36 1    
     4    2    3 ar   
     5    2   37 1    
     6    3    4 ar   
     7    3   35 1    
     8    4    5 ar   
     9    4   38 1    
    10    5    6 ar   
    11    5   39 1    
    12    6    7 1    
    13    7    8 2    
    14    7    9 2    
    15    7   10 1    
    16   10   11 1    
    17   10   40 1    
    18   11   12 1    
    19   11   17 1    
    20   11   13 1    
    21   13   14 1    
    22   13   41 1    
    23   13   42 1    
    24   14   15 1    
    25   14   43 1    
    26   14   44 1    
    27   15   16 1    
    28   15   45 1    
    29   15   46 1    
    30   16   17 1    
    31   16   47 1    
    32   16   48 1    
    33   17   18 1    
    34   17   19 1    
    35   19   24 1    
    36   19   20 1    
    37   19   64 1    
    38   20   21 1    
    39   20   49 1    
    40   20   50 1    
    41   21   22 1    
    42   21   51 1    
    43   21   52 1    
    44   22   23 1    
    45   22   25 1    
    46   23   24 1    
    47   23   53 1    
    48   23   54 1    
    49   24   55 1    
    50   24   56 1    
    51   25   26 1    
    52   25   57 1    
    53   25   58 1    
    54   26   31 ar   
    55   26   27 ar   
    56   27   28 ar   
    57   27   59 1    
    58   28   29 ar   
    59   28   60 1    
    60   29   34 1    
    61   29   30 ar   
    62   30   31 ar   
    63   30   32 1    
    64   31   61 1    
    65   32   33 1    
    66   33   34 1    
    67   33   62 1    
    68   33   63 1    
@<TRIPOS>SUBSTRUCTURE
     1 UNK         1 GROUP             0       ****    0 ROOT    
