ZINC29414042_690
                    3D
 Schrodinger Suite 2024-2.
 64 67  0  0  1  0            999 V2000
   -0.6356   49.0260   25.6705 C   0  0  0  0  0  0
   -0.6884   50.3672   24.9243 C   0  0  2  0  0  0
   -1.0542   51.1187   25.6255 H   0  0  0  0  0  0
   -1.6547   50.3255   23.7184 C   0  0  0  0  0  0
   -1.6478   51.6512   22.9199 C   0  0  2  0  0  0
   -2.2014   51.4784   21.9971 H   0  0  0  0  0  0
   -0.1871   51.9971   22.5174 C   0  0  0  0  0  0
    0.6154   52.0836   23.7549 N   0  0  0  0  0  0
    0.7249   50.7986   24.4717 C   0  0  0  0  0  0
    1.3372   53.2016   24.0565 C   0  0  0  0  0  0
    1.4108   54.1585   23.2814 O   0  0  0  0  0  0
    2.0740   53.3082   25.3872 C   0  0  0  0  0  0
    1.3857   52.9997   26.5742 C   0  0  0  0  0  0
    1.9911   53.1365   27.8206 C   0  0  0  0  0  0
    3.2995   53.5991   27.9076 C   0  0  0  0  0  0
    4.0001   53.9262   26.7488 C   0  0  0  0  0  0
    3.4069   53.7905   25.4801 C   0  0  0  0  0  0
    4.0988   54.0961   24.2852 N   0  0  0  0  0  0
    5.4106   54.3285   24.0525 C   0  0  0  0  0  0
    6.2806   54.4300   24.9195 O   0  0  0  0  0  0
    5.7693   54.5072   22.5931 C   0  0  0  0  0  0
    6.8787   55.2949   22.2534 C   0  0  0  0  0  0
    7.2110   55.5123   20.9200 C   0  0  0  0  0  0
    6.4432   54.9339   19.9097 C   0  0  0  0  0  0
    5.3465   54.1354   20.2307 C   0  0  0  0  0  0
    5.0046   53.9298   21.5644 C   0  0  0  0  0  0
    6.8261   55.0889   18.5767 N   0  0  0  0  0  0
    6.8153   56.6642   17.7656 S   0  0  0  0  0  0
    7.1389   57.6923   18.7613 O   0  0  0  0  0  0
    7.6294   56.5005   16.5552 O   0  0  0  0  0  0
    5.1394   56.9521   17.2029 C   0  0  0  0  0  0
    4.2495   55.8867   17.0258 C   0  0  0  0  0  0
    2.9626   56.1307   16.5540 C   0  0  0  0  0  0
    2.5716   57.4350   16.2562 C   0  0  0  0  0  0
    3.4610   58.4969   16.4179 C   0  0  0  0  0  0
    4.7493   58.2563   16.8837 C   0  0  0  0  0  0
   -2.3449   52.7892   23.6966 C   0  0  0  0  0  0
   -0.3200   48.2106   25.0176 H   0  0  0  0  0  0
   -1.6114   48.7645   26.0816 H   0  0  0  0  0  0
    0.0643   49.0641   26.5045 H   0  0  0  0  0  0
   -1.3538   49.5121   23.0548 H   0  0  0  0  0  0
   -2.6600   50.0644   24.0573 H   0  0  0  0  0  0
    0.2276   51.1981   21.9006 H   0  0  0  0  0  0
   -0.1299   52.8966   21.9056 H   0  0  0  0  0  0
    1.4110   50.8517   25.3075 H   0  0  0  0  0  0
    1.1379   50.0528   23.7906 H   0  0  0  0  0  0
    0.3564   52.6738   26.5447 H   0  0  0  0  0  0
    1.4384   52.8957   28.7164 H   0  0  0  0  0  0
    3.7719   53.7105   28.8707 H   0  0  0  0  0  0
    5.0059   54.2918   26.8738 H   0  0  0  0  0  0
    3.5036   54.0761   23.4682 H   0  0  0  0  0  0
    7.5029   55.7357   23.0197 H   0  0  0  0  0  0
    8.0870   56.0970   20.6763 H   0  0  0  0  0  0
    4.7660   53.6649   19.4508 H   0  0  0  0  0  0
    4.1482   53.3053   21.7782 H   0  0  0  0  0  0
    6.8336   54.2766   17.9807 H   0  0  0  0  0  0
    4.5459   54.8714   17.2454 H   0  0  0  0  0  0
    2.2699   55.3136   16.4253 H   0  0  0  0  0  0
    1.5714   57.6275   15.9020 H   0  0  0  0  0  0
    3.1534   59.5078   16.1866 H   0  0  0  0  0  0
    5.4356   59.0854   17.0050 H   0  0  0  0  0  0
   -1.8260   53.0427   24.6209 H   0  0  0  0  0  0
   -2.3972   53.6954   23.0980 H   0  0  0  0  0  0
   -3.3675   52.5150   23.9566 H   0  0  0  0  0  0
  1  2  1  0  0  0
  1 38  1  0  0  0
  1 39  1  0  0  0
  1 40  1  0  0  0
  2  3  1  0  0  0
  2  9  1  0  0  0
  2  4  1  0  0  0
  4  5  1  0  0  0
  4 41  1  0  0  0
  4 42  1  0  0  0
  5  6  1  0  0  0
  5  7  1  0  0  0
  5 37  1  0  0  0
  7  8  1  0  0  0
  7 43  1  0  0  0
  7 44  1  0  0  0
  8  9  1  0  0  0
  8 10  1  0  0  0
  9 45  1  0  0  0
  9 46  1  0  0  0
 10 11  2  0  0  0
 10 12  1  0  0  0
 12 17  2  0  0  0
 12 13  1  0  0  0
 13 14  2  0  0  0
 13 47  1  0  0  0
 14 15  1  0  0  0
 14 48  1  0  0  0
 15 16  2  0  0  0
 15 49  1  0  0  0
 16 17  1  0  0  0
 16 50  1  0  0  0
 17 18  1  0  0  0
 18 19  1  0  0  0
 18 51  1  0  0  0
 19 20  2  0  0  0
 19 21  1  0  0  0
 21 26  2  0  0  0
 21 22  1  0  0  0
 22 23  2  0  0  0
 22 52  1  0  0  0
 23 24  1  0  0  0
 23 53  1  0  0  0
 24 25  2  0  0  0
 24 27  1  0  0  0
 25 26  1  0  0  0
 25 54  1  0  0  0
 26 55  1  0  0  0
 27 28  1  0  0  0
 27 56  1  0  0  0
 28 29  2  0  0  0
 28 30  2  0  0  0
 28 31  1  0  0  0
 31 36  2  0  0  0
 31 32  1  0  0  0
 32 33  2  0  0  0
 32 57  1  0  0  0
 33 34  1  0  0  0
 33 58  1  0  0  0
 34 35  2  0  0  0
 34 59  1  0  0  0
 35 36  1  0  0  0
 35 60  1  0  0  0
 36 61  1  0  0  0
 37 62  1  0  0  0
 37 63  1  0  0  0
 37 64  1  0  0  0
M  END
> <i_i_glide_confnum>
184

> <i_i_glide_lignum>
691

> <i_i_glide_posenum>
362

> <i_i_glide_rotatable_bonds>
8

> <i_m_Source_File_Index>
2477

> <b_m_subgroup_collapsed>
0

> <r_i_docking_score>
-4.3733

> <r_i_glide_ecoul>
-4.0265

> <r_i_glide_eff_state_penalty>
0

> <r_i_glide_einternal>
7.96188

> <r_i_glide_emodel>
-55.7733

> <r_i_glide_energy>
-48.918

> <r_i_glide_erotb>
0.673925

> <r_i_glide_esite>
-0.033854

> <r_i_glide_evdw>
-44.8915

> <r_i_glide_gscore>
-4.3733

> <r_i_glide_hbond>
0

> <r_i_glide_ligand_efficiency>
-0.124951

> <r_i_glide_ligand_efficiency_ln>
-0.960036

> <r_i_glide_ligand_efficiency_sa>
-0.408724

> <r_i_glide_lipo>
-2.28642

> <r_i_glide_metal>
0

> <r_i_glide_rewards>
0.121605

> <s_i_glide_gridfile>
wee1_glide-grid

> <s_m_Source_File>
wee1_decoys_glide_SP.sdf

> <s_m_Source_Path>
/Users/zhangxujun/Desktop

> <s_m_entry_id>
2752

> <s_m_entry_name>
wee1_decoys_glide_SP.2477

> <s_m_subgroup_title>
wee1_decoys_glide_SP

> <s_m_subgroupid>
wee1_decoys_glide_SP


$$$$
