@<TRIPOS>MOLECULE
ZINC13169088_514
57   59    1
SMALL
USER_CHARGES


@<TRIPOS>ATOM
      1 C1          5.0732   57.1655   17.5214 C.3       1 UNK         0.0000 
      2 C2          5.3554   55.6881   17.2027 C.3       1 UNK         0.0000 
      3 H3          4.4871   55.1116   17.5216 H         1 UNK         0.0000 
      4 C4          5.5387   55.4683   15.6843 C.3       1 UNK         0.0000 
      5 C5          5.7429   53.9708   15.3702 C.3       1 UNK         0.0000 
      6 C6          6.8757   53.3514   16.2168 C.3       1 UNK         0.0000 
      7 C7          6.7398   53.6912   17.7151 C.3       1 UNK         0.0000 
      8 N8          6.5678   55.1602   17.9202 N.pl3     1 UNK         0.0000 
      9 S9          7.1606   55.7624   19.5105 S.o2      1 UNK         0.0000 
     10 O10         6.9732   57.2127   19.6482 O.2       1 UNK         0.0000 
     11 O11         8.5078   55.2209   19.7048 O.2       1 UNK         0.0000 
     12 C12         6.1508   55.0156   20.7962 C.ar      1 UNK         0.0000 
     13 C13         4.8718   54.5004   20.5591 C.ar      1 UNK         0.0000 
     14 C14         4.0887   54.0703   21.6307 C.ar      1 UNK         0.0000 
     15 C15         4.5799   54.1165   22.9433 C.ar      1 UNK         0.0000 
     16 C16         5.9141   54.5176   23.1421 C.ar      1 UNK         0.0000 
     17 C17         6.6781   54.9923   22.0846 C.ar      1 UNK         0.0000 
     18 C18         3.6668   53.7851   24.1113 C.2       1 UNK         0.0000 
     19 O19         2.5829   53.2311   23.9179 O.2       1 UNK         0.0000 
     20 N20         4.1408   54.1351   25.3286 N.am      1 UNK         0.0000 
     21 C21         3.7499   53.7247   26.6196 C.ar      1 UNK         0.0000 
     22 C22         2.4390   53.3099   26.9061 C.ar      1 UNK         0.0000 
     23 C23         2.0894   52.8069   28.1697 C.ar      1 UNK         0.0000 
     24 C24         3.0603   52.7376   29.1749 C.ar      1 UNK         0.0000 
     25 C25         4.3550   53.1867   28.8944 C.ar      1 UNK         0.0000 
     26 C26         4.7326   53.6923   27.6414 C.ar      1 UNK         0.0000 
     27 C27         6.1705   54.1232   27.4406 C.2       1 UNK         0.0000 
     28 O28         7.0268   53.6764   28.2330 O.co2     1 UNK         0.0000 
     29 O29         2.6871   52.2111   30.4025 O.3       1 UNK         0.0000 
     30 C30         3.6731   51.9791   31.4046 C.3       1 UNK         0.0000 
     31 O31         0.8201   52.3604   28.4873 O.3       1 UNK         0.0000 
     32 C32        -0.0652   51.9868   27.4386 C.3       1 UNK         0.0000 
     33 H33         4.2817   57.5583   16.8819 H         1 UNK         0.0000 
     34 H34         4.7239   57.2915   18.5386 H         1 UNK         0.0000 
     35 H35         5.9472   57.7981   17.3604 H         1 UNK         0.0000 
     36 H36         6.4202   56.0122   15.3375 H         1 UNK         0.0000 
     37 H37         4.6749   55.8429   15.1329 H         1 UNK         0.0000 
     38 H38         5.9526   53.8366   14.3070 H         1 UNK         0.0000 
     39 H39         4.8091   53.4336   15.5611 H         1 UNK         0.0000 
     40 H40         7.8382   53.7103   15.8532 H         1 UNK         0.0000 
     41 H41         6.8889   52.2676   16.0878 H         1 UNK         0.0000 
     42 H42         7.6006   53.3193   18.2679 H         1 UNK         0.0000 
     43 H43         5.8443   53.1841   18.0751 H         1 UNK         0.0000 
     44 H44         4.4453   54.4922   19.5707 H         1 UNK         0.0000 
     45 H45         3.0761   53.7463   21.4308 H         1 UNK         0.0000 
     46 H46         6.3716   54.5323   24.1178 H         1 UNK         0.0000 
     47 H47         7.6716   55.3664   22.2774 H         1 UNK         0.0000 
     48 H48         5.0508   54.5862   25.3506 H         1 UNK         0.0000 
     49 H49         1.6827   53.3663   26.1409 H         1 UNK         0.0000 
     50 H50         5.0987   53.1311   29.6680 H         1 UNK         0.0000 
     51 H51         3.2054   51.5137   32.2715 H         1 UNK         0.0000 
     52 H52         4.1492   52.8957   31.7435 H         1 UNK         0.0000 
     53 H53         4.4525   51.3059   31.0486 H         1 UNK         0.0000 
     54 H54        -0.9364   51.4925   27.8671 H         1 UNK         0.0000 
     55 H55        -0.4187   52.8590   26.8882 H         1 UNK         0.0000 
     56 H56         0.4036   51.2880   26.7441 H         1 UNK         0.0000 
     57 O57         6.4474   54.8992   26.4939 O.co2     1 UNK         0.0000 
@<TRIPOS>BOND
     1    1    2 1    
     2    1   33 1    
     3    1   34 1    
     4    1   35 1    
     5    2    3 1    
     6    2    8 1    
     7    2    4 1    
     8    4    5 1    
     9    4   36 1    
    10    4   37 1    
    11    5    6 1    
    12    5   38 1    
    13    5   39 1    
    14    6    7 1    
    15    6   40 1    
    16    6   41 1    
    17    7    8 1    
    18    7   42 1    
    19    7   43 1    
    20    8    9 1    
    21    9   10 2    
    22    9   11 2    
    23    9   12 1    
    24   12   17 ar   
    25   12   13 ar   
    26   13   14 ar   
    27   13   44 1    
    28   14   15 ar   
    29   14   45 1    
    30   15   16 ar   
    31   15   18 1    
    32   16   17 ar   
    33   16   46 1    
    34   17   47 1    
    35   18   19 2    
    36   18   20 am   BACKBONE|DICT|INTERRES
    37   20   21 1    
    38   20   48 1    
    39   21   26 ar   
    40   21   22 ar   
    41   22   23 ar   
    42   22   49 1    
    43   23   24 ar   
    44   23   31 1    
    45   24   25 ar   
    46   24   29 1    
    47   25   26 ar   
    48   25   50 1    
    49   26   27 1    
    50   27   28 2    
    51   27   57 1    
    52   29   30 1    
    53   30   51 1    
    54   30   52 1    
    55   30   53 1    
    56   31   32 1    
    57   32   54 1    
    58   32   55 1    
    59   32   56 1    
@<TRIPOS>SUBSTRUCTURE
     1 UNK         1 GROUP             0       ****    0 ROOT    
