@<TRIPOS>MOLECULE
ZINC26961100_4277
48   51    1
SMALL
USER_CHARGES


@<TRIPOS>ATOM
      1 C1          1.6841   52.2076   31.9204 C.3       1 UNK         0.0000 
      2 C2          1.9376   52.5094   30.4490 C.2       1 UNK         0.0000 
      3 N3          3.0616   53.0196   30.1255 N.2       1 UNK         0.0000 
      4 C4          3.2615   53.3213   28.8175 C.2       1 UNK         0.0000 
      5 C5          2.3754   53.1402   27.7500 C.2       1 UNK         0.0000 
      6 C6          2.9195   53.5876   26.5241 C.2       1 UNK         0.0000 
      7 C7          4.2136   54.1156   26.6880 C.2       1 UNK         0.0000 
      8 S8          4.7523   54.0464   28.3341 S.3       1 UNK         0.0000 
      9 C9          5.0565   54.7426   25.5843 C.3       1 UNK         0.0000 
     10 C10         4.4854   54.3259   24.2124 C.3       1 UNK         0.0000 
     11 C11         2.9546   54.4778   24.1524 C.3       1 UNK         0.0000 
     12 C12         2.2230   53.5612   25.1619 C.3       1 UNK         0.0000 
     13 C13         0.9873   52.5219   28.0653 C.3       1 UNK         0.0000 
     14 H14         0.2301   53.2670   27.8113 H         1 UNK         0.0000 
     15 N15         0.8764   52.2027   29.5210 N.pl3     1 UNK         0.0000 
     16 N16        -0.4952   52.0961   29.9438 N.3       1 UNK         0.0000 
     17 S17         0.7044   51.1299   26.9114 S.3       1 UNK         0.0000 
     18 C18        -1.0566   50.6884   27.0173 C.3       1 UNK         0.0000 
     19 C19        -2.0473   51.6765   26.4027 C.2       1 UNK         0.0000 
     20 O20        -1.6683   52.4964   25.5708 O.2       1 UNK         0.0000 
     21 N21        -3.3181   51.5425   26.8405 N.am      1 UNK         0.0000 
     22 C22        -4.4743   52.2602   26.4797 C.ar      1 UNK         0.0000 
     23 C23        -5.6046   52.0327   27.2705 C.ar      1 UNK         0.0000 
     24 C24        -6.7960   52.7017   27.0010 C.ar      1 UNK         0.0000 
     25 C25        -6.8635   53.5888   25.9306 C.ar      1 UNK         0.0000 
     26 C26        -5.7513   53.8085   25.1226 C.ar      1 UNK         0.0000 
     27 C27        -4.5548   53.1508   25.3945 C.ar      1 UNK         0.0000 
     28 Br28       -8.4964   54.4980   25.5684 Br        1 UNK         0.0000 
     29 H29         1.1125   51.2976   32.0812 H         1 UNK         0.0000 
     30 H30         2.6125   52.0952   32.4814 H         1 UNK         0.0000 
     31 H31         1.1049   53.0127   32.3714 H         1 UNK         0.0000 
     32 H32         5.0323   55.8281   25.6750 H         1 UNK         0.0000 
     33 H33         6.1009   54.4420   25.6673 H         1 UNK         0.0000 
     34 H34         4.9577   54.8967   23.4140 H         1 UNK         0.0000 
     35 H35         4.7578   53.2963   24.0033 H         1 UNK         0.0000 
     36 H36         2.7040   55.5153   24.3544 H         1 UNK         0.0000 
     37 H37         2.5935   54.2717   23.1443 H         1 UNK         0.0000 
     38 H38         2.2210   52.5402   24.7794 H         1 UNK         0.0000 
     39 H39         1.1753   53.8523   25.2397 H         1 UNK         0.0000 
     40 H40        -1.0094   52.8704   29.5535 H         1 UNK         0.0000 
     41 H41        -0.8696   51.2135   29.6200 H         1 UNK         0.0000 
     42 H42        -1.3155   50.5084   28.0566 H         1 UNK         0.0000 
     43 H43        -1.1751   49.7389   26.4935 H         1 UNK         0.0000 
     44 H44        -3.4663   50.8177   27.5276 H         1 UNK         0.0000 
     45 H45        -5.5670   51.3390   28.1002 H         1 UNK         0.0000 
     46 H46        -7.6706   52.5204   27.6101 H         1 UNK         0.0000 
     47 H47        -5.8173   54.4817   24.2794 H         1 UNK         0.0000 
     48 H48        -3.7189   53.3398   24.7393 H         1 UNK         0.0000 
@<TRIPOS>BOND
     1    1    2 1    
     2    1   29 1    
     3    1   30 1    
     4    1   31 1    
     5    2   15 1    
     6    2    3 2    
     7    3    4 1    
     8    4    8 1    
     9    4    5 2    
    10    5    6 1    
    11    5   13 1    
    12    6   12 1    
    13    6    7 2    
    14    7    8 1    
    15    7    9 1    
    16    9   10 1    
    17    9   32 1    
    18    9   33 1    
    19   10   11 1    
    20   10   34 1    
    21   10   35 1    
    22   11   12 1    
    23   11   36 1    
    24   11   37 1    
    25   12   38 1    
    26   12   39 1    
    27   13   14 1    
    28   13   15 1    
    29   13   17 1    
    30   15   16 1    
    31   16   40 1    
    32   16   41 1    
    33   17   18 1    
    34   18   19 1    
    35   18   42 1    
    36   18   43 1    
    37   19   20 2    
    38   19   21 am   BACKBONE|DICT|INTERRES
    39   21   22 1    
    40   21   44 1    
    41   22   27 ar   
    42   22   23 ar   
    43   23   24 ar   
    44   23   45 1    
    45   24   25 ar   
    46   24   46 1    
    47   25   26 ar   
    48   25   28 1    
    49   26   27 ar   
    50   26   47 1    
    51   27   48 1    
@<TRIPOS>SUBSTRUCTURE
     1 UNK         1 GROUP             0       ****    0 ROOT    
