@<TRIPOS>MOLECULE
ZINC36716934_2674
53   56    1
SMALL
USER_CHARGES


@<TRIPOS>ATOM
      1 C1         -2.1758   51.2109   21.1182 C.3       1 UNK         0.0000 
      2 C2         -0.7336   51.6698   20.9210 C.ar      1 UNK         0.0000 
      3 C3          0.0085   52.0320   22.0500 C.ar      1 UNK         0.0000 
      4 C4          1.3476   52.4120   21.9402 C.ar      1 UNK         0.0000 
      5 C5          1.9697   52.3766   20.6855 C.ar      1 UNK         0.0000 
      6 C6          1.2400   52.0223   19.5532 C.ar      1 UNK         0.0000 
      7 C7         -0.1146   51.6943   19.6516 C.ar      1 UNK         0.0000 
      8 N8         -0.7664   51.3599   18.4543 N.am      1 UNK         0.0000 
      9 C9         -1.8680   51.9631   17.9599 C.2       1 UNK         0.0000 
     10 O10        -2.4641   52.8962   18.5047 O.2       1 UNK         0.0000 
     11 C11        -2.3586   51.4415   16.6154 C.3       1 UNK         0.0000 
     12 N12         2.0157   52.7798   23.1175 N.am      1 UNK         0.0000 
     13 C13         3.0061   53.6936   23.2569 C.2       1 UNK         0.0000 
     14 O14         3.4939   54.3376   22.3270 O.2       1 UNK         0.0000 
     15 C15         3.5060   53.9045   24.6692 C.ar      1 UNK         0.0000 
     16 C16         2.6283   53.7182   25.7574 C.ar      1 UNK         0.0000 
     17 C17         3.0416   53.9607   27.0718 C.ar      1 UNK         0.0000 
     18 N18         4.2937   54.3721   27.4091 N.ar      1 UNK         0.0000 
     19 C19         5.1213   54.5069   26.3746 C.ar      1 UNK         0.0000 
     20 C20         4.8219   54.3021   25.0161 C.ar      1 UNK         0.0000 
     21 C21         6.0753   54.5794   24.3709 C.2       1 UNK         0.0000 
     22 N22         6.9929   54.9222   25.2504 N.2       1 UNK         0.0000 
     23 O23         6.4195   54.8870   26.5258 O.3       1 UNK         0.0000 
     24 C24         6.4355   54.5196   22.9035 C.3       1 UNK         0.0000 
     25 C25         2.0725   53.7926   28.1874 C.2       1 UNK         0.0000 
     26 C26         1.2334   52.6736   28.2726 C.2       1 UNK         0.0000 
     27 C27         0.3483   52.6774   29.3332 C.2       1 UNK         0.0000 
     28 S28         0.6002   54.0980   30.2829 S.3       1 UNK         0.0000 
     29 C29         1.8331   54.7082   29.2204 C.2       1 UNK         0.0000 
     30 C30         2.4298   56.0779   29.4592 C.3       1 UNK         0.0000 
     31 C31        -0.7157   51.6749   29.6784 C.3       1 UNK         0.0000 
     32 H32        -2.3684   50.9068   22.1495 H         1 UNK         0.0000 
     33 H33        -2.8717   52.0064   20.8471 H         1 UNK         0.0000 
     34 H34        -2.3888   50.3406   20.4928 H         1 UNK         0.0000 
     35 H35        -0.4628   52.0233   23.0191 H         1 UNK         0.0000 
     36 H36         3.0144   52.6324   20.5743 H         1 UNK         0.0000 
     37 H37         1.7405   52.0246   18.5951 H         1 UNK         0.0000 
     38 H38        -0.2809   50.7116   17.8523 H         1 UNK         0.0000 
     39 H39        -2.4965   50.3593   16.6463 H         1 UNK         0.0000 
     40 H40        -1.6377   51.6801   15.8310 H         1 UNK         0.0000 
     41 H41        -3.3127   51.8955   16.3475 H         1 UNK         0.0000 
     42 H42         1.6533   52.3637   23.9628 H         1 UNK         0.0000 
     43 H43         1.5982   53.4371   25.5944 H         1 UNK         0.0000 
     44 H44         6.1481   53.5599   22.4753 H         1 UNK         0.0000 
     45 H45         5.9245   55.2951   22.3321 H         1 UNK         0.0000 
     46 H46         7.5033   54.6437   22.7184 H         1 UNK         0.0000 
     47 H47         1.2590   51.8647   27.5533 H         1 UNK         0.0000 
     48 H48         3.5035   56.0938   29.2816 H         1 UNK         0.0000 
     49 H49         1.9752   56.8243   28.8026 H         1 UNK         0.0000 
     50 H50         2.2733   56.4210   30.4828 H         1 UNK         0.0000 
     51 H51        -0.6605   50.8108   29.0201 H         1 UNK         0.0000 
     52 H52        -0.6570   51.3204   30.7084 H         1 UNK         0.0000 
     53 H53        -1.7001   52.0967   29.5341 H         1 UNK         0.0000 
@<TRIPOS>BOND
     1    1    2 1    
     2    1   32 1    
     3    1   33 1    
     4    1   34 1    
     5    2    7 ar   
     6    2    3 ar   
     7    3    4 ar   
     8    3   35 1    
     9    4    5 ar   
    10    4   12 1    
    11    5    6 ar   
    12    5   36 1    
    13    6    7 ar   
    14    6   37 1    
    15    7    8 1    
    16    8    9 am   BACKBONE|DICT|INTERRES
    17    8   38 1    
    18    9   10 2    
    19    9   11 1    
    20   11   39 1    
    21   11   40 1    
    22   11   41 1    
    23   12   13 am   BACKBONE|DICT|INTERRES
    24   12   42 1    
    25   13   14 2    
    26   13   15 1    
    27   15   20 ar   
    28   15   16 ar   
    29   16   17 ar   
    30   16   43 1    
    31   17   18 ar   
    32   17   25 1    
    33   18   19 ar   
    34   19   23 1    
    35   19   20 ar   
    36   20   21 1    
    37   21   22 2    
    38   21   24 1    
    39   22   23 1    
    40   24   44 1    
    41   24   45 1    
    42   24   46 1    
    43   25   29 2    
    44   25   26 1    
    45   26   27 2    
    46   26   47 1    
    47   27   28 1    
    48   27   31 1    
    49   28   29 1    
    50   29   30 1    
    51   30   48 1    
    52   30   49 1    
    53   30   50 1    
    54   31   51 1    
    55   31   52 1    
    56   31   53 1    
@<TRIPOS>SUBSTRUCTURE
     1 UNK         1 GROUP             0       ****    0 ROOT    
