@<TRIPOS>MOLECULE
ZINC29063180_2530
44   46    1
SMALL
USER_CHARGES


@<TRIPOS>ATOM
      1 C1          3.6769   52.9619   29.2988 C.3       1 UNK         0.0000 
      2 C2          2.9536   53.8444   28.2490 C.3       1 UNK         0.0000 
      3 C3          1.6279   53.1104   27.9050 C.3       1 UNK         0.0000 
      4 C4          2.6011   55.2083   28.8842 C.3       1 UNK         0.0000 
      5 C5          3.8574   54.0838   27.0081 C.ar      1 UNK         0.0000 
      6 C6          5.2006   54.4450   27.1941 C.ar      1 UNK         0.0000 
      7 C7          6.0749   54.6462   26.1264 C.ar      1 UNK         0.0000 
      8 C8          5.5966   54.4973   24.8213 C.ar      1 UNK         0.0000 
      9 C9          6.1815   54.6090   23.5230 C.ar      1 UNK         0.0000 
     10 C10         5.2031   54.3416   22.5790 C.ar      1 UNK         0.0000 
     11 N11         4.0300   54.0959   23.2651 N.pl3     1 UNK         0.0000 
     12 H12         3.1584   53.8957   22.7963 H         1 UNK         0.0000 
     13 C13         4.2290   54.1650   24.6301 C.ar      1 UNK         0.0000 
     14 C14         3.3494   53.9637   25.6994 C.ar      1 UNK         0.0000 
     15 C15         5.3610   54.3139   21.1429 C.2       1 UNK         0.0000 
     16 O16         6.3089   54.8964   20.6052 O.2       1 UNK         0.0000 
     17 N17         4.4111   53.6085   20.4849 N.am      1 UNK         0.0000 
     18 N18         4.5270   53.3345   19.1146 N.am      1 UNK         0.0000 
     19 C19         4.2026   54.2676   18.1905 C.2       1 UNK         0.0000 
     20 O20         3.9042   55.4359   18.4491 O.2       1 UNK         0.0000 
     21 C21         4.2230   53.8019   16.8235 C.ar      1 UNK         0.0000 
     22 C22         4.0218   54.5418   15.6599 C.ar      1 UNK         0.0000 
     23 C23         4.0908   53.6912   14.5508 C.ar      1 UNK         0.0000 
     24 C24         4.3288   52.4210   15.0509 C.ar      1 UNK         0.0000 
     25 N25         4.3983   52.4974   16.4185 N.pl3     1 UNK         0.0000 
     26 H26         4.5679   51.7027   17.0303 H         1 UNK         0.0000 
     27 Br27        3.8934   54.1856   12.7227 Br        1 UNK         0.0000 
     28 H28         3.0282   52.7304   30.1469 H         1 UNK         0.0000 
     29 H29         4.5610   53.4430   29.7148 H         1 UNK         0.0000 
     30 H30         3.9952   52.0121   28.8671 H         1 UNK         0.0000 
     31 H31         0.9761   53.7075   27.2665 H         1 UNK         0.0000 
     32 H32         1.8145   52.1622   27.3982 H         1 UNK         0.0000 
     33 H33         1.0501   52.8857   28.8029 H         1 UNK         0.0000 
     34 H34         2.1233   55.8700   28.1588 H         1 UNK         0.0000 
     35 H35         1.9181   55.0948   29.7270 H         1 UNK         0.0000 
     36 H36         3.4939   55.7117   29.2554 H         1 UNK         0.0000 
     37 H37         5.5988   54.5743   28.1903 H         1 UNK         0.0000 
     38 H38         7.1030   54.9038   26.3159 H         1 UNK         0.0000 
     39 H39         7.2037   54.8540   23.2837 H         1 UNK         0.0000 
     40 H40         2.3187   53.7072   25.5054 H         1 UNK         0.0000 
     41 H41         3.5963   53.1912   20.9047 H         1 UNK         0.0000 
     42 H42         4.7979   52.3795   18.9102 H         1 UNK         0.0000 
     43 H43         3.8373   55.6058   15.6223 H         1 UNK         0.0000 
     44 H44         4.4456   51.4684   14.5588 H         1 UNK         0.0000 
@<TRIPOS>BOND
     1    1    2 1    
     2    1   28 1    
     3    1   29 1    
     4    1   30 1    
     5    2    3 1    
     6    2    4 1    
     7    2    5 1    
     8    3   31 1    
     9    3   32 1    
    10    3   33 1    
    11    4   34 1    
    12    4   35 1    
    13    4   36 1    
    14    5   14 ar   
    15    5    6 ar   
    16    6    7 ar   
    17    6   37 1    
    18    7    8 ar   
    19    7   38 1    
    20    8   13 ar   
    21    8    9 ar   
    22    9   10 ar   
    23    9   39 1    
    24   10   11 ar   
    25   10   15 1    
    26   11   12 1    
    27   11   13 ar   
    28   13   14 ar   
    29   14   40 1    
    30   15   16 2    
    31   15   17 am   BACKBONE|DICT|INTERRES
    32   17   18 1    
    33   17   41 1    
    34   18   19 am   BACKBONE|DICT|INTERRES
    35   18   42 1    
    36   19   20 2    
    37   19   21 1    
    38   21   25 ar   
    39   21   22 ar   
    40   22   23 ar   
    41   22   43 1    
    42   23   24 ar   
    43   23   27 1    
    44   24   25 ar   
    45   24   44 1    
    46   25   26 1    
@<TRIPOS>SUBSTRUCTURE
     1 UNK         1 GROUP             0       ****    0 ROOT    
