@<TRIPOS>MOLECULE
ZINC22860147_4030
68   74    1
SMALL
USER_CHARGES


@<TRIPOS>ATOM
      1 C1          6.8339   54.5364   24.0088 C.3       1 UNK         0.0000 
      2 C2          6.3071   54.5218   22.5810 C.2       1 UNK         0.0000 
      3 N3          6.6070   55.5100   21.8278 N.2       1 UNK         0.0000 
      4 N4          6.2406   55.4276   20.5324 N.am      1 UNK         0.0000 
      5 C5          6.2775   56.4831   19.6943 C.2       1 UNK         0.0000 
      6 O6          6.7042   57.5897   20.0238 O.2       1 UNK         0.0000 
      7 C7          5.6954   56.2628   18.3136 C.ar      1 UNK         0.0000 
      8 C8          4.7395   55.2447   18.1145 C.ar      1 UNK         0.0000 
      9 C9          4.1665   55.0248   16.8585 C.ar      1 UNK         0.0000 
     10 N10         4.4491   55.7676   15.7600 N.ar      1 UNK         0.0000 
     11 C11         5.3551   56.7291   15.9493 C.ar      1 UNK         0.0000 
     12 C12         6.0216   57.0340   17.1649 C.ar      1 UNK         0.0000 
     13 C13         6.9028   58.1213   16.8034 C.ar      1 UNK         0.0000 
     14 N14         6.7607   58.4296   15.5347 N.2       1 UNK         0.0000 
     15 N15         5.8358   57.6131   15.0068 N.pl3     1 UNK         0.0000 
     16 C16         5.4862   57.7324   13.6004 C.3       1 UNK         0.0000 
     17 C17         7.8996   58.8956   17.6458 C.3       1 UNK         0.0000 
     18 C18         9.2590   58.3046   17.9346 C.3       1 UNK         0.0000 
     19 C19         9.1343   59.5279   17.0407 C.3       1 UNK         0.0000 
     20 C20         3.1894   53.8782   16.6140 C.3       1 UNK         0.0000 
     21 C21         3.4353   52.4965   17.1742 C.3       1 UNK         0.0000 
     22 C22         2.2696   53.3149   17.6803 C.3       1 UNK         0.0000 
     23 C23         5.5001   53.2646   22.1824 C.3       1 UNK         0.0000 
     24 C24         3.9933   53.2113   22.5831 C.3       1 UNK         0.0000 
     25 C25         3.7558   53.2972   24.1324 C.3       1 UNK         0.0000 
     26 C26         2.3054   52.8738   24.5107 C.3       1 UNK         0.0000 
     27 H27         2.2081   52.7821   25.5930 H         1 UNK         0.0000 
     28 C28         1.4370   54.0367   24.0058 C.3       1 UNK         0.0000 
     29 C29         1.6398   54.1768   22.4827 C.3       1 UNK         0.0000 
     30 H30         1.1044   55.0578   22.2117 H         1 UNK         0.0000 
     31 C31         3.1310   54.3783   22.0608 C.3       1 UNK         0.0000 
     32 C32         1.0808   52.9185   21.7856 C.3       1 UNK         0.0000 
     33 C33         1.9203   51.7249   22.2820 C.3       1 UNK         0.0000 
     34 C34         1.7943   51.5714   23.8059 C.3       1 UNK         0.0000 
     35 C35         3.3999   51.9251   21.8929 C.3       1 UNK         0.0000 
     36 Br36        1.2541   50.0637   21.4093 Br        1 UNK         0.0000 
     37 H37         7.4034   53.6333   24.2248 H         1 UNK         0.0000 
     38 H38         7.5038   55.3800   24.1837 H         1 UNK         0.0000 
     39 H39         6.0409   54.6248   24.7452 H         1 UNK         0.0000 
     40 H40         5.8445   54.5473   20.2426 H         1 UNK         0.0000 
     41 H41         4.4272   54.6058   18.9258 H         1 UNK         0.0000 
     42 H42         4.4134   57.9051   13.5102 H         1 UNK         0.0000 
     43 H43         6.0210   58.5638   13.1399 H         1 UNK         0.0000 
     44 H44         5.7501   56.8067   13.0878 H         1 UNK         0.0000 
     45 H45         7.4320   59.4662   18.4499 H         1 UNK         0.0000 
     46 H46         9.6684   58.4136   18.9390 H         1 UNK         0.0000 
     47 H47         9.5143   57.3409   17.4886 H         1 UNK         0.0000 
     48 H48         9.3065   59.4237   15.9675 H         1 UNK         0.0000 
     49 H49         9.4409   60.5052   17.4135 H         1 UNK         0.0000 
     50 H50         2.7708   53.8856   15.6044 H         1 UNK         0.0000 
     51 H51         3.2488   51.6300   16.5380 H         1 UNK         0.0000 
     52 H52         4.3038   52.3458   17.8169 H         1 UNK         0.0000 
     53 H53         2.3079   53.6961   18.6994 H         1 UNK         0.0000 
     54 H54         1.2575   53.0333   17.3895 H         1 UNK         0.0000 
     55 H55         6.0056   52.3847   22.5799 H         1 UNK         0.0000 
     56 H56         5.5429   53.1123   21.1046 H         1 UNK         0.0000 
     57 H57         3.8838   54.3343   24.4481 H         1 UNK         0.0000 
     58 H58         4.5368   52.8968   24.7504 H         1 UNK         0.0000 
     59 H59         1.7271   54.9653   24.4807 H         1 UNK         0.0000 
     60 H60         0.3845   53.8825   24.2508 H         1 UNK         0.0000 
     61 H61         3.2291   54.4720   20.9807 H         1 UNK         0.0000 
     62 H62         3.5085   55.3020   22.4682 H         1 UNK         0.0000 
     63 H63         0.0218   52.8251   22.0248 H         1 UNK         0.0000 
     64 H64         1.1436   52.9949   20.7007 H         1 UNK         0.0000 
     65 H65         2.3127   50.6614   24.0812 H         1 UNK         0.0000 
     66 H66         0.7526   51.3941   24.0770 H         1 UNK         0.0000 
     67 H67         3.9832   51.0258   22.0818 H         1 UNK         0.0000 
     68 H68         3.4600   52.0297   20.8077 H         1 UNK         0.0000 
@<TRIPOS>BOND
     1    1    2 1    
     2    1   37 1    
     3    1   38 1    
     4    1   39 1    
     5    2    3 2    
     6    2   23 1    
     7    3    4 1    
     8    4    5 am   BACKBONE|DICT|INTERRES
     9    4   40 1    
    10    5    6 2    
    11    5    7 1    
    12    7   12 ar   
    13    7    8 ar   
    14    8    9 ar   
    15    8   41 1    
    16    9   10 ar   
    17    9   20 1    
    18   10   11 ar   
    19   11   15 ar   
    20   11   12 ar   
    21   12   13 ar   
    22   13   14 ar   
    23   13   17 1    
    24   14   15 ar   
    25   15   16 1    
    26   16   42 1    
    27   16   43 1    
    28   16   44 1    
    29   17   19 1    
    30   17   18 1    
    31   17   45 1    
    32   18   19 1    
    33   18   46 1    
    34   18   47 1    
    35   19   48 1    
    36   19   49 1    
    37   20   22 1    
    38   20   21 1    
    39   20   50 1    
    40   21   22 1    
    41   21   51 1    
    42   21   52 1    
    43   22   53 1    
    44   22   54 1    
    45   23   24 1    
    46   23   55 1    
    47   23   56 1    
    48   24   31 1    
    49   24   35 1    
    50   24   25 1    
    51   25   26 1    
    52   25   57 1    
    53   25   58 1    
    54   26   27 1    
    55   26   34 1    
    56   26   28 1    
    57   28   29 1    
    58   28   59 1    
    59   28   60 1    
    60   29   30 1    
    61   29   31 1    
    62   29   32 1    
    63   31   61 1    
    64   31   62 1    
    65   32   33 1    
    66   32   63 1    
    67   32   64 1    
    68   33   34 1    
    69   33   35 1    
    70   33   36 1    
    71   34   65 1    
    72   34   66 1    
    73   35   67 1    
    74   35   68 1    
@<TRIPOS>SUBSTRUCTURE
     1 UNK         1 GROUP             0       ****    0 ROOT    
