ZINC13016794_5930
                    3D
 Schrodinger Suite 2024-2.
 56 59  0  0  1  0            999 V2000
   -1.9136   46.8625   25.2527 C   0  0  0  0  0  0
   -1.6256   47.4249   23.8705 C   0  0  0  0  0  0
   -2.0450   46.7343   22.7342 C   0  0  0  0  0  0
   -1.7745   47.2445   21.4664 C   0  0  0  0  0  0
   -1.1076   48.4649   21.3137 C   0  0  0  0  0  0
   -0.6891   49.1742   22.4560 C   0  0  0  0  0  0
   -0.9411   48.6343   23.7299 C   0  0  0  0  0  0
   -0.1359   50.4589   22.2821 N   0  0  0  0  0  0
    0.6510   51.1600   23.1244 C   0  0  0  0  0  0
    1.2493   50.6677   24.0794 O   0  0  0  0  0  0
    0.7139   52.6795   22.8733 C   0  0  1  0  0  0
    0.0126   52.8965   22.0688 H   0  0  0  0  0  0
    0.1380   53.4363   24.0823 C   0  0  0  0  0  0
    2.2885   53.2497   22.1099 S   0  0  0  0  0  0
    3.4849   53.6967   23.4194 C   0  0  0  0  0  0
    3.0525   53.6946   24.6293 N   0  0  0  0  0  0
    3.9083   53.8659   25.7189 C   0  0  0  0  0  0
    3.3836   53.7412   27.0042 C   0  0  0  0  0  0
    4.2315   53.8051   28.1226 C   0  0  0  0  0  0
    5.5958   54.0700   27.9273 C   0  0  0  0  0  0
    6.1178   54.2177   26.6409 C   0  0  0  0  0  0
    5.2667   54.0966   25.5364 C   0  0  0  0  0  0
    5.8078   54.1019   24.1220 C   0  0  0  0  0  0
    7.0171   54.1841   23.8947 O   0  0  0  0  0  0
    4.8341   53.9721   23.1370 N   0  0  0  0  0  0
    5.2857   54.1164   21.7775 C   0  0  0  0  0  0
    5.9307   55.2959   21.3591 C   0  0  0  0  0  0
    6.3173   55.4708   20.0321 C   0  0  0  0  0  0
    6.0718   54.4656   19.1059 C   0  0  0  0  0  0
    5.4683   53.2777   19.5030 C   0  0  0  0  0  0
    5.0987   53.0910   20.8352 C   0  0  0  0  0  0
    6.4382   54.6361   17.8158 F   0  0  0  0  0  0
    3.7037   53.5511   29.4973 C   0  0  0  0  0  0
    3.9042   52.4149   29.9891 O   0  0  0  0  0  0
   -0.8446   48.9858   19.9046 C   0  0  0  0  0  0
   -1.2969   47.3327   26.0223 H   0  0  0  0  0  0
   -2.9635   46.9960   25.5117 H   0  0  0  0  0  0
   -1.6952   45.7961   25.2847 H   0  0  0  0  0  0
   -2.5753   45.8011   22.8286 H   0  0  0  0  0  0
   -2.0984   46.6893   20.5990 H   0  0  0  0  0  0
   -0.6492   49.1676   24.6244 H   0  0  0  0  0  0
   -0.3784   50.8975   21.4085 H   0  0  0  0  0  0
   -0.9357   53.2769   24.1826 H   0  0  0  0  0  0
    0.5892   53.1387   25.0283 H   0  0  0  0  0  0
    0.3056   54.4969   23.9646 H   0  0  0  0  0  0
    2.3310   53.5307   27.1274 H   0  0  0  0  0  0
    6.2644   54.1334   28.7771 H   0  0  0  0  0  0
    7.1784   54.3817   26.5142 H   0  0  0  0  0  0
    6.1557   56.0834   22.0596 H   0  0  0  0  0  0
    6.8026   56.3827   19.7178 H   0  0  0  0  0  0
    5.2925   52.4976   18.7758 H   0  0  0  0  0  0
    4.6487   52.1520   21.1206 H   0  0  0  0  0  0
    0.2055   49.2602   19.7930 H   0  0  0  0  0  0
   -1.0619   48.2414   19.1374 H   0  0  0  0  0  0
   -1.4430   49.8748   19.7072 H   0  0  0  0  0  0
    3.1062   54.4897   30.0751 O   0  5  0  0  0  0
  1  2  1  0  0  0
  1 36  1  0  0  0
  1 37  1  0  0  0
  1 38  1  0  0  0
  2  7  2  0  0  0
  2  3  1  0  0  0
  3  4  2  0  0  0
  3 39  1  0  0  0
  4  5  1  0  0  0
  4 40  1  0  0  0
  5  6  2  0  0  0
  5 35  1  0  0  0
  6  7  1  0  0  0
  6  8  1  0  0  0
  7 41  1  0  0  0
  8  9  1  0  0  0
  8 42  1  0  0  0
  9 10  2  0  0  0
  9 11  1  0  0  0
 11 12  1  0  0  0
 11 13  1  0  0  0
 11 14  1  0  0  0
 13 43  1  0  0  0
 13 44  1  0  0  0
 13 45  1  0  0  0
 14 15  1  0  0  0
 15 25  1  0  0  0
 15 16  2  0  0  0
 16 17  1  0  0  0
 17 22  2  0  0  0
 17 18  1  0  0  0
 18 19  2  0  0  0
 18 46  1  0  0  0
 19 20  1  0  0  0
 19 33  1  0  0  0
 20 21  2  0  0  0
 20 47  1  0  0  0
 21 22  1  0  0  0
 21 48  1  0  0  0
 22 23  1  0  0  0
 23 24  2  0  0  0
 23 25  1  0  0  0
 25 26  1  0  0  0
 26 31  2  0  0  0
 26 27  1  0  0  0
 27 28  2  0  0  0
 27 49  1  0  0  0
 28 29  1  0  0  0
 28 50  1  0  0  0
 29 30  2  0  0  0
 29 32  1  0  0  0
 30 31  1  0  0  0
 30 51  1  0  0  0
 31 52  1  0  0  0
 33 34  2  0  0  0
 33 56  1  0  0  0
 35 53  1  0  0  0
 35 54  1  0  0  0
 35 55  1  0  0  0
M  CHG  1  56  -1
M  END
> <i_i_glide_confnum>
1

> <i_i_glide_lignum>
5931

> <i_i_glide_posenum>
354

> <i_i_glide_rotatable_bonds>
7

> <i_m_Source_File_Index>
6032

> <b_m_subgroup_collapsed>
0

> <r_i_docking_score>
-5.928

> <r_i_glide_ecoul>
-3.17286

> <r_i_glide_eff_state_penalty>
0

> <r_i_glide_einternal>
13.6182

> <r_i_glide_emodel>
-59.856

> <r_i_glide_energy>
-47.6657

> <r_i_glide_erotb>
0.507475

> <r_i_glide_esite>
-0.00448719

> <r_i_glide_evdw>
-44.4928

> <r_i_glide_gscore>
-5.928

> <r_i_glide_hbond>
-0.16

> <r_i_glide_ligand_efficiency>
-0.169371

> <r_i_glide_ligand_efficiency_ln>
-1.30133

> <r_i_glide_ligand_efficiency_sa>
-0.554025

> <r_i_glide_lipo>
-2.62175

> <r_i_glide_metal>
0

> <r_i_glide_rewards>
-0.948659

> <s_i_glide_gridfile>
wee1_glide-grid

> <s_m_Source_File>
wee1_decoys_glide_SP.sdf

> <s_m_Source_Path>
/Users/zhangxujun/Desktop

> <s_m_entry_id>
6307

> <s_m_entry_name>
wee1_decoys_glide_SP.6032

> <s_m_subgroup_title>
wee1_decoys_glide_SP

> <s_m_subgroupid>
wee1_decoys_glide_SP


$$$$
