@<TRIPOS>MOLECULE
ZINC13701820_2246
44   47    1
SMALL
USER_CHARGES


@<TRIPOS>ATOM
      1 C1         13.1383   62.5805   17.5116 C.ar      1 UNK         0.0000 
      2 C2         13.9358   61.5405   17.9894 C.ar      1 UNK         0.0000 
      3 C3         13.3921   60.2989   18.3215 C.ar      1 UNK         0.0000 
      4 C4         12.0101   60.1306   18.1643 C.ar      1 UNK         0.0000 
      5 C5         11.1903   61.1830   17.6787 C.ar      1 UNK         0.0000 
      6 C6         11.7606   62.4215   17.3509 C.ar      1 UNK         0.0000 
      7 N7          9.8635   60.8969   17.5909 N.2       1 UNK         0.0000 
      8 C8          9.6113   59.6718   17.9512 C.2       1 UNK         0.0000 
      9 S9         11.0053   58.7274   18.4826 S.3       1 UNK         0.0000 
     10 N10         8.3024   59.2057   17.9223 N.am      1 UNK         0.0000 
     11 C11         7.8878   57.9287   18.0816 C.2       1 UNK         0.0000 
     12 O12         8.6373   56.9625   18.2231 O.2       1 UNK         0.0000 
     13 C13         6.3677   57.7194   18.0654 C.3       1 UNK         0.0000 
     14 S14         5.7935   55.9824   18.1503 S.3       1 UNK         0.0000 
     15 C15         5.8651   55.3816   19.8177 C.ar      1 UNK         0.0000 
     16 C16         6.8331   55.8118   20.7281 C.ar      1 UNK         0.0000 
     17 C17         6.7531   55.3518   22.0424 C.ar      1 UNK         0.0000 
     18 C18         5.6937   54.4965   22.3821 C.ar      1 UNK         0.0000 
     19 N19         4.8214   54.0520   21.4382 N.ar      1 UNK         0.0000 
     20 N20         4.9111   54.4808   20.1683 N.ar      1 UNK         0.0000 
     21 N21         5.3585   54.1095   23.6893 N.am      1 UNK         0.0000 
     22 C22         5.8668   54.5247   24.8708 C.2       1 UNK         0.0000 
     23 O23         6.9419   55.1125   25.0032 O.2       1 UNK         0.0000 
     24 C24         4.9856   54.2851   26.0812 C.ar      1 UNK         0.0000 
     25 C25         3.6568   53.8291   25.9669 C.ar      1 UNK         0.0000 
     26 C26         2.8447   53.6969   27.0935 C.ar      1 UNK         0.0000 
     27 C27         3.3366   54.0375   28.3506 C.ar      1 UNK         0.0000 
     28 C28         4.6442   54.4964   28.4793 C.ar      1 UNK         0.0000 
     29 C29         5.4689   54.5939   27.3621 C.ar      1 UNK         0.0000 
     30 F30         5.1044   54.8941   29.6817 F         1 UNK         0.0000 
     31 H31        13.5989   63.5250   17.2579 H         1 UNK         0.0000 
     32 H32        14.9997   61.6996   18.0956 H         1 UNK         0.0000 
     33 H33        14.0160   59.4933   18.6817 H         1 UNK         0.0000 
     34 H34        11.1539   63.2295   16.9695 H         1 UNK         0.0000 
     35 H35         7.6002   59.9002   17.6872 H         1 UNK         0.0000 
     36 H36         5.9107   58.2782   18.8811 H         1 UNK         0.0000 
     37 H37         5.9775   58.1452   17.1401 H         1 UNK         0.0000 
     38 H38         7.6205   56.4896   20.4456 H         1 UNK         0.0000 
     39 H39         7.4790   55.6990   22.7620 H         1 UNK         0.0000 
     40 H40         4.5233   53.5500   23.7450 H         1 UNK         0.0000 
     41 H41         3.2201   53.5826   25.0102 H         1 UNK         0.0000 
     42 H42         1.8279   53.3476   26.9884 H         1 UNK         0.0000 
     43 H43         2.7019   53.9622   29.2206 H         1 UNK         0.0000 
     44 H44         6.4735   54.9672   27.5062 H         1 UNK         0.0000 
@<TRIPOS>BOND
     1    1    6 ar   
     2    1    2 ar   
     3    1   31 1    
     4    2    3 ar   
     5    2   32 1    
     6    3    4 ar   
     7    3   33 1    
     8    4    9 1    
     9    4    5 ar   
    10    5    6 ar   
    11    5    7 1    
    12    6   34 1    
    13    7    8 2    
    14    8    9 1    
    15    8   10 am   BACKBONE|DICT|INTERRES
    16   10   11 am   BACKBONE|DICT|INTERRES
    17   10   35 1    
    18   11   12 2    
    19   11   13 1    
    20   13   14 1    
    21   13   36 1    
    22   13   37 1    
    23   14   15 1    
    24   15   20 ar   
    25   15   16 ar   
    26   16   17 ar   
    27   16   38 1    
    28   17   18 ar   
    29   17   39 1    
    30   18   19 ar   
    31   18   21 1    
    32   19   20 ar   
    33   21   22 am   BACKBONE|DICT|INTERRES
    34   21   40 1    
    35   22   23 2    
    36   22   24 1    
    37   24   29 ar   
    38   24   25 ar   
    39   25   26 ar   
    40   25   41 1    
    41   26   27 ar   
    42   26   42 1    
    43   27   28 ar   
    44   27   43 1    
    45   28   29 ar   
    46   28   30 1    
    47   29   44 1    
@<TRIPOS>SUBSTRUCTURE
     1 UNK         1 GROUP             0       ****    0 ROOT    
