@<TRIPOS>MOLECULE
ZINC22264597_498
45   47    1
SMALL
USER_CHARGES


@<TRIPOS>ATOM
      1 C1          1.2728   54.6269   30.3638 C.3       1 UNK         0.0000 
      2 O2          2.0255   53.4724   29.9932 O.3       1 UNK         0.0000 
      3 C3          2.8203   53.6545   28.8893 C.ar      1 UNK         0.0000 
      4 C4          4.0643   54.2583   29.0639 C.ar      1 UNK         0.0000 
      5 C5          4.8935   54.4957   27.9737 C.ar      1 UNK         0.0000 
      6 C6          4.4858   54.1602   26.6760 C.ar      1 UNK         0.0000 
      7 C7          3.2378   53.5265   26.5084 C.ar      1 UNK         0.0000 
      8 C8          2.4215   53.2335   27.6106 C.ar      1 UNK         0.0000 
      9 S9          0.8613   52.3432   27.4123 S.o2      1 UNK         0.0000 
     10 O10         1.1347   50.9293   27.6816 O.2       1 UNK         0.0000 
     11 O11        -0.1395   53.0680   28.1993 O.2       1 UNK         0.0000 
     12 N12         0.2932   52.4970   25.7352 N.pl3     1 UNK         0.0000 
     13 C13         0.7092   51.7188   24.6531 C.ar      1 UNK         0.0000 
     14 C14         1.0333   52.3670   23.4599 C.ar      1 UNK         0.0000 
     15 C15         1.3780   51.6226   22.3353 C.ar      1 UNK         0.0000 
     16 C16         1.4051   50.2339   22.4091 C.ar      1 UNK         0.0000 
     17 C17         1.0637   49.5842   23.5917 C.ar      1 UNK         0.0000 
     18 C18         0.7043   50.3239   24.7133 C.ar      1 UNK         0.0000 
     19 Br19        1.9033   49.2172   20.8814 Br        1 UNK         0.0000 
     20 C20         5.3918   54.4965   25.5085 C.2       1 UNK         0.0000 
     21 O21         6.4572   55.0986   25.6779 O.2       1 UNK         0.0000 
     22 N22         4.9425   54.1049   24.1594 N.am      1 UNK         0.0000 
     23 C23         5.5474   54.4627   22.9048 C.ar      1 UNK         0.0000 
     24 C24         4.9305   54.1351   21.6826 C.ar      1 UNK         0.0000 
     25 C25         5.5024   54.5578   20.4769 C.ar      1 UNK         0.0000 
     26 C26         6.6885   55.2964   20.4906 C.ar      1 UNK         0.0000 
     27 C27         7.2913   55.5776   21.7161 C.ar      1 UNK         0.0000 
     28 N28         6.7049   55.1582   22.8573 N.pl3     1 UNK         0.0000 
     29 O29         3.8485   53.4754   21.6541 O.co2     1 UNK         0.0000 
     30 H30         0.5592   54.3589   31.1444 H         1 UNK         0.0000 
     31 H31         1.9096   55.4217   30.7537 H         1 UNK         0.0000 
     32 H32         0.7102   55.0440   29.5273 H         1 UNK         0.0000 
     33 H33         4.3898   54.5497   30.0514 H         1 UNK         0.0000 
     34 H34         5.8486   54.9715   28.1522 H         1 UNK         0.0000 
     35 H35         2.9057   53.2223   25.5282 H         1 UNK         0.0000 
     36 H36         1.0182   53.4452   23.3913 H         1 UNK         0.0000 
     37 H37         1.6288   52.1207   21.4104 H         1 UNK         0.0000 
     38 H38         1.0799   48.5061   23.6436 H         1 UNK         0.0000 
     39 H39         0.4152   49.8053   25.6158 H         1 UNK         0.0000 
     40 H40         4.0885   53.5707   24.0935 H         1 UNK         0.0000 
     41 H41         5.0254   54.3146   19.5380 H         1 UNK         0.0000 
     42 H42         7.1423   55.6187   19.5646 H         1 UNK         0.0000 
     43 H43         8.2312   56.0984   21.8361 H         1 UNK         0.0000 
     44 H44         7.1614   55.3668   23.7368 H         1 UNK         0.0000 
     45 H45        -0.1479   53.3773   25.5220 H         1 UNK         0.0000 
@<TRIPOS>BOND
     1    1    2 1    
     2    1   30 1    
     3    1   31 1    
     4    1   32 1    
     5    2    3 1    
     6    3    8 ar   
     7    3    4 ar   
     8    4    5 ar   
     9    4   33 1    
    10    5    6 ar   
    11    5   34 1    
    12    6    7 ar   
    13    6   20 1    
    14    7    8 ar   
    15    7   35 1    
    16    8    9 1    
    17    9   10 2    
    18    9   11 2    
    19    9   12 1    
    20   12   13 1    
    21   12   45 1    
    22   13   18 ar   
    23   13   14 ar   
    24   14   15 ar   
    25   14   36 1    
    26   15   16 ar   
    27   15   37 1    
    28   16   17 ar   
    29   16   19 1    
    30   17   18 ar   
    31   17   38 1    
    32   18   39 1    
    33   20   21 2    
    34   20   22 am   BACKBONE|DICT|INTERRES
    35   22   40 1    
    36   22   23 1    
    37   23   24 ar   
    38   23   28 ar   
    39   24   29 1    
    40   24   25 ar   
    41   25   26 ar   
    42   25   41 1    
    43   26   27 ar   
    44   26   42 1    
    45   27   28 ar   
    46   27   43 1    
    47   28   44 1    
@<TRIPOS>SUBSTRUCTURE
     1 UNK         1 GROUP             0       ****    0 ROOT    
