@<TRIPOS>MOLECULE
ZINC28250035_4436
56   59    1
SMALL
USER_CHARGES


@<TRIPOS>ATOM
      1 C1          2.2938   52.0857   18.1921 C.3       1 UNK         0.0000 
      2 C2          1.9120   50.9696   19.1980 C.3       1 UNK         0.0000 
      3 C3          0.4773   50.4750   18.8766 C.3       1 UNK         0.0000 
      4 C4         -0.6376   51.3368   19.4787 C.2       1 UNK         0.0000 
      5 O5         -1.5518   51.8157   18.8094 O.2       1 UNK         0.0000 
      6 C6         -0.5125   51.5729   20.9890 C.3       1 UNK         0.0000 
      7 H7         -1.2546   52.3287   21.2481 H         1 UNK         0.0000 
      8 C8          0.9087   52.1410   21.3463 C.3       1 UNK         0.0000 
      9 H9          0.9311   53.1162   20.8578 H         1 UNK         0.0000 
     10 C10         2.0977   51.3200   20.7261 C.3       1 UNK         0.0000 
     11 H11         2.1486   50.3778   21.2764 H         1 UNK         0.0000 
     12 C12         3.4819   51.9966   20.9824 C.2       1 UNK         0.0000 
     13 O13         4.4462   51.2964   21.2815 O.2       1 UNK         0.0000 
     14 N14         3.5807   53.3406   20.8817 N.am      1 UNK         0.0000 
     15 C15         4.7421   54.0726   21.1681 C.ar      1 UNK         0.0000 
     16 C16         5.3527   53.9962   22.4272 C.ar      1 UNK         0.0000 
     17 C17         6.5075   54.7325   22.6822 C.ar      1 UNK         0.0000 
     18 C18         7.0443   55.5414   21.6820 C.ar      1 UNK         0.0000 
     19 C19         6.4300   55.6314   20.4334 C.ar      1 UNK         0.0000 
     20 C20         5.2737   54.8968   20.1756 C.ar      1 UNK         0.0000 
     21 C21         1.1069   52.4611   22.8336 C.2       1 UNK         0.0000 
     22 C22         1.3894   53.6958   23.4203 C.2       1 UNK         0.0000 
     23 C23         1.5593   53.6532   24.8045 C.2       1 UNK         0.0000 
     24 C24         1.3812   52.3959   25.3272 C.2       1 UNK         0.0000 
     25 S25         1.1046   51.2372   24.0825 S.3       1 UNK         0.0000 
     26 C26        -0.9236   50.2962   21.7716 C.2       1 UNK         0.0000 
     27 O27        -0.3069   49.2414   21.6082 O.2       1 UNK         0.0000 
     28 N28        -1.9512   50.4279   22.6391 N.am      1 UNK         0.0000 
     29 C29        -2.3726   49.5126   23.6209 C.ar      1 UNK         0.0000 
     30 C30        -1.5029   48.6074   24.2507 C.ar      1 UNK         0.0000 
     31 C31        -1.9703   47.7956   25.2803 C.ar      1 UNK         0.0000 
     32 C32        -3.3012   47.8822   25.6785 C.ar      1 UNK         0.0000 
     33 C33        -4.1723   48.7722   25.0554 C.ar      1 UNK         0.0000 
     34 C34        -3.7055   49.5934   24.0317 C.ar      1 UNK         0.0000 
     35 O35         2.7042   49.8434   18.8818 O.3       1 UNK         0.0000 
     36 H36         1.7400   53.0045   18.3873 H         1 UNK         0.0000 
     37 H37         3.3573   52.3255   18.2257 H         1 UNK         0.0000 
     38 H38         2.0837   51.7878   17.1638 H         1 UNK         0.0000 
     39 H39         0.3381   49.4658   19.2621 H         1 UNK         0.0000 
     40 H40         0.3226   50.4041   17.7997 H         1 UNK         0.0000 
     41 H41         2.8067   53.8552   20.4823 H         1 UNK         0.0000 
     42 H42         4.9390   53.3627   23.1984 H         1 UNK         0.0000 
     43 H43         6.9935   54.6677   23.6453 H         1 UNK         0.0000 
     44 H44         7.9500   56.0963   21.8811 H         1 UNK         0.0000 
     45 H45         6.8529   56.2584   19.6627 H         1 UNK         0.0000 
     46 H46         4.8031   54.9590   19.2044 H         1 UNK         0.0000 
     47 H47         1.4909   54.6051   22.8461 H         1 UNK         0.0000 
     48 H48         1.8091   54.4967   25.4184 H         1 UNK         0.0000 
     49 H49         1.4484   52.0859   26.3596 H         1 UNK         0.0000 
     50 H50        -2.4870   51.2796   22.5941 H         1 UNK         0.0000 
     51 H51        -0.4584   48.5484   23.9831 H         1 UNK         0.0000 
     52 H52        -1.2965   47.1267   25.7959 H         1 UNK         0.0000 
     53 H53        -3.6497   47.2705   26.4979 H         1 UNK         0.0000 
     54 H54        -5.1998   48.8405   25.3785 H         1 UNK         0.0000 
     55 H55        -4.3848   50.2955   23.5700 H         1 UNK         0.0000 
     56 H56         3.4922   50.0990   18.3766 H         1 UNK         0.0000 
@<TRIPOS>BOND
     1    1    2 1    
     2    1   36 1    
     3    1   37 1    
     4    1   38 1    
     5    2   10 1    
     6    2    3 1    
     7    2   35 1    
     8    3    4 1    
     9    3   39 1    
    10    3   40 1    
    11    4    5 2    
    12    4    6 1    
    13    6    7 1    
    14    6    8 1    
    15    6   26 1    
    16    8    9 1    
    17    8   10 1    
    18    8   21 1    
    19   10   11 1    
    20   10   12 1    
    21   12   13 2    
    22   12   14 am   BACKBONE|DICT|INTERRES
    23   14   15 1    
    24   14   41 1    
    25   15   20 ar   
    26   15   16 ar   
    27   16   17 ar   
    28   16   42 1    
    29   17   18 ar   
    30   17   43 1    
    31   18   19 ar   
    32   18   44 1    
    33   19   20 ar   
    34   19   45 1    
    35   20   46 1    
    36   21   25 1    
    37   21   22 2    
    38   22   23 1    
    39   22   47 1    
    40   23   24 2    
    41   23   48 1    
    42   24   25 1    
    43   24   49 1    
    44   26   27 2    
    45   26   28 am   BACKBONE|DICT|INTERRES
    46   28   29 1    
    47   28   50 1    
    48   29   34 ar   
    49   29   30 ar   
    50   30   31 ar   
    51   30   51 1    
    52   31   32 ar   
    53   31   52 1    
    54   32   33 ar   
    55   32   53 1    
    56   33   34 ar   
    57   33   54 1    
    58   34   55 1    
    59   35   56 1    
@<TRIPOS>SUBSTRUCTURE
     1 UNK         1 GROUP             0       ****    0 ROOT    
