@<TRIPOS>MOLECULE
ZINC11859250_3509
62   65    1
SMALL
USER_CHARGES


@<TRIPOS>ATOM
      1 C1          0.6589   51.4473   28.7232 C.3       1 UNK         0.0000 
      2 C2          0.2099   51.6322   27.2621 C.3       1 UNK         0.0000 
      3 N3          1.1481   52.4036   26.4269 N.pl3     1 UNK         0.0000 
      4 C4          1.5627   53.7025   26.9827 C.3       1 UNK         0.0000 
      5 C5          3.0314   53.7865   27.3766 C.ar      1 UNK         0.0000 
      6 C6          3.3712   54.0681   28.7021 C.ar      1 UNK         0.0000 
      7 C7          4.7043   54.2555   29.0530 C.ar      1 UNK         0.0000 
      8 C8          5.6982   54.1463   28.0830 C.ar      1 UNK         0.0000 
      9 C9          5.3682   53.8685   26.7591 C.ar      1 UNK         0.0000 
     10 C10         4.0324   53.6967   26.4049 C.ar      1 UNK         0.0000 
     11 C11         1.0855   52.2079   25.0111 C.ar      1 UNK         0.0000 
     12 C12         0.9503   50.9128   24.4821 C.ar      1 UNK         0.0000 
     13 C13         0.9541   50.6773   23.1137 C.ar      1 UNK         0.0000 
     14 C14         1.0667   51.7421   22.2176 C.ar      1 UNK         0.0000 
     15 C15         1.1705   53.0368   22.7197 C.ar      1 UNK         0.0000 
     16 C16         1.1962   53.2659   24.0885 C.ar      1 UNK         0.0000 
     17 C17         1.0810   51.5148   20.6978 C.3       1 UNK         0.0000 
     18 H18         0.1769   52.0388   20.3872 H         1 UNK         0.0000 
     19 C19         2.2851   52.1663   19.9167 C.3       1 UNK         0.0000 
     20 H20         2.1140   53.2416   19.8994 H         1 UNK         0.0000 
     21 C21         2.3159   51.6646   18.4262 C.3       1 UNK         0.0000 
     22 N22         2.3043   50.1921   18.4816 N.am      1 UNK         0.0000 
     23 C23         1.5404   49.4408   19.3017 C.2       1 UNK         0.0000 
     24 O24         1.4659   48.2192   19.2129 O.2       1 UNK         0.0000 
     25 N25         0.8661   50.1183   20.2546 N.am      1 UNK         0.0000 
     26 C26         1.1486   52.2707   17.5686 C.3       1 UNK         0.0000 
     27 F27        -0.0631   51.9011   17.9861 F         1 UNK         0.0000 
     28 F28         1.1628   53.6059   17.5761 F         1 UNK         0.0000 
     29 F29         1.2246   51.8881   16.2913 F         1 UNK         0.0000 
     30 O30         3.5041   52.0967   17.7799 O.3       1 UNK         0.0000 
     31 C31         3.6440   51.9872   20.6671 C.2       1 UNK         0.0000 
     32 O32         3.9043   50.8993   21.1840 O.2       1 UNK         0.0000 
     33 C33         4.4774   53.2087   20.9123 C.ar      1 UNK         0.0000 
     34 C34         4.6333   54.1935   19.9267 C.ar      1 UNK         0.0000 
     35 C35         5.5048   55.2598   20.1280 C.ar      1 UNK         0.0000 
     36 C36         6.2053   55.3638   21.3258 C.ar      1 UNK         0.0000 
     37 C37         6.0295   54.4198   22.3328 C.ar      1 UNK         0.0000 
     38 C38         5.1886   53.3311   22.1137 C.ar      1 UNK         0.0000 
     39 H39        -0.0953   50.8966   29.2813 H         1 UNK         0.0000 
     40 H40         1.5977   50.8973   28.7804 H         1 UNK         0.0000 
     41 H41         0.7900   52.3897   29.2517 H         1 UNK         0.0000 
     42 H42        -0.7510   52.1494   27.2504 H         1 UNK         0.0000 
     43 H43        -0.0013   50.6436   26.8583 H         1 UNK         0.0000 
     44 H44         1.4208   54.4967   26.2826 H         1 UNK         0.0000 
     45 H45         0.9343   53.9865   27.8271 H         1 UNK         0.0000 
     46 H46         2.6026   54.1668   29.4542 H         1 UNK         0.0000 
     47 H47         4.9660   54.4970   30.0730 H         1 UNK         0.0000 
     48 H48         6.7322   54.2910   28.3624 H         1 UNK         0.0000 
     49 H49         6.1415   53.7874   26.0103 H         1 UNK         0.0000 
     50 H50         3.7772   53.4927   25.3759 H         1 UNK         0.0000 
     51 H51         0.9014   50.0489   25.1274 H         1 UNK         0.0000 
     52 H52         0.8902   49.6560   22.7694 H         1 UNK         0.0000 
     53 H53         1.2656   53.8780   22.0507 H         1 UNK         0.0000 
     54 H54         1.3014   54.2969   24.3739 H         1 UNK         0.0000 
     55 H55         2.9715   49.6968   17.8931 H         1 UNK         0.0000 
     56 H56         0.1352   49.5980   20.7115 H         1 UNK         0.0000 
     57 H57         4.1998   51.4256   17.9185 H         1 UNK         0.0000 
     58 H58         4.1033   54.1460   18.9880 H         1 UNK         0.0000 
     59 H59         5.6319   56.0047   19.3557 H         1 UNK         0.0000 
     60 H60         6.8836   56.1892   21.4823 H         1 UNK         0.0000 
     61 H61         6.5752   54.5071   23.2613 H         1 UNK         0.0000 
     62 H62         5.1045   52.5790   22.8812 H         1 UNK         0.0000 
@<TRIPOS>BOND
     1    1    2 1    
     2    1   39 1    
     3    1   40 1    
     4    1   41 1    
     5    2    3 1    
     6    2   42 1    
     7    2   43 1    
     8    3    4 1    
     9    3   11 1    
    10    4    5 1    
    11    4   44 1    
    12    4   45 1    
    13    5   10 ar   
    14    5    6 ar   
    15    6    7 ar   
    16    6   46 1    
    17    7    8 ar   
    18    7   47 1    
    19    8    9 ar   
    20    8   48 1    
    21    9   10 ar   
    22    9   49 1    
    23   10   50 1    
    24   11   16 ar   
    25   11   12 ar   
    26   12   13 ar   
    27   12   51 1    
    28   13   14 ar   
    29   13   52 1    
    30   14   15 ar   
    31   14   17 1    
    32   15   16 ar   
    33   15   53 1    
    34   16   54 1    
    35   17   18 1    
    36   17   25 1    
    37   17   19 1    
    38   19   20 1    
    39   19   21 1    
    40   19   31 1    
    41   21   22 1    
    42   21   26 1    
    43   21   30 1    
    44   22   23 am   BACKBONE|DICT|INTERRES
    45   22   55 1    
    46   23   24 2    
    47   23   25 am   BACKBONE|DICT|INTERRES
    48   25   56 1    
    49   26   27 1    
    50   26   28 1    
    51   26   29 1    
    52   30   57 1    
    53   31   32 2    
    54   31   33 1    
    55   33   38 ar   
    56   33   34 ar   
    57   34   35 ar   
    58   34   58 1    
    59   35   36 ar   
    60   35   59 1    
    61   36   37 ar   
    62   36   60 1    
    63   37   38 ar   
    64   37   61 1    
    65   38   62 1    
@<TRIPOS>SUBSTRUCTURE
     1 UNK         1 GROUP             0       ****    0 ROOT    
