@<TRIPOS>MOLECULE
ZINC12367990_4266
36   37    1
SMALL
USER_CHARGES


@<TRIPOS>ATOM
      1 C1          3.6455   54.6274   27.7866 C.ar      1 UNK         0.0000 
      2 C2          4.8274   53.9269   28.0335 C.ar      1 UNK         0.0000 
      3 C3          4.8261   53.0078   29.0735 C.ar      1 UNK         0.0000 
      4 C4          3.7293   52.8246   29.9087 C.ar      1 UNK         0.0000 
      5 C5          2.5680   53.5567   29.6767 C.ar      1 UNK         0.0000 
      6 C6          2.5487   54.4867   28.6376 C.ar      1 UNK         0.0000 
      7 Br7         1.1044   55.6969   28.4816 Br        1 UNK         0.0000 
      8 O8          1.4782   53.4054   30.4927 O.3       1 UNK         0.0000 
      9 Br9         3.9043   51.6966   31.4332 Br        1 UNK         0.0000 
     10 C10         6.1064   54.2105   27.3513 C.2       1 UNK         0.0000 
     11 N11         6.3446   54.3967   26.1145 N.2       1 UNK         0.0000 
     12 N12         5.3286   54.0969   25.2734 N.pl3     1 UNK         0.0000 
     13 C13         5.2961   54.3404   23.9304 C.2       1 UNK         0.0000 
     14 S14         6.6240   54.8967   23.0567 S.2       1 UNK         0.0000 
     15 N15         4.0437   54.0701   23.4463 N.pl3     1 UNK         0.0000 
     16 C16         3.4702   54.3189   22.1078 C.3       1 UNK         0.0000 
     17 C17         4.2971   54.0635   20.8351 C.3       1 UNK         0.0000 
     18 H18         5.0336   54.8493   20.6647 H         1 UNK         0.0000 
     19 C19         3.5044   53.7153   19.5773 C.3       1 UNK         0.0000 
     20 C20         4.4621   52.8570   18.8111 C.3       1 UNK         0.0000 
     21 C21         5.1809   52.0967   19.9195 C.3       1 UNK         0.0000 
     22 O22         4.9886   52.8492   21.0988 O.3       1 UNK         0.0000 
     23 H23         3.6047   55.3526   26.9913 H         1 UNK         0.0000 
     24 H24         5.7395   52.4967   29.2818 H         1 UNK         0.0000 
     25 H25         0.7232   53.9259   30.2074 H         1 UNK         0.0000 
     26 H26         6.9415   54.2764   28.0443 H         1 UNK         0.0000 
     27 H27         4.5072   53.7290   25.7292 H         1 UNK         0.0000 
     28 H28         3.3595   53.7716   24.1253 H         1 UNK         0.0000 
     29 H29         2.5898   53.6791   22.0544 H         1 UNK         0.0000 
     30 H30         3.0774   55.3212   22.0816 H         1 UNK         0.0000 
     31 H31         2.5893   53.1758   19.8241 H         1 UNK         0.0000 
     32 H32         3.1881   54.5951   19.0178 H         1 UNK         0.0000 
     33 H33         3.9523   52.1937   18.1086 H         1 UNK         0.0000 
     34 H34         5.1681   53.4698   18.2475 H         1 UNK         0.0000 
     35 H35         4.7045   51.1297   20.0816 H         1 UNK         0.0000 
     36 H36         6.2372   51.9869   19.6816 H         1 UNK         0.0000 
@<TRIPOS>BOND
     1    1    6 ar   
     2    1    2 ar   
     3    1   23 1    
     4    2    3 ar   
     5    2   10 1    
     6    3    4 ar   
     7    3   24 1    
     8    4    5 ar   
     9    4    9 1    
    10    5    6 ar   
    11    5    8 1    
    12    6    7 1    
    13    8   25 1    
    14   10   11 2    
    15   10   26 1    
    16   11   12 1    
    17   12   13 1    
    18   12   27 1    
    19   13   14 2    
    20   13   15 1    
    21   15   16 1    
    22   15   28 1    
    23   16   17 1    
    24   16   29 1    
    25   16   30 1    
    26   17   18 1    
    27   17   22 1    
    28   17   19 1    
    29   19   20 1    
    30   19   31 1    
    31   19   32 1    
    32   20   21 1    
    33   20   33 1    
    34   20   34 1    
    35   21   22 1    
    36   21   35 1    
    37   21   36 1    
@<TRIPOS>SUBSTRUCTURE
     1 UNK         1 GROUP             0       ****    0 ROOT    
