@<TRIPOS>MOLECULE
ZINC33009614_4542
60   63    1
SMALL
USER_CHARGES


@<TRIPOS>ATOM
      1 C1          8.1161   55.5474   18.6144 C.ar      1 UNK         0.0000 
      2 C2          6.9514   54.8524   18.2998 C.ar      1 UNK         0.0000 
      3 C3          6.0488   54.5294   19.3093 C.ar      1 UNK         0.0000 
      4 C4          6.3040   54.8975   20.6420 C.ar      1 UNK         0.0000 
      5 C5          7.4740   55.6216   20.9390 C.ar      1 UNK         0.0000 
      6 C6          8.3783   55.9328   19.9264 C.ar      1 UNK         0.0000 
      7 C7          5.3168   54.4961   21.7176 C.2       1 UNK         0.0000 
      8 O8          4.1655   54.1958   21.4072 O.2       1 UNK         0.0000 
      9 N9          5.7903   54.4984   22.9880 N.am      1 UNK         0.0000 
     10 C10         5.0902   54.3530   24.2058 C.ar      1 UNK         0.0000 
     11 C11         5.8243   54.5579   25.3727 C.ar      1 UNK         0.0000 
     12 C12         5.2276   54.4112   26.6235 C.ar      1 UNK         0.0000 
     13 C13         3.8813   54.0397   26.7487 C.ar      1 UNK         0.0000 
     14 C14         3.1293   53.8373   25.5666 C.ar      1 UNK         0.0000 
     15 C15         3.7345   54.0182   24.3126 C.ar      1 UNK         0.0000 
     16 N16         1.8026   53.3589   25.6626 N.am      1 UNK         0.0000 
     17 C17         1.1942   52.4381   24.8887 C.2       1 UNK         0.0000 
     18 O18         1.6913   51.9160   23.8907 O.2       1 UNK         0.0000 
     19 N19        -0.0043   52.0954   25.3932 N.am      1 UNK         0.0000 
     20 C20        -0.7092   50.9135   25.1120 C.ar      1 UNK         0.0000 
     21 C21        -0.0339   49.6811   25.0801 C.ar      1 UNK         0.0000 
     22 C22        -0.7324   48.4961   24.8814 C.ar      1 UNK         0.0000 
     23 C23        -2.1125   48.5260   24.7126 C.ar      1 UNK         0.0000 
     24 C24        -2.7969   49.7414   24.7412 C.ar      1 UNK         0.0000 
     25 C25        -2.1106   50.9493   24.9429 C.ar      1 UNK         0.0000 
     26 C26        -2.8900   52.2719   24.9689 C.3       1 UNK         0.0000 
     27 F27        -2.4600   53.0672   23.9898 F         1 UNK         0.0000 
     28 F28        -4.2027   52.1013   24.8049 F         1 UNK         0.0000 
     29 F29        -2.7031   52.8903   26.1355 F         1 UNK         0.0000 
     30 N30         3.3398   53.8332   28.0224 N.pl3     1 UNK         0.0000 
     31 C31         4.1173   53.3844   29.1948 C.3       1 UNK         0.0000 
     32 C32         3.3555   52.2610   29.9402 C.3       1 UNK         0.0000 
     33 C33         1.9120   52.6475   30.3202 C.3       1 UNK         0.0000 
     34 C34         1.1931   53.3251   29.1403 C.3       1 UNK         0.0000 
     35 C35         2.0687   54.4179   28.4857 C.3       1 UNK         0.0000 
     36 H36         8.8258   55.7889   17.8326 H         1 UNK         0.0000 
     37 H37         6.7505   54.5586   17.2792 H         1 UNK         0.0000 
     38 H38         5.1537   53.9787   19.0466 H         1 UNK         0.0000 
     39 H39         7.7118   55.9371   21.9465 H         1 UNK         0.0000 
     40 H40         9.2877   56.4736   20.1551 H         1 UNK         0.0000 
     41 H41         6.7729   54.7012   23.0856 H         1 UNK         0.0000 
     42 H42         6.8692   54.8283   25.3256 H         1 UNK         0.0000 
     43 H43         5.8279   54.5865   27.5052 H         1 UNK         0.0000 
     44 H44         3.1315   53.8598   23.4342 H         1 UNK         0.0000 
     45 H45         1.3957   53.4911   26.5759 H         1 UNK         0.0000 
     46 H46        -0.4490   52.7247   26.0434 H         1 UNK         0.0000 
     47 H47         1.0339   49.6308   25.2320 H         1 UNK         0.0000 
     48 H48        -0.2035   47.5530   24.8828 H         1 UNK         0.0000 
     49 H49        -2.6599   47.6064   24.5781 H         1 UNK         0.0000 
     50 H50        -3.8689   49.7338   24.6179 H         1 UNK         0.0000 
     51 H51         5.0706   52.9663   28.8645 H         1 UNK         0.0000 
     52 H52         4.3439   54.2292   29.8477 H         1 UNK         0.0000 
     53 H53         3.3634   51.3621   29.3197 H         1 UNK         0.0000 
     54 H54         3.9103   51.9943   30.8406 H         1 UNK         0.0000 
     55 H55         1.9083   53.3188   31.1780 H         1 UNK         0.0000 
     56 H56         1.3567   51.7655   30.6397 H         1 UNK         0.0000 
     57 H57         0.2592   53.7638   29.4877 H         1 UNK         0.0000 
     58 H58         0.9060   52.5792   28.3965 H         1 UNK         0.0000 
     59 H59         2.2855   55.2126   29.2024 H         1 UNK         0.0000 
     60 H60         1.5215   54.8964   27.6719 H         1 UNK         0.0000 
@<TRIPOS>BOND
     1    1    6 ar   
     2    1    2 ar   
     3    1   36 1    
     4    2    3 ar   
     5    2   37 1    
     6    3    4 ar   
     7    3   38 1    
     8    4    5 ar   
     9    4    7 1    
    10    5    6 ar   
    11    5   39 1    
    12    6   40 1    
    13    7    8 2    
    14    7    9 am   BACKBONE|DICT|INTERRES
    15    9   10 1    
    16    9   41 1    
    17   10   15 ar   
    18   10   11 ar   
    19   11   12 ar   
    20   11   42 1    
    21   12   13 ar   
    22   12   43 1    
    23   13   14 ar   
    24   13   30 1    
    25   14   15 ar   
    26   14   16 1    
    27   15   44 1    
    28   16   17 am   BACKBONE|DICT|INTERRES
    29   16   45 1    
    30   17   18 2    
    31   17   19 am   BACKBONE|DICT|INTERRES
    32   19   20 1    
    33   19   46 1    
    34   20   25 ar   
    35   20   21 ar   
    36   21   22 ar   
    37   21   47 1    
    38   22   23 ar   
    39   22   48 1    
    40   23   24 ar   
    41   23   49 1    
    42   24   25 ar   
    43   24   50 1    
    44   25   26 1    
    45   26   27 1    
    46   26   28 1    
    47   26   29 1    
    48   30   35 1    
    49   30   31 1    
    50   31   32 1    
    51   31   51 1    
    52   31   52 1    
    53   32   33 1    
    54   32   53 1    
    55   32   54 1    
    56   33   34 1    
    57   33   55 1    
    58   33   56 1    
    59   34   35 1    
    60   34   57 1    
    61   34   58 1    
    62   35   59 1    
    63   35   60 1    
@<TRIPOS>SUBSTRUCTURE
     1 UNK         1 GROUP             0       ****    0 ROOT    
