@<TRIPOS>MOLECULE
ZINC28791841_3383
55   59    1
SMALL
USER_CHARGES


@<TRIPOS>ATOM
      1 C1         -0.0358   52.0974   29.9504 C.ar      1 UNK         0.0000 
      2 C2          1.0571   52.4976   30.7148 C.ar      1 UNK         0.0000 
      3 C3          2.2077   52.9625   30.0817 C.ar      1 UNK         0.0000 
      4 C4          2.2591   53.0555   28.6871 C.ar      1 UNK         0.0000 
      5 C5          1.1549   52.6489   27.9293 C.ar      1 UNK         0.0000 
      6 C6          0.0094   52.1661   28.5597 C.ar      1 UNK         0.0000 
      7 C7          3.4792   53.5851   28.0074 C.2       1 UNK         0.0000 
      8 C8          3.8389   53.7870   26.6898 C.2       1 UNK         0.0000 
      9 C9          5.1323   54.3302   26.7184 C.2       1 UNK         0.0000 
     10 N10         5.5295   54.4956   27.9642 N.2       1 UNK         0.0000 
     11 O11         4.5096   54.0104   28.7846 O.3       1 UNK         0.0000 
     12 C12         5.8971   54.7703   25.5744 C.2       1 UNK         0.0000 
     13 O13         6.7043   55.6976   25.6680 O.2       1 UNK         0.0000 
     14 N14         5.6345   54.0878   24.4399 N.am      1 UNK         0.0000 
     15 N15         6.3305   54.4308   23.2821 N.am      1 UNK         0.0000 
     16 C16         5.6096   54.6216   22.1534 C.2       1 UNK         0.0000 
     17 O17         4.3841   54.4783   22.0825 O.2       1 UNK         0.0000 
     18 C18         6.3856   55.0509   20.9296 C.ar      1 UNK         0.0000 
     19 C19         7.6439   55.6701   21.0355 C.ar      1 UNK         0.0000 
     20 C20         8.3547   56.0346   19.8926 C.ar      1 UNK         0.0000 
     21 C21         7.8135   55.8109   18.6310 C.ar      1 UNK         0.0000 
     22 C22         6.5604   55.2087   18.5054 C.ar      1 UNK         0.0000 
     23 C23         5.8454   54.8399   19.6499 C.ar      1 UNK         0.0000 
     24 S24         5.8568   54.9784   16.8775 S.o2      1 UNK         0.0000 
     25 O25         6.9743   54.7173   15.9617 O.2       1 UNK         0.0000 
     26 O26         4.7258   54.0508   16.9919 O.2       1 UNK         0.0000 
     27 N27         5.1784   56.5698   16.4532 N.pl3     1 UNK         0.0000 
     28 C28         4.0896   57.0845   17.2798 C.3       1 UNK         0.0000 
     29 C29         3.5156   58.2786   16.5229 C.3       1 UNK         0.0000 
     30 C30         3.9344   57.9820   15.1170 C.ar      1 UNK         0.0000 
     31 C31         4.9268   57.0018   15.1404 C.ar      1 UNK         0.0000 
     32 C32         5.5619   56.6389   13.9473 C.ar      1 UNK         0.0000 
     33 C33         5.1891   57.2437   12.7460 C.ar      1 UNK         0.0000 
     34 C34         4.1983   58.2288   12.7342 C.ar      1 UNK         0.0000 
     35 C35         3.5790   58.6123   13.9253 C.ar      1 UNK         0.0000 
     36 H36        -0.9192   51.7150   30.4436 H         1 UNK         0.0000 
     37 H37         1.0063   52.4340   31.7930 H         1 UNK         0.0000 
     38 H38         3.0585   53.2559   30.6766 H         1 UNK         0.0000 
     39 H39         1.1772   52.7034   26.8494 H         1 UNK         0.0000 
     40 H40        -0.8412   51.8421   27.9754 H         1 UNK         0.0000 
     41 H41         3.2342   53.5719   25.8194 H         1 UNK         0.0000 
     42 H42         5.3855   53.1087   24.4709 H         1 UNK         0.0000 
     43 H43         7.2610   54.0377   23.2530 H         1 UNK         0.0000 
     44 H44         8.0955   55.8662   21.9980 H         1 UNK         0.0000 
     45 H45         9.3285   56.4952   19.9843 H         1 UNK         0.0000 
     46 H46         8.3685   56.1058   17.7509 H         1 UNK         0.0000 
     47 H47         4.8716   54.3783   19.5379 H         1 UNK         0.0000 
     48 H48         3.3245   56.3104   17.3614 H         1 UNK         0.0000 
     49 H49         4.4041   57.2965   18.3012 H         1 UNK         0.0000 
     50 H50         2.4311   58.3297   16.6313 H         1 UNK         0.0000 
     51 H51         3.9356   59.2201   16.8862 H         1 UNK         0.0000 
     52 H52         6.3463   55.8965   13.9299 H         1 UNK         0.0000 
     53 H53         5.6778   56.9588   11.8264 H         1 UNK         0.0000 
     54 H54         3.9266   58.7095   11.8045 H         1 UNK         0.0000 
     55 H55         2.8398   59.4004   13.9127 H         1 UNK         0.0000 
@<TRIPOS>BOND
     1    1    6 ar   
     2    1    2 ar   
     3    1   36 1    
     4    2    3 ar   
     5    2   37 1    
     6    3    4 ar   
     7    3   38 1    
     8    4    5 ar   
     9    4    7 1    
    10    5    6 ar   
    11    5   39 1    
    12    6   40 1    
    13    7   11 1    
    14    7    8 2    
    15    8    9 1    
    16    8   41 1    
    17    9   10 2    
    18    9   12 1    
    19   10   11 1    
    20   12   13 2    
    21   12   14 am   BACKBONE|DICT|INTERRES
    22   14   15 1    
    23   14   42 1    
    24   15   16 am   BACKBONE|DICT|INTERRES
    25   15   43 1    
    26   16   17 2    
    27   16   18 1    
    28   18   23 ar   
    29   18   19 ar   
    30   19   20 ar   
    31   19   44 1    
    32   20   21 ar   
    33   20   45 1    
    34   21   22 ar   
    35   21   46 1    
    36   22   23 ar   
    37   22   24 1    
    38   23   47 1    
    39   24   25 2    
    40   24   26 2    
    41   24   27 1    
    42   27   31 1    
    43   27   28 1    
    44   28   29 1    
    45   28   48 1    
    46   28   49 1    
    47   29   30 1    
    48   29   50 1    
    49   29   51 1    
    50   30   35 ar   
    51   30   31 ar   
    52   31   32 ar   
    53   32   33 ar   
    54   32   52 1    
    55   33   34 ar   
    56   33   53 1    
    57   34   35 ar   
    58   34   54 1    
    59   35   55 1    
@<TRIPOS>SUBSTRUCTURE
     1 UNK         1 GROUP             0       ****    0 ROOT    
