@<TRIPOS>MOLECULE
ZINC39836473_5311
66   69    1
SMALL
USER_CHARGES


@<TRIPOS>ATOM
      1 C1          3.6968   52.2515   29.4571 C.3       1 UNK         0.0000 
      2 C2          3.2175   53.6994   29.1588 C.3       1 UNK         0.0000 
      3 C3          1.8494   53.9069   29.8659 C.3       1 UNK         0.0000 
      4 C4          4.2371   54.6562   29.8092 C.3       1 UNK         0.0000 
      5 C5          3.0875   54.0055   27.6162 C.3       1 UNK         0.0000 
      6 H6          2.6206   54.9907   27.5309 H         1 UNK         0.0000 
      7 C7          2.1659   52.9830   26.9103 C.3       1 UNK         0.0000 
      8 C8          1.8526   53.3034   25.4466 C.3       1 UNK         0.0000 
      9 C9          3.1217   53.6994   24.6920 C.2       1 UNK         0.0000 
     10 C10         4.2799   54.0968   25.3697 C.2       1 UNK         0.0000 
     11 S11         5.5690   54.4966   24.2833 S.3       1 UNK         0.0000 
     12 C12         4.5750   54.0976   22.9041 C.2       1 UNK         0.0000 
     13 C13         3.3248   53.5834   23.2925 C.2       1 UNK         0.0000 
     14 C14         2.2939   53.1136   22.3869 C.2       1 UNK         0.0000 
     15 O15         1.1045   53.2961   22.6210 O.2       1 UNK         0.0000 
     16 N16         2.7272   52.4553   21.2931 N.am      1 UNK         0.0000 
     17 C17         1.8463   51.9020   20.2665 C.3       1 UNK         0.0000 
     18 H18         1.1330   52.6456   19.8973 H         1 UNK         0.0000 
     19 C19         2.6884   51.4373   19.0593 C.3       1 UNK         0.0000 
     20 C20         1.8060   50.6116   18.1211 C.3       1 UNK         0.0000 
     21 S21         0.7257   49.6098   19.2692 S.o2      1 UNK         0.0000 
     22 O22         1.2758   48.2665   19.4785 O.2       1 UNK         0.0000 
     23 O23        -0.6732   49.7860   18.8760 O.2       1 UNK         0.0000 
     24 C24         1.0965   50.6554   20.7763 C.3       1 UNK         0.0000 
     25 N25         4.9915   54.2736   21.5891 N.am      1 UNK         0.0000 
     26 C26         6.0333   54.9739   21.0965 C.2       1 UNK         0.0000 
     27 O27         6.8568   55.5950   21.7639 O.2       1 UNK         0.0000 
     28 C28         6.1359   54.9128   19.6579 C.2       1 UNK         0.0000 
     29 C29         5.0675   54.9275   18.8242 C.2       1 UNK         0.0000 
     30 C30         5.1107   54.8172   17.3544 C.ar      1 UNK         0.0000 
     31 C31         6.2106   54.2674   16.6822 C.ar      1 UNK         0.0000 
     32 C32         6.2062   54.1692   15.2929 C.ar      1 UNK         0.0000 
     33 C33         5.1033   54.6218   14.5707 C.ar      1 UNK         0.0000 
     34 C34         4.0071   55.1748   15.2278 C.ar      1 UNK         0.0000 
     35 C35         4.0105   55.2724   16.6177 C.ar      1 UNK         0.0000 
     36 C36         4.4628   54.0828   26.8815 C.3       1 UNK         0.0000 
     37 H37         4.6375   52.0229   28.9593 H         1 UNK         0.0000 
     38 H38         3.8637   52.0967   30.5231 H         1 UNK         0.0000 
     39 H39         2.9668   51.5047   29.1457 H         1 UNK         0.0000 
     40 H40         1.4835   54.9290   29.7448 H         1 UNK         0.0000 
     41 H41         1.0737   53.2381   29.4989 H         1 UNK         0.0000 
     42 H42         1.9047   53.7028   30.9323 H         1 UNK         0.0000 
     43 H43         3.9435   55.6967   29.6707 H         1 UNK         0.0000 
     44 H44         4.3050   54.4907   30.8805 H         1 UNK         0.0000 
     45 H45         5.2479   54.5379   29.4153 H         1 UNK         0.0000 
     46 H46         2.6024   51.9978   26.9979 H         1 UNK         0.0000 
     47 H47         1.2077   52.8914   27.4175 H         1 UNK         0.0000 
     48 H48         1.1160   54.0976   25.3642 H         1 UNK         0.0000 
     49 H49         1.3811   52.4249   25.0044 H         1 UNK         0.0000 
     50 H50         3.7074   52.2210   21.2242 H         1 UNK         0.0000 
     51 H51         3.5085   50.8146   19.4072 H         1 UNK         0.0000 
     52 H52         3.1598   52.2767   18.5431 H         1 UNK         0.0000 
     53 H53         2.3015   49.9737   17.3936 H         1 UNK         0.0000 
     54 H54         1.1580   51.2941   17.5769 H         1 UNK         0.0000 
     55 H55         0.2552   50.7769   21.4524 H         1 UNK         0.0000 
     56 H56         1.8294   50.0481   21.3049 H         1 UNK         0.0000 
     57 H57         4.3532   53.9120   20.8965 H         1 UNK         0.0000 
     58 H58         7.1459   54.8653   19.2804 H         1 UNK         0.0000 
     59 H59         4.0684   55.0062   19.2363 H         1 UNK         0.0000 
     60 H60         7.0675   53.8964   17.2269 H         1 UNK         0.0000 
     61 H61         7.0515   53.7387   14.7776 H         1 UNK         0.0000 
     62 H62         5.1010   54.5474   13.4937 H         1 UNK         0.0000 
     63 H63         3.1549   55.5263   14.6634 H         1 UNK         0.0000 
     64 H64         3.1530   55.7009   17.1182 H         1 UNK         0.0000 
     65 H65         5.0755   53.2153   27.1296 H         1 UNK         0.0000 
     66 H66         5.0182   54.9682   27.1917 H         1 UNK         0.0000 
@<TRIPOS>BOND
     1    1    2 1    
     2    1   37 1    
     3    1   38 1    
     4    1   39 1    
     5    2    3 1    
     6    2    4 1    
     7    2    5 1    
     8    3   40 1    
     9    3   41 1    
    10    3   42 1    
    11    4   43 1    
    12    4   44 1    
    13    4   45 1    
    14    5    6 1    
    15    5   36 1    
    16    5    7 1    
    17    7    8 1    
    18    7   46 1    
    19    7   47 1    
    20    8    9 1    
    21    8   48 1    
    22    8   49 1    
    23    9   13 1    
    24    9   10 2    
    25   10   11 1    
    26   10   36 1    
    27   11   12 1    
    28   12   13 2    
    29   12   25 am   BACKBONE|DICT|INTERRES
    30   13   14 1    
    31   14   15 2    
    32   14   16 am   BACKBONE|DICT|INTERRES
    33   16   17 1    
    34   16   50 1    
    35   17   18 1    
    36   17   24 1    
    37   17   19 1    
    38   19   20 1    
    39   19   51 1    
    40   19   52 1    
    41   20   21 1    
    42   20   53 1    
    43   20   54 1    
    44   21   22 2    
    45   21   23 2    
    46   21   24 1    
    47   24   55 1    
    48   24   56 1    
    49   25   26 am   BACKBONE|DICT|INTERRES
    50   25   57 1    
    51   26   27 2    
    52   26   28 1    
    53   28   29 2    
    54   28   58 1    
    55   29   30 1    
    56   29   59 1    
    57   30   35 ar   
    58   30   31 ar   
    59   31   32 ar   
    60   31   60 1    
    61   32   33 ar   
    62   32   61 1    
    63   33   34 ar   
    64   33   62 1    
    65   34   35 ar   
    66   34   63 1    
    67   35   64 1    
    68   36   65 1    
    69   36   66 1    
@<TRIPOS>SUBSTRUCTURE
     1 UNK         1 GROUP             0       ****    0 ROOT    
