@<TRIPOS>MOLECULE
ZINC57898302_2571
53   55    1
SMALL
USER_CHARGES


@<TRIPOS>ATOM
      1 C1          5.3656   56.0669   17.8639 C.3       1 UNK         0.0000 
      2 C2          6.0166   54.7592   18.3706 C.3       1 UNK         0.0000 
      3 H3          5.4389   53.9582   17.9032 H         1 UNK         0.0000 
      4 C4          7.4727   54.5811   17.9182 C.ar      1 UNK         0.0000 
      5 C5          8.4151   55.6052   18.0904 C.ar      1 UNK         0.0000 
      6 C6          9.7340   55.4368   17.6781 C.ar      1 UNK         0.0000 
      7 C7         10.1256   54.2500   17.0661 C.ar      1 UNK         0.0000 
      8 C8          9.1936   53.2312   16.8584 C.ar      1 UNK         0.0000 
      9 C9          7.8717   53.3957   17.2817 C.ar      1 UNK         0.0000 
     10 S10         9.6976   51.7118   16.0611 S.o2      1 UNK         0.0000 
     11 O11         8.7190   51.4249   15.0083 O.2       1 UNK         0.0000 
     12 O12        11.1299   51.8003   15.7637 O.2       1 UNK         0.0000 
     13 N13         9.5047   50.4969   17.2816 N.pl3     1 UNK         0.0000 
     14 N14         5.8243   54.5474   19.8106 N.am      1 UNK         0.0000 
     15 C15         6.2365   55.3421   20.8187 C.2       1 UNK         0.0000 
     16 O16         6.8341   56.4066   20.6502 O.2       1 UNK         0.0000 
     17 C17         5.9038   54.8821   22.2165 C.ar      1 UNK         0.0000 
     18 C18         4.7630   54.1158   22.4910 C.ar      1 UNK         0.0000 
     19 C19         4.4172   53.8265   23.8090 C.ar      1 UNK         0.0000 
     20 C20         5.2066   54.2711   24.8791 C.ar      1 UNK         0.0000 
     21 C21         6.3645   54.9987   24.5949 C.ar      1 UNK         0.0000 
     22 C22         6.7044   55.2967   23.2821 C.ar      1 UNK         0.0000 
     23 C23         4.8022   53.9312   26.3289 C.3       1 UNK         0.0000 
     24 C24         5.7364   54.5088   27.4267 C.3       1 UNK         0.0000 
     25 C25         5.2786   54.1620   28.8528 C.3       1 UNK         0.0000 
     26 C26         3.8014   54.4969   29.1097 C.3       1 UNK         0.0000 
     27 C27         2.8912   53.8517   28.0560 C.3       1 UNK         0.0000 
     28 C28         3.3098   54.2359   26.6265 C.3       1 UNK         0.0000 
     29 H29         5.3919   56.1237   16.7747 H         1 UNK         0.0000 
     30 H30         4.3181   56.1242   18.1666 H         1 UNK         0.0000 
     31 H31         5.8621   56.9563   18.2531 H         1 UNK         0.0000 
     32 H32         8.1349   56.5382   18.5544 H         1 UNK         0.0000 
     33 H33        10.4545   56.2252   17.8404 H         1 UNK         0.0000 
     34 H34        11.1535   54.1298   16.7543 H         1 UNK         0.0000 
     35 H35         7.1602   52.5934   17.1240 H         1 UNK         0.0000 
     36 H36         9.4996   49.5519   16.8936 H         1 UNK         0.0000 
     37 H37        10.2309   50.5764   18.0066 H         1 UNK         0.0000 
     38 H38         5.4377   53.6510   20.0673 H         1 UNK         0.0000 
     39 H39         4.1052   53.7864   21.6997 H         1 UNK         0.0000 
     40 H40         3.5224   53.2511   23.9877 H         1 UNK         0.0000 
     41 H41         7.0135   55.3607   25.3757 H         1 UNK         0.0000 
     42 H42         7.5823   55.8997   23.0992 H         1 UNK         0.0000 
     43 H43         4.9268   52.8559   26.3792 H         1 UNK         0.0000 
     44 H44         6.7429   54.1012   27.3139 H         1 UNK         0.0000 
     45 H45         5.7996   55.5938   27.3412 H         1 UNK         0.0000 
     46 H46         5.4456   53.0986   29.0346 H         1 UNK         0.0000 
     47 H47         5.9017   54.7021   29.5667 H         1 UNK         0.0000 
     48 H48         3.5126   54.1584   30.1025 H         1 UNK         0.0000 
     49 H49         3.6602   55.5790   29.1014 H         1 UNK         0.0000 
     50 H50         2.9236   52.7662   28.1633 H         1 UNK         0.0000 
     51 H51         1.8535   54.1444   28.2295 H         1 UNK         0.0000 
     52 H52         3.1161   55.2965   26.4734 H         1 UNK         0.0000 
     53 H53         2.6587   53.6721   25.9576 H         1 UNK         0.0000 
@<TRIPOS>BOND
     1    1    2 1    
     2    1   29 1    
     3    1   30 1    
     4    1   31 1    
     5    2    3 1    
     6    2    4 1    
     7    2   14 1    
     8    4    9 ar   
     9    4    5 ar   
    10    5    6 ar   
    11    5   32 1    
    12    6    7 ar   
    13    6   33 1    
    14    7    8 ar   
    15    7   34 1    
    16    8    9 ar   
    17    8   10 1    
    18    9   35 1    
    19   10   11 2    
    20   10   12 2    
    21   10   13 1    
    22   13   36 1    
    23   13   37 1    
    24   14   15 am   BACKBONE|DICT|INTERRES
    25   14   38 1    
    26   15   16 2    
    27   15   17 1    
    28   17   22 ar   
    29   17   18 ar   
    30   18   19 ar   
    31   18   39 1    
    32   19   20 ar   
    33   19   40 1    
    34   20   21 ar   
    35   20   23 1    
    36   21   22 ar   
    37   21   41 1    
    38   22   42 1    
    39   23   28 1    
    40   23   24 1    
    41   23   43 1    
    42   24   25 1    
    43   24   44 1    
    44   24   45 1    
    45   25   26 1    
    46   25   46 1    
    47   25   47 1    
    48   26   27 1    
    49   26   48 1    
    50   26   49 1    
    51   27   28 1    
    52   27   50 1    
    53   27   51 1    
    54   28   52 1    
    55   28   53 1    
@<TRIPOS>SUBSTRUCTURE
     1 UNK         1 GROUP             0       ****    0 ROOT    
