@<TRIPOS>MOLECULE
ZINC14021394_4020
53   56    1
SMALL
USER_CHARGES


@<TRIPOS>ATOM
      1 C1         -0.3810   50.6966   24.7379 C.3       1 UNK         0.0000 
      2 C2         -0.0038   51.4128   26.0210 C.ar      1 UNK         0.0000 
      3 C3          0.7911   52.5549   25.9796 C.ar      1 UNK         0.0000 
      4 C4          1.1044   53.2233   27.1614 C.ar      1 UNK         0.0000 
      5 C5          0.6876   52.7124   28.3927 C.ar      1 UNK         0.0000 
      6 C6         -0.1242   51.5798   28.4299 C.ar      1 UNK         0.0000 
      7 C7         -0.4828   50.9483   27.2435 C.ar      1 UNK         0.0000 
      8 S8          1.1147   53.5445   29.9254 S.o2      1 UNK         0.0000 
      9 O9          0.7052   52.6717   31.0302 O.2       1 UNK         0.0000 
     10 O10         0.5810   54.8969   29.8108 O.2       1 UNK         0.0000 
     11 N11         2.8724   53.7182   29.9768 N.pl3     1 UNK         0.0000 
     12 C12         3.6888   52.7511   30.7425 C.3       1 UNK         0.0000 
     13 C13         4.5358   51.8933   29.7989 C.3       1 UNK         0.0000 
     14 C14         5.3066   52.7516   28.7585 C.3       1 UNK         0.0000 
     15 C15         4.2758   53.5793   27.9742 C.3       1 UNK         0.0000 
     16 H16         3.5885   52.8880   27.4916 H         1 UNK         0.0000 
     17 C17         3.5947   54.5465   28.9731 C.3       1 UNK         0.0000 
     18 C18         5.0107   54.3298   26.8535 C.2       1 UNK         0.0000 
     19 O19         5.9794   55.0312   27.1498 O.2       1 UNK         0.0000 
     20 N20         4.5707   54.0967   25.5928 N.am      1 UNK         0.0000 
     21 C21         5.1948   54.4585   24.4037 C.2       1 UNK         0.0000 
     22 N22         4.7240   54.1187   23.2252 N.2       1 UNK         0.0000 
     23 C23         5.5096   54.4967   22.2179 C.2       1 UNK         0.0000 
     24 C24         6.7037   55.0911   22.6319 C.2       1 UNK         0.0000 
     25 S25         6.7045   55.2967   24.3429 S.3       1 UNK         0.0000 
     26 C26         5.0989   54.2792   20.7868 C.ar      1 UNK         0.0000 
     27 C27         4.3225   53.1503   20.4824 C.ar      1 UNK         0.0000 
     28 C28         3.9073   52.8958   19.1767 C.ar      1 UNK         0.0000 
     29 C29         4.2619   53.7621   18.1483 C.ar      1 UNK         0.0000 
     30 C30         5.0260   54.8901   18.4293 C.ar      1 UNK         0.0000 
     31 C31         5.4424   55.1590   19.7341 C.ar      1 UNK         0.0000 
     32 Cl32        6.3065   56.6399   19.9864 Cl        1 UNK         0.0000 
     33 Cl33        3.7508   53.4445   16.5311 Cl        1 UNK         0.0000 
     34 H34        -0.3326   51.3645   23.8770 H         1 UNK         0.0000 
     35 H35         0.2804   49.8461   24.5682 H         1 UNK         0.0000 
     36 H36        -1.4057   50.3264   24.7929 H         1 UNK         0.0000 
     37 H37         1.1372   52.9461   25.0339 H         1 UNK         0.0000 
     38 H38         1.6672   54.1399   27.1038 H         1 UNK         0.0000 
     39 H39        -0.4970   51.1896   29.3673 H         1 UNK         0.0000 
     40 H40        -1.1396   50.0967   27.2811 H         1 UNK         0.0000 
     41 H41         3.0381   52.1117   31.3396 H         1 UNK         0.0000 
     42 H42         4.3044   53.2965   31.4553 H         1 UNK         0.0000 
     43 H43         3.8780   51.1959   29.2822 H         1 UNK         0.0000 
     44 H44         5.1900   51.2968   30.4218 H         1 UNK         0.0000 
     45 H45         5.8555   52.0967   28.0915 H         1 UNK         0.0000 
     46 H46         6.0041   53.4033   29.2815 H         1 UNK         0.0000 
     47 H47         4.3265   55.1379   29.5271 H         1 UNK         0.0000 
     48 H48         2.8780   55.2157   28.4968 H         1 UNK         0.0000 
     49 H49         3.7439   53.5293   25.4905 H         1 UNK         0.0000 
     50 H50         7.5384   55.4455   22.0456 H         1 UNK         0.0000 
     51 H51         4.0415   52.4515   21.2564 H         1 UNK         0.0000 
     52 H52         3.3284   52.0101   18.9562 H         1 UNK         0.0000 
     53 H53         5.2845   55.5697   17.6304 H         1 UNK         0.0000 
@<TRIPOS>BOND
     1    1    2 1    
     2    1   34 1    
     3    1   35 1    
     4    1   36 1    
     5    2    7 ar   
     6    2    3 ar   
     7    3    4 ar   
     8    3   37 1    
     9    4    5 ar   
    10    4   38 1    
    11    5    6 ar   
    12    5    8 1    
    13    6    7 ar   
    14    6   39 1    
    15    7   40 1    
    16    8    9 2    
    17    8   10 2    
    18    8   11 1    
    19   11   17 1    
    20   11   12 1    
    21   12   13 1    
    22   12   41 1    
    23   12   42 1    
    24   13   14 1    
    25   13   43 1    
    26   13   44 1    
    27   14   15 1    
    28   14   45 1    
    29   14   46 1    
    30   15   16 1    
    31   15   17 1    
    32   15   18 1    
    33   17   47 1    
    34   17   48 1    
    35   18   19 2    
    36   18   20 am   BACKBONE|DICT|INTERRES
    37   20   21 am   BACKBONE|DICT|INTERRES
    38   20   49 1    
    39   21   25 1    
    40   21   22 2    
    41   22   23 1    
    42   23   24 2    
    43   23   26 1    
    44   24   25 1    
    45   24   50 1    
    46   26   31 ar   
    47   26   27 ar   
    48   27   28 ar   
    49   27   51 1    
    50   28   29 ar   
    51   28   52 1    
    52   29   30 ar   
    53   29   33 1    
    54   30   31 ar   
    55   30   53 1    
    56   31   32 1    
@<TRIPOS>SUBSTRUCTURE
     1 UNK         1 GROUP             0       ****    0 ROOT    
