ZINC17302280_2459
                    3D
 Schrodinger Suite 2024-2.
 48 50  0  0  1  0            999 V2000
    6.9115   56.2672   17.6005 C   0  0  0  0  0  0
    6.7837   56.2606   19.1188 C   0  0  0  0  0  0
    7.1040   57.2670   19.7508 O   0  0  0  0  0  0
    6.2885   55.1345   19.6698 N   0  0  0  0  0  0
    6.0723   54.9014   21.0353 C   0  0  0  0  0  0
    6.9854   55.2970   22.0236 C   0  0  0  0  0  0
    6.7032   55.0628   23.3676 C   0  0  0  0  0  0
    5.5000   54.4357   23.7230 C   0  0  0  0  0  0
    4.6189   54.0026   22.7299 C   0  0  0  0  0  0
    4.9094   54.2208   21.3884 C   0  0  0  0  0  0
    5.0358   54.2912   25.0378 N   0  0  0  0  0  0
    5.6728   54.4452   26.2159 C   0  0  0  0  0  0
    6.8940   54.5521   26.3392 O   0  0  0  0  0  0
    4.7735   54.4452   27.4750 C   0  0  0  0  0  0
    3.2687   54.7441   27.1986 C   0  0  0  0  0  0
    2.5076   54.8571   28.5220 C   0  0  0  0  0  0
    2.6963   53.6025   29.2736 N   0  0  0  0  0  0
    4.0974   53.3403   29.6817 C   0  0  0  0  0  0
    5.0431   53.2750   28.4517 C   0  0  0  0  0  0
    1.3881   53.1525   30.3749 S   0  0  0  0  0  0
    1.8579   52.0968   31.2788 O   0  0  0  0  0  0
    0.7452   54.3710   30.8809 O   0  0  0  0  0  0
    0.1926   52.4127   29.2476 C   0  0  0  0  0  0
   -0.9178   51.6966   29.6526 C   0  0  0  0  0  0
   -1.7191   51.2967   28.5776 C   0  0  0  0  0  0
   -1.1929   51.6561   27.3461 C   0  0  0  0  0  0
    0.3115   52.4916   27.5149 S   0  0  0  0  0  0
   -1.9141   51.3137   25.6197 Br  0  0  0  0  0  0
    6.4555   55.3852   17.1488 H   0  0  0  0  0  0
    7.9628   56.2952   17.3164 H   0  0  0  0  0  0
    6.4229   57.1514   17.1888 H   0  0  0  0  0  0
    5.9181   54.4386   19.0401 H   0  0  0  0  0  0
    7.9081   55.7942   21.7609 H   0  0  0  0  0  0
    7.4039   55.4150   24.1085 H   0  0  0  0  0  0
    3.6874   53.5188   22.9877 H   0  0  0  0  0  0
    4.2052   53.8990   20.6338 H   0  0  0  0  0  0
    4.0618   54.0433   25.1055 H   0  0  0  0  0  0
    5.1733   55.3039   28.0029 H   0  0  0  0  0  0
    3.1095   55.6937   26.6927 H   0  0  0  0  0  0
    2.8014   53.9352   26.6346 H   0  0  0  0  0  0
    2.9383   55.6796   29.0965 H   0  0  0  0  0  0
    1.4449   55.0471   28.3635 H   0  0  0  0  0  0
    4.4331   54.1937   30.2727 H   0  0  0  0  0  0
    4.1576   52.4258   30.2724 H   0  0  0  0  0  0
    4.8227   52.3256   27.9667 H   0  0  0  0  0  0
    6.0712   53.2933   28.8180 H   0  0  0  0  0  0
   -1.1565   51.4883   30.6888 H   0  0  0  0  0  0
   -2.6301   50.7270   28.6944 H   0  0  0  0  0  0
  1  2  1  0  0  0
  1 29  1  0  0  0
  1 30  1  0  0  0
  1 31  1  0  0  0
  2  3  2  0  0  0
  2  4  1  0  0  0
  4  5  1  0  0  0
  4 32  1  0  0  0
  5 10  2  0  0  0
  5  6  1  0  0  0
  6  7  2  0  0  0
  6 33  1  0  0  0
  7  8  1  0  0  0
  7 34  1  0  0  0
  8  9  2  0  0  0
  8 11  1  0  0  0
  9 10  1  0  0  0
  9 35  1  0  0  0
 10 36  1  0  0  0
 11 12  1  0  0  0
 11 37  1  0  0  0
 12 13  2  0  0  0
 12 14  1  0  0  0
 14 19  1  0  0  0
 14 15  1  0  0  0
 14 38  1  0  0  0
 15 16  1  0  0  0
 15 39  1  0  0  0
 15 40  1  0  0  0
 16 17  1  0  0  0
 16 41  1  0  0  0
 16 42  1  0  0  0
 17 18  1  0  0  0
 17 20  1  0  0  0
 18 19  1  0  0  0
 18 43  1  0  0  0
 18 44  1  0  0  0
 19 45  1  0  0  0
 19 46  1  0  0  0
 20 21  2  0  0  0
 20 22  2  0  0  0
 20 23  1  0  0  0
 23 27  1  0  0  0
 23 24  2  0  0  0
 24 25  1  0  0  0
 24 47  1  0  0  0
 25 26  2  0  0  0
 25 48  1  0  0  0
 26 27  1  0  0  0
 26 28  1  0  0  0
M  END
> <i_i_glide_confnum>
208

> <i_i_glide_lignum>
2460

> <i_i_glide_posenum>
111

> <i_i_glide_rotatable_bonds>
7

> <i_m_Source_File_Index>
4153

> <b_m_subgroup_collapsed>
0

> <r_i_docking_score>
-4.53577

> <r_i_glide_ecoul>
-9.5297

> <r_i_glide_eff_state_penalty>
0

> <r_i_glide_einternal>
15.1004

> <r_i_glide_emodel>
-55.5189

> <r_i_glide_energy>
-54.9899

> <r_i_glide_erotb>
0.515373

> <r_i_glide_esite>
-0.0679817

> <r_i_glide_evdw>
-45.4602

> <r_i_glide_gscore>
-4.53577

> <r_i_glide_hbond>
-0.513779

> <r_i_glide_ligand_efficiency>
-0.161992

> <r_i_glide_ligand_efficiency_ln>
-1.04699

> <r_i_glide_ligand_efficiency_sa>
-0.491902

> <r_i_glide_lipo>
-2.31648

> <r_i_glide_metal>
0

> <r_i_glide_rewards>
1.54956

> <s_i_glide_gridfile>
wee1_glide-grid

> <s_m_Source_File>
wee1_decoys_glide_SP.sdf

> <s_m_Source_Path>
/Users/zhangxujun/Desktop

> <s_m_entry_id>
4428

> <s_m_entry_name>
wee1_decoys_glide_SP.4153

> <s_m_subgroup_title>
wee1_decoys_glide_SP

> <s_m_subgroupid>
wee1_decoys_glide_SP


$$$$
