ZINC64761316_150
                    3D
 Schrodinger Suite 2024-2.
 62 65  0  0  1  0            999 V2000
    5.9417   54.4809   24.3418 C   0  0  0  0  0  0
    4.5144   54.0962   23.9737 C   0  0  0  0  0  0
    3.9295   53.9094   22.7223 C   0  0  0  0  0  0
    2.2073   53.5146   22.8502 S   0  0  0  0  0  0
    2.3282   53.5196   24.5894 C   0  0  0  0  0  0
    3.6049   53.8247   25.0018 N   0  0  0  0  0  0
    3.5607   53.7270   26.3902 C   0  0  0  0  0  0
    2.2032   53.4814   26.6841 C   0  0  0  0  0  0
    1.5043   53.2971   25.5796 N   0  0  0  0  0  0
    1.4792   53.3789   27.9857 C   0  0  0  0  0  0
    1.4267   54.4724   28.8544 C   0  0  0  0  0  0
    0.7581   54.3672   30.0726 C   0  0  0  0  0  0
    0.1197   53.1747   30.4071 C   0  0  0  0  0  0
    0.1272   52.0966   29.5266 C   0  0  0  0  0  0
    0.8132   52.1950   28.3197 C   0  0  0  0  0  0
    4.7414   53.8596   27.0858 N   0  0  0  0  0  0
    5.2034   53.6564   28.4520 C   0  0  0  0  0  0
    6.7342   53.4654   28.3252 C   0  0  0  0  0  0
    4.6019   52.4206   29.1619 C   0  0  0  0  0  0
    4.9430   54.9142   29.2828 C   0  0  0  0  0  0
    4.5427   54.0909   21.4261 C   0  0  0  0  0  0
    5.4640   54.8892   21.2559 O   0  0  0  0  0  0
    4.0263   53.3235   20.4475 N   0  0  0  0  0  0
    4.4561   53.2582   19.0476 C   0  0  2  0  0  0
    5.9725   53.0304   18.8051 C   0  0  0  0  0  0
    6.3517   52.9544   17.3167 C   0  0  0  0  0  0
    5.8521   54.2375   16.6206 N   0  3  2  0  0  0
    4.3137   54.3337   16.7037 C   0  0  0  0  0  0
    3.9062   54.4180   18.1849 C   0  0  0  0  0  0
    6.2939   54.2276   15.1411 C   0  0  0  0  0  0
    6.5747   54.6850   23.4800 H   0  0  0  0  0  0
    5.9675   55.3795   24.9584 H   0  0  0  0  0  0
    6.4435   53.6887   24.8969 H   0  0  0  0  0  0
    1.8843   55.4090   28.5748 H   0  0  0  0  0  0
    0.7210   55.2090   30.7477 H   0  0  0  0  0  0
   -0.4058   53.0855   31.3482 H   0  0  0  0  0  0
   -0.4012   51.1884   29.7771 H   0  0  0  0  0  0
    0.8237   51.3522   27.6441 H   0  0  0  0  0  0
    5.5577   54.0282   26.5172 H   0  0  0  0  0  0
    7.1955   54.2513   27.7238 H   0  0  0  0  0  0
    7.2419   53.5061   29.2819 H   0  0  0  0  0  0
    6.9885   52.5113   27.8581 H   0  0  0  0  0  0
    3.5466   52.2808   28.9607 H   0  0  0  0  0  0
    5.1030   51.5024   28.8818 H   0  0  0  0  0  0
    4.7037   52.4824   30.2445 H   0  0  0  0  0  0
    3.9351   55.2969   29.1648 H   0  0  0  0  0  0
    5.1031   54.7625   30.3449 H   0  0  0  0  0  0
    5.6292   55.6964   28.9817 H   0  0  0  0  0  0
    3.3717   52.6117   20.7348 H   0  0  0  0  0  0
    3.9959   52.3409   18.6686 H   0  0  0  0  0  0
    6.5549   53.8353   19.2531 H   0  0  0  0  0  0
    6.2866   52.1011   19.2823 H   0  0  0  0  0  0
    5.9040   52.0972   16.8102 H   0  0  0  0  0  0
    7.4366   52.9200   17.2040 H   0  0  0  0  0  0
    3.8943   53.4591   16.2018 H   0  0  0  0  0  0
    4.0164   55.2407   16.1753 H   0  0  0  0  0  0
    2.8175   54.4405   18.2512 H   0  0  0  0  0  0
    4.2583   55.3675   18.5914 H   0  0  0  0  0  0
    5.8603   53.3514   14.6555 H   0  0  0  0  0  0
    5.9381   55.1521   14.6816 H   0  0  0  0  0  0
    7.3849   54.1900   15.1234 H   0  0  0  0  0  0
    6.2617   55.0444   17.0734 H   0  0  0  0  0  0
  1  2  1  0  0  0
  1 31  1  0  0  0
  1 32  1  0  0  0
  1 33  1  0  0  0
  2  6  1  0  0  0
  2  3  2  0  0  0
  3  4  1  0  0  0
  3 21  1  0  0  0
  4  5  1  0  0  0
  5  9  2  0  0  0
  5  6  1  0  0  0
  6  7  1  0  0  0
  7  8  2  0  0  0
  7 16  1  0  0  0
  8  9  1  0  0  0
  8 10  1  0  0  0
 10 15  2  0  0  0
 10 11  1  0  0  0
 11 12  2  0  0  0
 11 34  1  0  0  0
 12 13  1  0  0  0
 12 35  1  0  0  0
 13 14  2  0  0  0
 13 36  1  0  0  0
 14 15  1  0  0  0
 14 37  1  0  0  0
 15 38  1  0  0  0
 16 17  1  0  0  0
 16 39  1  0  0  0
 17 18  1  0  0  0
 17 19  1  0  0  0
 17 20  1  0  0  0
 18 40  1  0  0  0
 18 41  1  0  0  0
 18 42  1  0  0  0
 19 43  1  0  0  0
 19 44  1  0  0  0
 19 45  1  0  0  0
 20 46  1  0  0  0
 20 47  1  0  0  0
 20 48  1  0  0  0
 21 22  2  0  0  0
 21 23  1  0  0  0
 23 24  1  0  0  0
 23 49  1  0  0  0
 24 29  1  0  0  0
 24 25  1  0  0  0
 24 50  1  0  0  0
 25 26  1  0  0  0
 25 51  1  0  0  0
 25 52  1  0  0  0
 26 27  1  0  0  0
 26 53  1  0  0  0
 26 54  1  0  0  0
 27 28  1  0  0  0
 27 30  1  0  0  0
 27 62  1  0  0  0
 28 29  1  0  0  0
 28 55  1  0  0  0
 28 56  1  0  0  0
 29 57  1  0  0  0
 29 58  1  0  0  0
 30 59  1  0  0  0
 30 60  1  0  0  0
 30 61  1  0  0  0
M  CHG  1  27   1
M  END
> <i_i_glide_confnum>
8

> <i_i_glide_lignum>
151

> <i_i_glide_posenum>
107

> <i_i_glide_rotatable_bonds>
6

> <i_m_Source_File_Index>
406

> <b_m_subgroup_collapsed>
0

> <r_i_docking_score>
-6.19134

> <r_i_glide_ecoul>
-3.12518

> <r_i_glide_eff_state_penalty>
0

> <r_i_glide_einternal>
6.65933

> <r_i_glide_emodel>
-63.1

> <r_i_glide_energy>
-46.3787

> <r_i_glide_erotb>
0.545301

> <r_i_glide_esite>
-0.00883599

> <r_i_glide_evdw>
-43.2535

> <r_i_glide_gscore>
-6.19134

> <r_i_glide_hbond>
0

> <r_i_glide_ligand_efficiency>
-0.206378

> <r_i_glide_ligand_efficiency_ln>
-1.40674

> <r_i_glide_ligand_efficiency_sa>
-0.641264

> <r_i_glide_lipo>
-2.81446

> <r_i_glide_metal>
0

> <r_i_glide_rewards>
-1.28189

> <s_i_glide_gridfile>
wee1_glide-grid

> <s_m_Source_File>
wee1_decoys_glide_SP.sdf

> <s_m_Source_Path>
/Users/zhangxujun/Desktop

> <s_m_entry_id>
681

> <s_m_entry_name>
wee1_decoys_glide_SP.406

> <s_m_subgroup_title>
wee1_decoys_glide_SP

> <s_m_subgroupid>
wee1_decoys_glide_SP


$$$$
