ZINC09530117_4318
                    3D
 Schrodinger Suite 2024-2.
 53 57  0  0  1  0            999 V2000
    1.4994   52.4875   31.5136 C   0  0  0  0  0  0
    2.8167   52.0968   31.2809 C   0  0  0  0  0  0
    3.4563   52.4953   30.1101 C   0  0  0  0  0  0
    2.7861   53.2795   29.1607 C   0  0  0  0  0  0
    1.4642   53.6722   29.4240 C   0  0  0  0  0  0
    0.8204   53.2739   30.5911 C   0  0  0  0  0  0
    3.4494   53.6582   27.8759 C   0  0  0  0  0  0
    2.6954   53.7605   26.7010 C   0  0  0  0  0  0
    3.2970   54.0654   25.4866 C   0  0  0  0  0  0
    4.6843   54.2410   25.4177 C   0  0  0  0  0  0
    5.4443   54.1817   26.5870 C   0  0  0  0  0  0
    4.8310   53.8906   27.8046 C   0  0  0  0  0  0
    5.3685   54.4964   24.2156 N   0  0  0  0  0  0
    4.9934   54.1595   22.9586 C   0  0  0  0  0  0
    3.9944   53.4860   22.6969 O   0  0  0  0  0  0
    5.8711   54.6714   21.8325 C   0  0  0  0  0  0
    5.4598   54.4923   20.5038 C   0  0  0  0  0  0
    6.3007   54.8321   19.4487 C   0  0  0  0  0  0
    7.5792   55.3394   19.7042 C   0  0  0  0  0  0
    7.9459   55.6347   21.0146 C   0  0  0  0  0  0
    7.1057   55.2970   22.0729 C   0  0  0  0  0  0
    8.5415   55.5013   18.6895 N   0  0  0  0  0  0
    8.9011   54.5258   17.7685 C   0  0  0  0  0  0
    8.2496   53.4545   17.5894 N   0  0  0  0  0  0
    8.8405   52.5647   16.6331 C   0  0  1  0  0  0
    9.1209   51.6620   17.1851 H   0  0  0  0  0  0
    7.8304   52.1449   15.5492 C   0  0  0  0  0  0
    8.8526   51.8781   14.0228 S   0  0  0  0  0  0
    8.0879   52.2392   12.8265 O   0  0  0  0  0  0
    9.5371   50.5878   14.1206 O   0  0  0  0  0  0
   10.0293   53.2473   14.4824 C   0  0  0  0  0  0
   10.1313   53.1670   16.0185 C   0  0  1  0  0  0
   10.9798   52.5409   16.3066 H   0  0  0  0  0  0
   10.3921   54.7633   16.8220 S   0  0  0  0  0  0
    0.9971   52.1780   32.4217 H   0  0  0  0  0  0
    3.3395   51.4996   32.0148 H   0  0  0  0  0  0
    4.4705   52.1669   29.9365 H   0  0  0  0  0  0
    0.9230   54.2892   28.7221 H   0  0  0  0  0  0
   -0.2014   53.5690   30.7819 H   0  0  0  0  0  0
    1.6302   53.5811   26.7116 H   0  0  0  0  0  0
    2.6710   54.1391   24.6108 H   0  0  0  0  0  0
    6.5144   54.3308   26.5582 H   0  0  0  0  0  0
    5.4434   53.8365   28.6931 H   0  0  0  0  0  0
    6.2589   54.9527   24.3149 H   0  0  0  0  0  0
    4.5033   54.0414   20.2728 H   0  0  0  0  0  0
    5.9842   54.6274   18.4360 H   0  0  0  0  0  0
    8.9235   56.0419   21.2331 H   0  0  0  0  0  0
    7.4859   55.4751   23.0691 H   0  0  0  0  0  0
    9.3124   56.0834   18.9741 H   0  0  0  0  0  0
    7.1887   52.9958   15.3210 H   0  0  0  0  0  0
    7.1850   51.2967   15.7650 H   0  0  0  0  0  0
    9.5498   54.1859   14.2040 H   0  0  0  0  0  0
   10.9560   53.1590   13.9172 H   0  0  0  0  0  0
  1  6  2  0  0  0
  1  2  1  0  0  0
  1 35  1  0  0  0
  2  3  2  0  0  0
  2 36  1  0  0  0
  3  4  1  0  0  0
  3 37  1  0  0  0
  4  5  2  0  0  0
  4  7  1  0  0  0
  5  6  1  0  0  0
  5 38  1  0  0  0
  6 39  1  0  0  0
  7 12  2  0  0  0
  7  8  1  0  0  0
  8  9  2  0  0  0
  8 40  1  0  0  0
  9 10  1  0  0  0
  9 41  1  0  0  0
 10 11  2  0  0  0
 10 13  1  0  0  0
 11 12  1  0  0  0
 11 42  1  0  0  0
 12 43  1  0  0  0
 13 14  1  0  0  0
 13 44  1  0  0  0
 14 15  2  0  0  0
 14 16  1  0  0  0
 16 21  2  0  0  0
 16 17  1  0  0  0
 17 18  2  0  0  0
 17 45  1  0  0  0
 18 19  1  0  0  0
 18 46  1  0  0  0
 19 20  2  0  0  0
 19 22  1  0  0  0
 20 21  1  0  0  0
 20 47  1  0  0  0
 21 48  1  0  0  0
 22 23  1  0  0  0
 22 49  1  0  0  0
 23 34  1  0  0  0
 23 24  2  0  0  0
 24 25  1  0  0  0
 25 26  1  0  0  0
 25 32  1  0  0  0
 25 27  1  0  0  0
 27 28  1  0  0  0
 27 50  1  0  0  0
 27 51  1  0  0  0
 28 29  2  0  0  0
 28 30  2  0  0  0
 28 31  1  0  0  0
 31 32  1  0  0  0
 31 52  1  0  0  0
 31 53  1  0  0  0
 32 33  1  0  0  0
 32 34  1  0  0  0
M  END
> <i_i_glide_confnum>
66

> <i_i_glide_lignum>
4319

> <i_i_glide_posenum>
274

> <i_i_glide_rotatable_bonds>
6

> <i_m_Source_File_Index>
2681

> <b_m_subgroup_collapsed>
0

> <r_i_docking_score>
-5.20036

> <r_i_glide_ecoul>
-1.92551

> <r_i_glide_eff_state_penalty>
0

> <r_i_glide_einternal>
2.29095

> <r_i_glide_emodel>
-60.0541

> <r_i_glide_energy>
-47.8214

> <r_i_glide_erotb>
0.562662

> <r_i_glide_esite>
0

> <r_i_glide_evdw>
-45.8959

> <r_i_glide_gscore>
-5.20036

> <r_i_glide_hbond>
0

> <r_i_glide_ligand_efficiency>
-0.162511

> <r_i_glide_ligand_efficiency_ln>
-1.1645

> <r_i_glide_ligand_efficiency_sa>
-0.515941

> <r_i_glide_lipo>
-2.92582

> <r_i_glide_metal>
0

> <r_i_glide_rewards>
-0.253581

> <s_i_glide_gridfile>
wee1_glide-grid

> <s_m_Source_File>
wee1_decoys_glide_SP.sdf

> <s_m_Source_Path>
/Users/zhangxujun/Desktop

> <s_m_entry_id>
2956

> <s_m_entry_name>
wee1_decoys_glide_SP.2681

> <s_m_subgroup_title>
wee1_decoys_glide_SP

> <s_m_subgroupid>
wee1_decoys_glide_SP


$$$$
