@<TRIPOS>MOLECULE
ZINC44441349_2828
53   57    1
SMALL
USER_CHARGES


@<TRIPOS>ATOM
      1 C1          1.3386   46.6946   17.6952 C.3       1 UNK         0.0000 
      2 S2          0.6387   47.2379   19.2815 S.3       1 UNK         0.0000 
      3 C3          1.3741   48.8053   19.6347 C.ar      1 UNK         0.0000 
      4 C4          1.6543   49.1514   20.9563 C.ar      1 UNK         0.0000 
      5 C5          2.3055   50.3472   21.2384 C.ar      1 UNK         0.0000 
      6 C6          2.6659   51.2041   20.1985 C.ar      1 UNK         0.0000 
      7 C7          2.3093   50.8903   18.8785 C.ar      1 UNK         0.0000 
      8 C8          1.6795   49.6840   18.5976 C.ar      1 UNK         0.0000 
      9 N9          3.3331   52.3832   20.5612 N.am      1 UNK         0.0000 
     10 C10         4.1339   53.1654   19.8044 C.2       1 UNK         0.0000 
     11 O11         4.4919   52.8968   18.6611 O.2       1 UNK         0.0000 
     12 C12         4.5168   54.5259   20.4119 C.3       1 UNK         0.0000 
     13 H13         3.5045   54.8968   20.4599 H         1 UNK         0.0000 
     14 C14         5.4044   55.4113   19.4722 C.3       1 UNK         0.0000 
     15 C15         6.9133   55.1336   19.6380 C.3       1 UNK         0.0000 
     16 C16         7.4316   55.4211   21.0670 C.3       1 UNK         0.0000 
     17 C17         6.4330   54.8969   22.0866 C.2       1 UNK         0.0000 
     18 C18         5.1174   54.4959   21.8229 C.2       1 UNK         0.0000 
     19 N19         4.4063   54.1491   22.8853 N.2       1 UNK         0.0000 
     20 C20         5.0585   54.3293   24.0064 C.2       1 UNK         0.0000 
     21 S21         6.7044   54.8602   23.8024 S.3       1 UNK         0.0000 
     22 N22         4.4454   54.0896   25.2290 N.am      1 UNK         0.0000 
     23 C23         4.9661   54.2141   26.4706 C.2       1 UNK         0.0000 
     24 O24         6.1004   54.6299   26.7204 O.2       1 UNK         0.0000 
     25 C25         4.0633   53.7515   27.5944 C.ar      1 UNK         0.0000 
     26 C26         4.6448   53.2935   28.7978 C.ar      1 UNK         0.0000 
     27 C27         3.8604   52.8050   29.8522 C.ar      1 UNK         0.0000 
     28 C28         2.4850   52.7886   29.6754 C.ar      1 UNK         0.0000 
     29 C29         1.9017   53.2430   28.5288 C.ar      1 UNK         0.0000 
     30 C30         2.6543   53.7388   27.4682 C.ar      1 UNK         0.0000 
     31 O31         0.5504   53.1446   28.6471 O.3       1 UNK         0.0000 
     32 C32         0.3325   52.3767   29.8028 C.3       1 UNK         0.0000 
     33 O33         1.5233   52.3833   30.5442 O.3       1 UNK         0.0000 
     34 H34         1.1306   45.6368   17.5343 H         1 UNK         0.0000 
     35 H35         0.9026   47.2572   16.8695 H         1 UNK         0.0000 
     36 H36         2.4197   46.8446   17.6831 H         1 UNK         0.0000 
     37 H37         1.3934   48.4968   21.7704 H         1 UNK         0.0000 
     38 H38         2.5436   50.5884   22.2645 H         1 UNK         0.0000 
     39 H39         2.5545   51.5448   18.0562 H         1 UNK         0.0000 
     40 H40         1.4582   49.4370   17.5705 H         1 UNK         0.0000 
     41 H41         3.2080   52.6703   21.5187 H         1 UNK         0.0000 
     42 H42         5.2231   56.4653   19.6818 H         1 UNK         0.0000 
     43 H43         5.1175   55.3036   18.4241 H         1 UNK         0.0000 
     44 H44         7.4810   55.7311   18.9230 H         1 UNK         0.0000 
     45 H45         7.1121   54.0968   19.3658 H         1 UNK         0.0000 
     46 H46         7.5415   56.4965   21.1928 H         1 UNK         0.0000 
     47 H47         8.4198   54.9822   21.2082 H         1 UNK         0.0000 
     48 H48         3.5024   53.7391   25.1759 H         1 UNK         0.0000 
     49 H49         5.7206   53.2968   28.9094 H         1 UNK         0.0000 
     50 H50         4.3093   52.4494   30.7666 H         1 UNK         0.0000 
     51 H51         2.1543   54.0961   26.5803 H         1 UNK         0.0000 
     52 H52        -0.4929   52.7749   30.3952 H         1 UNK         0.0000 
     53 H53         0.0881   51.3514   29.5135 H         1 UNK         0.0000 
@<TRIPOS>BOND
     1    1    2 1    
     2    1   34 1    
     3    1   35 1    
     4    1   36 1    
     5    2    3 1    
     6    3    8 ar   
     7    3    4 ar   
     8    4    5 ar   
     9    4   37 1    
    10    5    6 ar   
    11    5   38 1    
    12    6    7 ar   
    13    6    9 1    
    14    7    8 ar   
    15    7   39 1    
    16    8   40 1    
    17    9   10 am   BACKBONE|DICT|INTERRES
    18    9   41 1    
    19   10   11 2    
    20   10   12 1    
    21   12   13 1    
    22   12   18 1    
    23   12   14 1    
    24   14   15 1    
    25   14   42 1    
    26   14   43 1    
    27   15   16 1    
    28   15   44 1    
    29   15   45 1    
    30   16   17 1    
    31   16   46 1    
    32   16   47 1    
    33   17   21 1    
    34   17   18 2    
    35   18   19 1    
    36   19   20 2    
    37   20   21 1    
    38   20   22 am   BACKBONE|DICT|INTERRES
    39   22   23 am   BACKBONE|DICT|INTERRES
    40   22   48 1    
    41   23   24 2    
    42   23   25 1    
    43   25   30 ar   
    44   25   26 ar   
    45   26   27 ar   
    46   26   49 1    
    47   27   28 ar   
    48   27   50 1    
    49   28   33 1    
    50   28   29 ar   
    51   29   30 ar   
    52   29   31 1    
    53   30   51 1    
    54   31   32 1    
    55   32   33 1    
    56   32   52 1    
    57   32   53 1    
@<TRIPOS>SUBSTRUCTURE
     1 UNK         1 GROUP             0       ****    0 ROOT    
