ZINC37252996_4681
                    3D
 Schrodinger Suite 2024-2.
 40 41  0  0  1  0            999 V2000
   -0.5257   51.9316   29.1341 C   0  0  0  0  0  0
    0.1392   53.2750   29.5052 C   0  0  1  0  0  0
   -0.6425   54.0319   29.5706 H   0  0  0  0  0  0
    0.8235   53.2424   30.8834 C   0  0  0  0  0  0
    2.0610   52.3245   30.8815 C   0  0  0  0  0  0
    3.0832   52.7065   29.7941 C   0  0  0  0  0  0
    2.4490   52.9301   28.3897 C   0  0  1  0  0  0
    2.1250   51.9311   28.0925 H   0  0  0  0  0  0
    1.1459   53.7613   28.4382 C   0  0  0  0  0  0
    3.3453   53.2925   27.2900 N   0  0  0  0  0  0
    4.2747   54.2600   27.2955 C   0  0  0  0  0  0
    4.5626   54.8966   28.3067 O   0  0  0  0  0  0
    5.0147   54.4976   25.9992 C   0  0  0  0  0  0
    6.2536   55.1501   26.0327 C   0  0  0  0  0  0
    6.9678   55.3658   24.8596 C   0  0  0  0  0  0
    6.4877   54.9021   23.6416 C   0  0  0  0  0  0
    5.2526   54.2627   23.5812 C   0  0  0  0  0  0
    4.5052   54.0862   24.7521 C   0  0  0  0  0  0
    4.6641   53.7033   21.9869 S   0  0  0  0  0  0
    5.0524   54.7270   21.0127 O   0  0  0  0  0  0
    5.1041   52.3141   21.8385 O   0  0  0  0  0  0
    2.9229   53.6964   22.0813 N   0  0  0  0  0  0
    0.1896   51.1167   29.0274 H   0  0  0  0  0  0
   -1.0679   52.0081   28.1913 H   0  0  0  0  0  0
   -1.2461   51.6254   29.8941 H   0  0  0  0  0  0
    1.1050   54.2538   31.1796 H   0  0  0  0  0  0
    0.1198   52.8889   31.6399 H   0  0  0  0  0  0
    1.7487   51.2973   30.7129 H   0  0  0  0  0  0
    2.5351   52.3329   31.8641 H   0  0  0  0  0  0
    3.8681   51.9510   29.7395 H   0  0  0  0  0  0
    3.5559   53.6266   30.1341 H   0  0  0  0  0  0
    0.6766   53.7355   27.4556 H   0  0  0  0  0  0
    1.4008   54.8032   28.6410 H   0  0  0  0  0  0
    3.0938   52.9164   26.3901 H   0  0  0  0  0  0
    6.6669   55.4993   26.9703 H   0  0  0  0  0  0
    7.9040   55.8965   24.8815 H   0  0  0  0  0  0
    7.0711   55.0609   22.7452 H   0  0  0  0  0  0
    3.5458   53.5953   24.6820 H   0  0  0  0  0  0
    2.4807   54.3486   21.4224 H   0  0  0  0  0  0
    2.5319   52.7546   22.0031 H   0  0  0  0  0  0
  1  2  1  0  0  0
  1 23  1  0  0  0
  1 24  1  0  0  0
  1 25  1  0  0  0
  2  3  1  0  0  0
  2  9  1  0  0  0
  2  4  1  0  0  0
  4  5  1  0  0  0
  4 26  1  0  0  0
  4 27  1  0  0  0
  5  6  1  0  0  0
  5 28  1  0  0  0
  5 29  1  0  0  0
  6  7  1  0  0  0
  6 30  1  0  0  0
  6 31  1  0  0  0
  7  8  1  0  0  0
  7  9  1  0  0  0
  7 10  1  0  0  0
  9 32  1  0  0  0
  9 33  1  0  0  0
 10 11  1  0  0  0
 10 34  1  0  0  0
 11 12  2  0  0  0
 11 13  1  0  0  0
 13 18  2  0  0  0
 13 14  1  0  0  0
 14 15  2  0  0  0
 14 35  1  0  0  0
 15 16  1  0  0  0
 15 36  1  0  0  0
 16 17  2  0  0  0
 16 37  1  0  0  0
 17 18  1  0  0  0
 17 19  1  0  0  0
 18 38  1  0  0  0
 19 20  2  0  0  0
 19 21  2  0  0  0
 19 22  1  0  0  0
 22 39  1  0  0  0
 22 40  1  0  0  0
M  END
> <i_i_glide_confnum>
10

> <i_i_glide_lignum>
4682

> <i_i_glide_posenum>
315

> <i_i_glide_rotatable_bonds>
4

> <i_m_Source_File_Index>
2127

> <b_m_subgroup_collapsed>
0

> <r_i_docking_score>
-5.37167

> <r_i_glide_ecoul>
-2.67017

> <r_i_glide_eff_state_penalty>
0

> <r_i_glide_einternal>
3.01949

> <r_i_glide_emodel>
-49.0918

> <r_i_glide_energy>
-38.266

> <r_i_glide_erotb>
0.62562

> <r_i_glide_esite>
-0.000199756

> <r_i_glide_evdw>
-35.5958

> <r_i_glide_gscore>
-5.37167

> <r_i_glide_hbond>
-0.32

> <r_i_glide_ligand_efficiency>
-0.268583

> <r_i_glide_ligand_efficiency_ln>
-1.34435

> <r_i_glide_ligand_efficiency_sa>
-0.729048

> <r_i_glide_lipo>
-2.11922

> <r_i_glide_metal>
0

> <r_i_glide_rewards>
-1.37755

> <s_i_glide_gridfile>
wee1_glide-grid

> <s_m_Source_File>
wee1_decoys_glide_SP.sdf

> <s_m_Source_Path>
/Users/zhangxujun/Desktop

> <s_m_entry_id>
2402

> <s_m_entry_name>
wee1_decoys_glide_SP.2127

> <s_m_subgroup_title>
wee1_decoys_glide_SP

> <s_m_subgroupid>
wee1_decoys_glide_SP


$$$$
