@<TRIPOS>MOLECULE
ZINC59106218_2631
35   37    1
SMALL
USER_CHARGES


@<TRIPOS>ATOM
      1 C1         -0.4236   49.0091   24.7484 C.ar      1 UNK         0.0000 
      2 C2         -1.1194   47.8109   24.8819 C.ar      1 UNK         0.0000 
      3 C3         -1.7940   47.2745   23.7882 C.ar      1 UNK         0.0000 
      4 C4         -1.7915   47.9346   22.5611 C.ar      1 UNK         0.0000 
      5 C5         -1.1088   49.1415   22.4249 C.ar      1 UNK         0.0000 
      6 C6         -0.4177   49.6815   23.5181 C.ar      1 UNK         0.0000 
      7 N7          0.2879   50.9133   23.3836 N.am      1 UNK         0.0000 
      8 C8          1.4673   50.8856   22.6660 C.2       1 UNK         0.0000 
      9 O9          1.8891   49.8693   22.0974 O.2       1 UNK         0.0000 
     10 C10         2.2037   52.1641   22.6439 C.2       1 UNK         0.0000 
     11 C11         3.3936   52.1992   21.9692 C.2       1 UNK         0.0000 
     12 C12         4.4181   53.2635   21.8790 C.ar      1 UNK         0.0000 
     13 C13         5.0548   53.6967   23.0477 C.ar      1 UNK         0.0000 
     14 C14         6.0759   54.6421   23.0027 C.ar      1 UNK         0.0000 
     15 C15         6.4826   55.1591   21.7683 C.ar      1 UNK         0.0000 
     16 C16         5.8406   54.7542   20.6003 C.ar      1 UNK         0.0000 
     17 C17         4.8223   53.8030   20.6485 C.ar      1 UNK         0.0000 
     18 O18         4.2488   53.4092   19.4690 O.3       1 UNK         0.0000 
     19 O19         7.5090   56.0573   21.6819 O.3       1 UNK         0.0000 
     20 I20         6.9020   55.2903   24.8175 I         1 UNK         0.0000 
     21 C21         1.6225   53.3265   23.3490 C.2       1 UNK         0.0000 
     22 O22         2.2212   54.4003   23.3416 O.2       1 UNK         0.0000 
     23 N23         0.4608   53.1730   23.9548 N.2       1 UNK         0.0000 
     24 C24        -0.2381   52.0492   23.9843 C.2       1 UNK         0.0000 
     25 O25        -1.3464   51.9764   24.5214 O.2       1 UNK         0.0000 
     26 F26        -2.4498   46.0970   23.9150 F         1 UNK         0.0000 
     27 H27         0.1004   49.4152   25.6023 H         1 UNK         0.0000 
     28 H28        -1.1291   47.3021   25.8350 H         1 UNK         0.0000 
     29 H29        -2.3149   47.5112   21.7180 H         1 UNK         0.0000 
     30 H30        -1.1036   49.6511   21.4722 H         1 UNK         0.0000 
     31 H31         3.7137   51.3098   21.4403 H         1 UNK         0.0000 
     32 H32         4.7521   53.2982   24.0059 H         1 UNK         0.0000 
     33 H33         6.1509   55.1588   19.6482 H         1 UNK         0.0000 
     34 H34         3.5650   52.7457   19.5771 H         1 UNK         0.0000 
     35 H35         8.0981   55.9968   22.4419 H         1 UNK         0.0000 
@<TRIPOS>BOND
     1    1    6 ar   
     2    1    2 ar   
     3    1   27 1    
     4    2    3 ar   
     5    2   28 1    
     6    3    4 ar   
     7    3   26 1    
     8    4    5 ar   
     9    4   29 1    
    10    5    6 ar   
    11    5   30 1    
    12    6    7 1    
    13    7   24 am   BACKBONE|DICT|INTERRES
    14    7    8 am   BACKBONE|DICT|INTERRES
    15    8    9 2    
    16    8   10 1    
    17   10   11 2    
    18   10   21 1    
    19   11   12 1    
    20   11   31 1    
    21   12   17 ar   
    22   12   13 ar   
    23   13   14 ar   
    24   13   32 1    
    25   14   15 ar   
    26   14   20 1    
    27   15   16 ar   
    28   15   19 1    
    29   16   17 ar   
    30   16   33 1    
    31   17   18 1    
    32   18   34 1    
    33   19   35 1    
    34   21   22 2    
    35   21   23 1    
    36   23   24 1    
    37   24   25 2    
@<TRIPOS>SUBSTRUCTURE
     1 UNK         1 GROUP             0       ****    0 ROOT    
