@<TRIPOS>MOLECULE
ZINC40131161_36
54   56    1
SMALL
USER_CHARGES


@<TRIPOS>ATOM
      1 C1          1.2163   52.4781   23.6913 C.3       1 UNK         0.0000 
      2 C2          0.6148   51.2813   22.9302 C.3       1 UNK         0.0000 
      3 C3          1.6057   50.1063   22.8664 C.3       1 UNK         0.0000 
      4 N4         -0.6564   50.8426   23.5093 N.am      1 UNK         0.0000 
      5 C5         -1.8301   51.5066   23.4605 C.2       1 UNK         0.0000 
      6 O6         -1.9997   52.4754   22.7108 O.2       1 UNK         0.0000 
      7 N7         -2.8242   50.9785   24.2334 N.am      1 UNK         0.0000 
      8 C8         -4.1618   51.5991   24.2277 C.3       1 UNK         0.0000 
      9 C9         -4.2602   52.5034   25.4755 C.3       1 UNK         0.0000 
     10 C10        -4.0112   51.7026   26.7719 C.3       1 UNK         0.0000 
     11 C11        -2.7398   50.8086   26.7583 C.3       1 UNK         0.0000 
     12 H12        -2.7967   50.0962   27.5828 H         1 UNK         0.0000 
     13 C13        -2.6059   50.0619   25.3873 C.3       1 UNK         0.0000 
     14 C14        -1.4972   51.6935   27.0402 C.2       1 UNK         0.0000 
     15 O15        -1.1059   52.4967   26.1962 O.2       1 UNK         0.0000 
     16 N16        -0.9005   51.5487   28.2446 N.am      1 UNK         0.0000 
     17 C17         0.2752   52.1814   28.6268 C.2       1 UNK         0.0000 
     18 N18         1.2544   52.5367   27.8261 N.2       1 UNK         0.0000 
     19 C19         2.3013   53.0213   28.4715 C.2       1 UNK         0.0000 
     20 C20         2.1563   53.0219   29.8602 C.2       1 UNK         0.0000 
     21 S21         0.5592   52.4965   30.3041 S.3       1 UNK         0.0000 
     22 C22         3.4904   53.5076   27.7087 C.ar      1 UNK         0.0000 
     23 C23         3.3411   54.0492   26.4270 C.ar      1 UNK         0.0000 
     24 C24         4.4417   54.5372   25.7277 C.ar      1 UNK         0.0000 
     25 C25         5.7262   54.4936   26.2944 C.ar      1 UNK         0.0000 
     26 C26         5.8774   53.9150   27.5596 C.ar      1 UNK         0.0000 
     27 C27         4.7720   53.4381   28.2634 C.ar      1 UNK         0.0000 
     28 F28         7.1044   53.8089   28.1148 F         1 UNK         0.0000 
     29 O29         6.8589   54.9976   25.6820 O.3       1 UNK         0.0000 
     30 C30         6.7195   55.6714   24.4368 C.3       1 UNK         0.0000 
     31 H31         2.1754   52.7710   23.2631 H         1 UNK         0.0000 
     32 H32         1.4022   52.2274   24.7364 H         1 UNK         0.0000 
     33 H33         0.5662   53.3532   23.6511 H         1 UNK         0.0000 
     34 H34         0.4253   51.5961   21.9009 H         1 UNK         0.0000 
     35 H35         2.5632   50.4271   22.4543 H         1 UNK         0.0000 
     36 H36         1.8174   49.7010   23.8571 H         1 UNK         0.0000 
     37 H37         1.2395   49.3026   22.2268 H         1 UNK         0.0000 
     38 H38        -0.6200   49.9909   24.0455 H         1 UNK         0.0000 
     39 H39        -4.3970   52.0916   23.2828 H         1 UNK         0.0000 
     40 H40        -4.8905   50.7895   24.2927 H         1 UNK         0.0000 
     41 H41        -3.5539   53.3310   25.3909 H         1 UNK         0.0000 
     42 H42        -5.2480   52.9634   25.5134 H         1 UNK         0.0000 
     43 H43        -4.0461   52.3188   27.6692 H         1 UNK         0.0000 
     44 H44        -4.8598   51.0494   26.9820 H         1 UNK         0.0000 
     45 H45        -3.4037   49.3195   25.3337 H         1 UNK         0.0000 
     46 H46        -1.7176   49.4345   25.3046 H         1 UNK         0.0000 
     47 H47        -1.3551   50.9661   28.9343 H         1 UNK         0.0000 
     48 H48         2.8723   53.3235   30.6034 H         1 UNK         0.0000 
     49 H49         2.3633   54.1054   25.9709 H         1 UNK         0.0000 
     50 H50         4.2732   54.9520   24.7460 H         1 UNK         0.0000 
     51 H51         4.9231   53.0029   29.2394 H         1 UNK         0.0000 
     52 H52         7.6754   56.0968   24.1447 H         1 UNK         0.0000 
     53 H53         6.4008   54.9910   23.6462 H         1 UNK         0.0000 
     54 H54         6.0130   56.4975   24.5099 H         1 UNK         0.0000 
@<TRIPOS>BOND
     1    1    2 1    
     2    1   31 1    
     3    1   32 1    
     4    1   33 1    
     5    2    3 1    
     6    2    4 1    
     7    2   34 1    
     8    3   35 1    
     9    3   36 1    
    10    3   37 1    
    11    4    5 am   BACKBONE|DICT|INTERRES
    12    4   38 1    
    13    5    6 2    
    14    5    7 am   BACKBONE|DICT|INTERRES
    15    7   13 1    
    16    7    8 1    
    17    8    9 1    
    18    8   39 1    
    19    8   40 1    
    20    9   10 1    
    21    9   41 1    
    22    9   42 1    
    23   10   11 1    
    24   10   43 1    
    25   10   44 1    
    26   11   12 1    
    27   11   13 1    
    28   11   14 1    
    29   13   45 1    
    30   13   46 1    
    31   14   15 2    
    32   14   16 am   BACKBONE|DICT|INTERRES
    33   16   17 am   BACKBONE|DICT|INTERRES
    34   16   47 1    
    35   17   21 1    
    36   17   18 2    
    37   18   19 1    
    38   19   20 2    
    39   19   22 1    
    40   20   21 1    
    41   20   48 1    
    42   22   27 ar   
    43   22   23 ar   
    44   23   24 ar   
    45   23   49 1    
    46   24   25 ar   
    47   24   50 1    
    48   25   26 ar   
    49   25   29 1    
    50   26   27 ar   
    51   26   28 1    
    52   27   51 1    
    53   29   30 1    
    54   30   52 1    
    55   30   53 1    
    56   30   54 1    
@<TRIPOS>SUBSTRUCTURE
     1 UNK         1 GROUP             0       ****    0 ROOT    
