@<TRIPOS>MOLECULE
ZINC10585519_2655
45   48    1
SMALL
USER_CHARGES


@<TRIPOS>ATOM
      1 C1          4.6562   54.0249   28.4709 C.ar      1 UNK         0.0000 
      2 C2          5.7749   54.4963   27.7824 C.ar      1 UNK         0.0000 
      3 C3          5.7349   54.6083   26.3959 C.ar      1 UNK         0.0000 
      4 C4          4.5840   54.2168   25.6955 C.ar      1 UNK         0.0000 
      5 C5          3.4705   53.7508   26.3828 C.ar      1 UNK         0.0000 
      6 C6          3.4899   53.6356   27.7828 C.ar      1 UNK         0.0000 
      7 N7          2.3311   53.1363   28.4350 N.am      1 UNK         0.0000 
      8 C8          1.0369   52.9989   27.7527 C.3       1 UNK         0.0000 
      9 C9         -0.0074   52.5979   28.7840 C.3       1 UNK         0.0000 
     10 H10        -0.5091   53.4657   29.2163 H         1 UNK         0.0000 
     11 C11         0.8915   51.9746   29.8223 C.3       1 UNK         0.0000 
     12 C12         2.2918   52.5391   29.6562 C.2       1 UNK         0.0000 
     13 O13         3.1853   52.3983   30.4902 O.2       1 UNK         0.0000 
     14 N14        -0.9101   51.5564   28.2597 N.am      1 UNK         0.0000 
     15 C15        -1.6735   51.6492   27.1590 C.2       1 UNK         0.0000 
     16 O16        -1.7503   52.6703   26.4791 O.2       1 UNK         0.0000 
     17 N17        -2.3219   50.5010   26.8819 N.am      1 UNK         0.0000 
     18 C18        -3.1573   50.3125   25.7713 C.ar      1 UNK         0.0000 
     19 C19        -2.8203   49.2755   24.8976 C.ar      1 UNK         0.0000 
     20 C20        -3.5785   49.0414   23.7521 C.ar      1 UNK         0.0000 
     21 C21        -4.7025   49.8235   23.4889 C.ar      1 UNK         0.0000 
     22 C22        -5.0812   50.8265   24.3829 C.ar      1 UNK         0.0000 
     23 C23        -4.3234   51.0730   25.5307 C.ar      1 UNK         0.0000 
     24 Cl24       -4.8909   52.2899   26.6271 Cl        1 UNK         0.0000 
     25 Cl25       -5.6380   49.5423   22.0670 Cl        1 UNK         0.0000 
     26 O26         4.4728   54.3331   24.3252 O.3       1 UNK         0.0000 
     27 C27         5.7269   54.4943   23.6572 C.3       1 UNK         0.0000 
     28 C28         6.5917   55.5239   24.4189 C.3       1 UNK         0.0000 
     29 O29         6.8636   55.0674   25.7478 O.3       1 UNK         0.0000 
     30 H30         4.7161   53.9818   29.5455 H         1 UNK         0.0000 
     31 H31         6.6642   54.7856   28.3220 H         1 UNK         0.0000 
     32 H32         2.6074   53.4727   25.8005 H         1 UNK         0.0000 
     33 H33         1.1348   52.2414   26.9729 H         1 UNK         0.0000 
     34 H34         0.7473   53.9293   27.2774 H         1 UNK         0.0000 
     35 H35         0.5216   52.1413   30.8342 H         1 UNK         0.0000 
     36 H36         0.9793   50.8991   29.6808 H         1 UNK         0.0000 
     37 H37        -1.1121   50.7832   28.8838 H         1 UNK         0.0000 
     38 H38        -2.0135   49.6551   27.3619 H         1 UNK         0.0000 
     39 H39        -1.9453   48.6673   25.0907 H         1 UNK         0.0000 
     40 H40        -3.2933   48.2550   23.0670 H         1 UNK         0.0000 
     41 H41        -5.9676   51.4104   24.1867 H         1 UNK         0.0000 
     42 H42         5.5552   54.8125   22.6281 H         1 UNK         0.0000 
     43 H43         6.2466   53.5371   23.6271 H         1 UNK         0.0000 
     44 H44         6.0487   56.4684   24.4839 H         1 UNK         0.0000 
     45 H45         7.5045   55.7217   23.8735 H         1 UNK         0.0000 
@<TRIPOS>BOND
     1    1    6 ar   
     2    1    2 ar   
     3    1   30 1    
     4    2    3 ar   
     5    2   31 1    
     6    3   29 1    
     7    3    4 ar   
     8    4    5 ar   
     9    4   26 1    
    10    5    6 ar   
    11    5   32 1    
    12    6    7 1    
    13    7   12 am   BACKBONE|DICT|INTERRES
    14    7    8 1    
    15    8    9 1    
    16    8   33 1    
    17    8   34 1    
    18    9   10 1    
    19    9   11 1    
    20    9   14 1    
    21   11   12 1    
    22   11   35 1    
    23   11   36 1    
    24   12   13 2    
    25   14   15 am   BACKBONE|DICT|INTERRES
    26   14   37 1    
    27   15   16 2    
    28   15   17 am   BACKBONE|DICT|INTERRES
    29   17   18 1    
    30   17   38 1    
    31   18   23 ar   
    32   18   19 ar   
    33   19   20 ar   
    34   19   39 1    
    35   20   21 ar   
    36   20   40 1    
    37   21   22 ar   
    38   21   25 1    
    39   22   23 ar   
    40   22   41 1    
    41   23   24 1    
    42   26   27 1    
    43   27   28 1    
    44   27   42 1    
    45   27   43 1    
    46   28   29 1    
    47   28   44 1    
    48   28   45 1    
@<TRIPOS>SUBSTRUCTURE
     1 UNK         1 GROUP             0       ****    0 ROOT    
