ZINC57316099_2887
                    3D
 Schrodinger Suite 2024-2.
 62 65  0  0  1  0            999 V2000
   11.3101   53.2984   14.1735 C   0  0  0  0  0  0
   11.6257   53.3168   15.6905 C   0  0  0  0  0  0
   11.8152   51.8514   16.1615 C   0  0  0  0  0  0
   12.9834   54.0378   15.8943 C   0  0  0  0  0  0
   10.4966   54.0247   16.5345 C   0  0  1  0  0  0
   10.8518   54.0070   17.5685 H   0  0  0  0  0  0
   10.2238   55.4996   16.1315 C   0  0  0  0  0  0
    9.3839   56.2616   17.1819 C   0  0  0  0  0  0
    8.2016   55.4029   17.6542 C   0  0  0  0  0  0
    8.1210   54.0416   17.3253 C   0  0  0  0  0  0
    6.7006   53.2974   17.9578 S   0  0  0  0  0  0
    6.3055   54.7274   18.8344 C   0  0  0  0  0  0
    7.1077   55.8262   18.4611 C   0  0  0  0  0  0
    6.9021   57.1861   18.9078 C   0  0  0  0  0  0
    6.7032   57.4794   20.0820 O   0  0  0  0  0  0
    6.9141   58.1099   17.9448 N   0  0  0  0  0  0
    5.2426   54.6101   19.7150 N   0  0  0  0  0  0
    5.3948   54.6734   21.0543 C   0  0  0  0  0  0
    6.4562   54.9124   21.6301 O   0  0  0  0  0  0
    4.1854   54.4856   21.8108 C   0  0  0  0  0  0
    3.4070   53.3881   21.7394 C   0  0  0  0  0  0
    2.2199   53.1939   22.5449 C   0  0  0  0  0  0
    1.4106   54.0723   23.2532 C   0  0  0  0  0  0
    0.4165   53.3205   23.8650 C   0  0  0  0  0  0
    0.6709   51.9948   23.5576 C   0  0  0  0  0  0
    1.7537   51.9295   22.7334 O   0  0  0  0  0  0
    0.0127   50.7173   23.9552 C   0  0  0  0  0  0
   -0.0564   49.6985   22.9967 C   0  0  0  0  0  0
   -0.7052   48.4983   23.2806 C   0  0  0  0  0  0
   -1.2729   48.2945   24.5343 C   0  0  0  0  0  0
   -1.1839   49.2883   25.5045 C   0  0  0  0  0  0
   -0.5243   50.4945   25.2424 C   0  0  0  0  0  0
   -0.4105   51.4845   26.3335 N   0  3  0  0  0  0
   -1.4217   51.7489   26.9769 O   0  0  0  0  0  0
    0.6902   51.9768   26.5633 O   0  5  0  0  0  0
    9.1348   53.2724   16.4911 C   0  0  0  0  0  0
   12.1075   52.8126   13.6085 H   0  0  0  0  0  0
   11.2021   54.3029   13.7648 H   0  0  0  0  0  0
   10.3938   52.7526   13.9505 H   0  0  0  0  0  0
   11.9555   51.7934   17.2426 H   0  0  0  0  0  0
   10.9605   51.2235   15.9079 H   0  0  0  0  0  0
   12.6847   51.3848   15.6936 H   0  0  0  0  0  0
   13.2182   54.1601   16.9528 H   0  0  0  0  0  0
   13.8064   53.4802   15.4445 H   0  0  0  0  0  0
   13.0034   55.0260   15.4361 H   0  0  0  0  0  0
   11.1621   56.0446   16.0434 H   0  0  0  0  0  0
    9.7888   55.5573   15.1328 H   0  0  0  0  0  0
   10.0114   56.5087   18.0403 H   0  0  0  0  0  0
    9.0643   57.2085   16.7491 H   0  0  0  0  0  0
    7.0437   57.8406   16.9821 H   0  0  0  0  0  0
    6.7078   59.0766   18.1638 H   0  0  0  0  0  0
    4.3565   54.2990   19.3463 H   0  0  0  0  0  0
    3.9219   55.2927   22.4750 H   0  0  0  0  0  0
    3.6514   52.5620   21.0846 H   0  0  0  0  0  0
    1.5226   55.1413   23.3192 H   0  0  0  0  0  0
   -0.3854   53.6951   24.4818 H   0  0  0  0  0  0
    0.3688   49.8457   22.0141 H   0  0  0  0  0  0
   -0.7729   47.7286   22.5267 H   0  0  0  0  0  0
   -1.7736   47.3661   24.7645 H   0  0  0  0  0  0
   -1.6126   49.1101   26.4817 H   0  0  0  0  0  0
    8.7665   53.1883   15.4694 H   0  0  0  0  0  0
    9.2273   52.2579   16.8775 H   0  0  0  0  0  0
  1  2  1  0  0  0
  1 37  1  0  0  0
  1 38  1  0  0  0
  1 39  1  0  0  0
  2  3  1  0  0  0
  2  4  1  0  0  0
  2  5  1  0  0  0
  3 40  1  0  0  0
  3 41  1  0  0  0
  3 42  1  0  0  0
  4 43  1  0  0  0
  4 44  1  0  0  0
  4 45  1  0  0  0
  5  6  1  0  0  0
  5 36  1  0  0  0
  5  7  1  0  0  0
  7  8  1  0  0  0
  7 46  1  0  0  0
  7 47  1  0  0  0
  8  9  1  0  0  0
  8 48  1  0  0  0
  8 49  1  0  0  0
  9 13  1  0  0  0
  9 10  2  0  0  0
 10 11  1  0  0  0
 10 36  1  0  0  0
 11 12  1  0  0  0
 12 13  2  0  0  0
 12 17  1  0  0  0
 13 14  1  0  0  0
 14 15  2  0  0  0
 14 16  1  0  0  0
 16 50  1  0  0  0
 16 51  1  0  0  0
 17 18  1  0  0  0
 17 52  1  0  0  0
 18 19  2  0  0  0
 18 20  1  0  0  0
 20 21  2  0  0  0
 20 53  1  0  0  0
 21 22  1  0  0  0
 21 54  1  0  0  0
 22 26  1  0  0  0
 22 23  2  0  0  0
 23 24  1  0  0  0
 23 55  1  0  0  0
 24 25  2  0  0  0
 24 56  1  0  0  0
 25 26  1  0  0  0
 25 27  1  0  0  0
 27 32  2  0  0  0
 27 28  1  0  0  0
 28 29  2  0  0  0
 28 57  1  0  0  0
 29 30  1  0  0  0
 29 58  1  0  0  0
 30 31  2  0  0  0
 30 59  1  0  0  0
 31 32  1  0  0  0
 31 60  1  0  0  0
 32 33  1  0  0  0
 33 34  2  0  0  0
 33 35  1  0  0  0
 36 61  1  0  0  0
 36 62  1  0  0  0
M  CHG  2  33   1  35  -1
M  END
> <i_i_glide_confnum>
98

> <i_i_glide_lignum>
2888

> <i_i_glide_posenum>
346

> <i_i_glide_rotatable_bonds>
8

> <i_m_Source_File_Index>
1266

> <b_m_subgroup_collapsed>
0

> <r_i_docking_score>
-4.09433

> <r_i_glide_ecoul>
-8.47673

> <r_i_glide_eff_state_penalty>
0

> <r_i_glide_einternal>
16.7945

> <r_i_glide_emodel>
-45.2606

> <r_i_glide_energy>
-41.0241

> <r_i_glide_erotb>
0.418125

> <r_i_glide_esite>
-0.125059

> <r_i_glide_evdw>
-32.5473

> <r_i_glide_gscore>
-4.09433

> <r_i_glide_hbond>
-0.32

> <r_i_glide_ligand_efficiency>
-0.116981

> <r_i_glide_ligand_efficiency_ln>
-0.898797

> <r_i_glide_ligand_efficiency_sa>
-0.382653

> <r_i_glide_lipo>
-0.91916

> <r_i_glide_metal>
0

> <r_i_glide_rewards>
-0.249363

> <s_i_glide_gridfile>
wee1_glide-grid

> <s_m_Source_File>
wee1_decoys_glide_SP.sdf

> <s_m_Source_Path>
/Users/zhangxujun/Desktop

> <s_m_entry_id>
1541

> <s_m_entry_name>
wee1_decoys_glide_SP.1266

> <s_m_subgroup_title>
wee1_decoys_glide_SP

> <s_m_subgroupid>
wee1_decoys_glide_SP


$$$$
