@<TRIPOS>MOLECULE
ZINC06245303_928
59   64    1
SMALL
USER_CHARGES


@<TRIPOS>ATOM
      1 C1         -0.0976   48.5654   18.0009 C.3       1 UNK         0.0000 
      2 C2          0.7234   49.3920   18.9736 C.ar      1 UNK         0.0000 
      3 C3          1.5238   48.7497   19.9219 C.ar      1 UNK         0.0000 
      4 C4          2.3036   49.4995   20.7973 C.ar      1 UNK         0.0000 
      5 C5          2.2794   50.8924   20.7200 C.ar      1 UNK         0.0000 
      6 C6          1.4856   51.5407   19.7688 C.ar      1 UNK         0.0000 
      7 C7          0.7051   50.7872   18.8968 C.ar      1 UNK         0.0000 
      8 N8          3.1236   51.6280   21.5663 N.pl3     1 UNK         0.0000 
      9 C9          2.8414   52.6099   22.4834 C.2       1 UNK         0.0000 
     10 S10         1.2571   52.8826   22.9851 S.2       1 UNK         0.0000 
     11 N11         3.9411   53.3424   22.9250 N.pl3     1 UNK         0.0000 
     12 C12         5.2824   53.1833   22.3111 C.3       1 UNK         0.0000 
     13 C13         5.4941   54.0967   21.1082 C.ar      1 UNK         0.0000 
     14 C14         5.1042   53.6714   19.8207 C.ar      1 UNK         0.0000 
     15 C15         5.2609   54.5090   18.7091 C.ar      1 UNK         0.0000 
     16 C16         5.8338   55.7575   18.9186 C.ar      1 UNK         0.0000 
     17 C17         6.2523   56.1579   20.1564 C.ar      1 UNK         0.0000 
     18 C18         6.1154   55.3457   21.2767 C.ar      1 UNK         0.0000 
     19 O19         6.7046   57.4360   20.0815 O.3       1 UNK         0.0000 
     20 C20         6.7443   57.7527   18.7132 C.3       1 UNK         0.0000 
     21 O21         6.0263   56.7630   18.0269 O.3       1 UNK         0.0000 
     22 C22         3.8411   54.4746   23.8873 C.3       1 UNK         0.0000 
     23 C23         3.8402   54.0968   25.3745 C.ar      1 UNK         0.0000 
     24 C24         2.6764   54.0016   26.0592 C.ar      1 UNK         0.0000 
     25 C25         2.6222   53.5978   27.4648 C.ar      1 UNK         0.0000 
     26 C26         1.4100   53.4603   28.1525 C.ar      1 UNK         0.0000 
     27 C27         1.4766   52.9915   29.4575 C.ar      1 UNK         0.0000 
     28 C28         2.6636   52.6516   30.0476 C.ar      1 UNK         0.0000 
     29 C29         3.8844   52.7915   29.3898 C.ar      1 UNK         0.0000 
     30 C30         3.8556   53.2959   28.0804 C.ar      1 UNK         0.0000 
     31 N31         5.0379   53.4941   27.3436 N.pl3     1 UNK         0.0000 
     32 H32         5.9335   53.3413   27.7750 H         1 UNK         0.0000 
     33 C33         5.1312   53.8949   26.0496 C.ar      1 UNK         0.0000 
     34 O34         6.2354   54.0967   25.5510 O.2       1 UNK         0.0000 
     35 O35         2.4092   52.1552   31.2874 O.3       1 UNK         0.0000 
     36 C36         1.0638   52.4804   31.5437 C.3       1 UNK         0.0000 
     37 O37         0.4526   52.7421   30.3123 O.3       1 UNK         0.0000 
     38 H38         0.4809   47.7091   17.6542 H         1 UNK         0.0000 
     39 H39        -1.0026   48.1925   18.4821 H         1 UNK         0.0000 
     40 H40        -0.3733   49.1404   17.1155 H         1 UNK         0.0000 
     41 H41         1.5504   47.6711   19.9729 H         1 UNK         0.0000 
     42 H42         2.9242   48.9971   21.5263 H         1 UNK         0.0000 
     43 H43         1.4876   52.6207   19.6936 H         1 UNK         0.0000 
     44 H44         0.0997   51.2893   18.1552 H         1 UNK         0.0000 
     45 H45         4.0278   51.1949   21.6840 H         1 UNK         0.0000 
     46 H46         5.4890   52.1534   22.0169 H         1 UNK         0.0000 
     47 H47         6.0478   53.3972   23.0593 H         1 UNK         0.0000 
     48 H48         4.6601   52.6975   19.6714 H         1 UNK         0.0000 
     49 H49         4.9337   54.1909   17.7309 H         1 UNK         0.0000 
     50 H50         6.4401   55.6805   22.2513 H         1 UNK         0.0000 
     51 H51         6.3053   58.7368   18.5300 H         1 UNK         0.0000 
     52 H52         7.7828   57.7383   18.3730 H         1 UNK         0.0000 
     53 H53         4.6617   55.1738   23.7326 H         1 UNK         0.0000 
     54 H54         2.9613   55.0796   23.6646 H         1 UNK         0.0000 
     55 H55         1.7444   54.1664   25.5416 H         1 UNK         0.0000 
     56 H56         0.4649   53.6917   27.6847 H         1 UNK         0.0000 
     57 H57         4.8108   52.5014   29.8568 H         1 UNK         0.0000 
     58 H58         0.5310   51.6965   32.0809 H         1 UNK         0.0000 
     59 H59         1.0097   53.3748   32.1643 H         1 UNK         0.0000 
@<TRIPOS>BOND
     1    1    2 1    
     2    1   38 1    
     3    1   39 1    
     4    1   40 1    
     5    2    7 ar   
     6    2    3 ar   
     7    3    4 ar   
     8    3   41 1    
     9    4    5 ar   
    10    4   42 1    
    11    5    6 ar   
    12    5    8 1    
    13    6    7 ar   
    14    6   43 1    
    15    7   44 1    
    16    8    9 1    
    17    8   45 1    
    18    9   10 2    
    19    9   11 1    
    20   11   12 1    
    21   11   22 1    
    22   12   13 1    
    23   12   46 1    
    24   12   47 1    
    25   13   18 ar   
    26   13   14 ar   
    27   14   15 ar   
    28   14   48 1    
    29   15   16 ar   
    30   15   49 1    
    31   16   21 1    
    32   16   17 ar   
    33   17   18 ar   
    34   17   19 1    
    35   18   50 1    
    36   19   20 1    
    37   20   21 1    
    38   20   51 1    
    39   20   52 1    
    40   22   23 1    
    41   22   53 1    
    42   22   54 1    
    43   23   33 ar   
    44   23   24 ar   
    45   24   25 ar   
    46   24   55 1    
    47   25   30 ar   
    48   25   26 ar   
    49   26   27 ar   
    50   26   56 1    
    51   27   37 1    
    52   27   28 ar   
    53   28   29 ar   
    54   28   35 1    
    55   29   30 ar   
    56   29   57 1    
    57   30   31 ar   
    58   31   32 1    
    59   31   33 ar   
    60   33   34 2    
    61   35   36 1    
    62   36   37 1    
    63   36   58 1    
    64   36   59 1    
@<TRIPOS>SUBSTRUCTURE
     1 UNK         1 GROUP             0       ****    0 ROOT    
