@<TRIPOS>MOLECULE
ZINC22456800_2363
48   51    1
SMALL
USER_CHARGES


@<TRIPOS>ATOM
      1 C1          5.8751   58.3081   14.5823 C.ar      1 UNK         0.0000 
      2 C2          5.7455   56.9375   14.3725 C.ar      1 UNK         0.0000 
      3 C3          5.5769   56.0851   15.4601 C.ar      1 UNK         0.0000 
      4 C4          5.5478   56.6010   16.7582 C.ar      1 UNK         0.0000 
      5 C5          5.6707   57.9845   16.9607 C.ar      1 UNK         0.0000 
      6 C6          5.8361   58.8336   15.8708 C.ar      1 UNK         0.0000 
      7 N7          5.3409   55.6761   17.7964 N.am      1 UNK         0.0000 
      8 C8          5.6497   55.8020   19.1004 C.2       1 UNK         0.0000 
      9 O9          6.3069   56.7279   19.5856 O.2       1 UNK         0.0000 
     10 N10         5.1090   54.7932   19.8135 N.am      1 UNK         0.0000 
     11 C11         5.2093   54.6076   21.2013 C.ar      1 UNK         0.0000 
     12 C12         4.0941   54.0967   21.8680 C.ar      1 UNK         0.0000 
     13 C13         4.1334   53.9173   23.2483 C.ar      1 UNK         0.0000 
     14 C14         5.2926   54.2228   23.9647 C.ar      1 UNK         0.0000 
     15 C15         6.4221   54.7019   23.2882 C.ar      1 UNK         0.0000 
     16 C16         6.3770   54.8984   21.9152 C.ar      1 UNK         0.0000 
     17 N17         5.2736   53.9414   25.3393 N.am      1 UNK         0.0000 
     18 C18         6.1486   54.3130   26.2905 C.2       1 UNK         0.0000 
     19 O19         6.9986   55.1956   26.1626 O.2       1 UNK         0.0000 
     20 C20         6.0427   53.5440   27.6063 C.3       1 UNK         0.0000 
     21 S21         5.1833   54.5022   28.8809 S.3       1 UNK         0.0000 
     22 C22         3.5260   53.9448   28.7729 C.2       1 UNK         0.0000 
     23 N23         3.1208   52.8957   28.1168 N.2       1 UNK         0.0000 
     24 C24         1.8296   52.6001   28.4150 C.ar      1 UNK         0.0000 
     25 C25         1.1276   51.4910   27.9332 C.ar      1 UNK         0.0000 
     26 C26        -0.1785   51.2969   28.3646 C.ar      1 UNK         0.0000 
     27 C27        -0.7508   52.1242   29.3180 C.ar      1 UNK         0.0000 
     28 C28        -0.0866   53.2504   29.8008 C.ar      1 UNK         0.0000 
     29 C29         1.2025   53.4910   29.3196 C.ar      1 UNK         0.0000 
     30 S30         2.3041   54.7985   29.6809 S.3       1 UNK         0.0000 
     31 H31         5.9984   58.9732   13.7392 H         1 UNK         0.0000 
     32 H32         5.7715   56.5402   13.3693 H         1 UNK         0.0000 
     33 H33         5.4726   55.0236   15.2858 H         1 UNK         0.0000 
     34 H34         5.6206   58.4229   17.9458 H         1 UNK         0.0000 
     35 H35         5.9145   59.9000   16.0316 H         1 UNK         0.0000 
     36 H36         4.9679   54.7865   17.5021 H         1 UNK         0.0000 
     37 H37         4.4513   54.1932   19.3393 H         1 UNK         0.0000 
     38 H38         3.1882   53.8650   21.3268 H         1 UNK         0.0000 
     39 H39         3.2575   53.5317   23.7526 H         1 UNK         0.0000 
     40 H40         7.3503   54.9127   23.7973 H         1 UNK         0.0000 
     41 H41         7.2604   55.2658   21.4128 H         1 UNK         0.0000 
     42 H42         4.5261   53.3310   25.6379 H         1 UNK         0.0000 
     43 H43         7.0581   53.3724   27.9635 H         1 UNK         0.0000 
     44 H44         5.6068   52.5540   27.4695 H         1 UNK         0.0000 
     45 H45         1.5850   50.7716   27.2815 H         1 UNK         0.0000 
     46 H46        -0.7534   50.4669   27.9915 H         1 UNK         0.0000 
     47 H47        -1.7313   51.8732   29.6815 H         1 UNK         0.0000 
     48 H48        -0.5219   53.9011   30.5420 H         1 UNK         0.0000 
@<TRIPOS>BOND
     1    1    6 ar   
     2    1    2 ar   
     3    1   31 1    
     4    2    3 ar   
     5    2   32 1    
     6    3    4 ar   
     7    3   33 1    
     8    4    5 ar   
     9    4    7 1    
    10    5    6 ar   
    11    5   34 1    
    12    6   35 1    
    13    7    8 am   BACKBONE|DICT|INTERRES
    14    7   36 1    
    15    8    9 2    
    16    8   10 am   BACKBONE|DICT|INTERRES
    17   10   11 1    
    18   10   37 1    
    19   11   16 ar   
    20   11   12 ar   
    21   12   13 ar   
    22   12   38 1    
    23   13   14 ar   
    24   13   39 1    
    25   14   15 ar   
    26   14   17 1    
    27   15   16 ar   
    28   15   40 1    
    29   16   41 1    
    30   17   18 am   BACKBONE|DICT|INTERRES
    31   17   42 1    
    32   18   19 2    
    33   18   20 1    
    34   20   21 1    
    35   20   43 1    
    36   20   44 1    
    37   21   22 1    
    38   22   30 1    
    39   22   23 2    
    40   23   24 1    
    41   24   29 ar   
    42   24   25 ar   
    43   25   26 ar   
    44   25   45 1    
    45   26   27 ar   
    46   26   46 1    
    47   27   28 ar   
    48   27   47 1    
    49   28   29 ar   
    50   28   48 1    
    51   29   30 1    
@<TRIPOS>SUBSTRUCTURE
     1 UNK         1 GROUP             0       ****    0 ROOT    
