@<TRIPOS>MOLECULE
ZINC57619999_1764
43   45    1
SMALL
USER_CHARGES


@<TRIPOS>ATOM
      1 C1          0.2420   51.2008   24.8532 C.ar      1 UNK         0.0000 
      2 C2          1.1046   52.0975   25.4755 C.ar      1 UNK         0.0000 
      3 C3          0.9176   52.4657   26.8116 C.ar      1 UNK         0.0000 
      4 C4         -0.1782   51.9311   27.5004 C.ar      1 UNK         0.0000 
      5 C5         -1.0382   51.0276   26.8813 C.ar      1 UNK         0.0000 
      6 C6         -0.8370   50.6377   25.5486 C.ar      1 UNK         0.0000 
      7 C7         -1.7322   49.6709   24.8754 C.2       1 UNK         0.0000 
      8 N8         -2.0997   49.9233   23.6782 N.2       1 UNK         0.0000 
      9 O9         -3.0075   48.9886   23.1395 O.3       1 UNK         0.0000 
     10 N10        -2.0135   48.5782   25.6817 N.pl3     1 UNK         0.0000 
     11 N11         1.8164   53.3112   27.4590 N.pl3     1 UNK         0.0000 
     12 C12         1.3860   54.3553   28.4085 C.3       1 UNK         0.0000 
     13 C13         2.2473   54.3800   29.6820 C.3       1 UNK         0.0000 
     14 C14         3.7359   54.5188   29.3462 C.3       1 UNK         0.0000 
     15 C15         4.1600   53.4026   28.3766 C.3       1 UNK         0.0000 
     16 H16         3.9769   52.4493   28.8767 H         1 UNK         0.0000 
     17 C17         3.2536   53.3997   27.1080 C.3       1 UNK         0.0000 
     18 H18         3.5363   52.4967   26.5789 H         1 UNK         0.0000 
     19 C19         3.6032   54.5458   26.1294 C.3       1 UNK         0.0000 
     20 C20         5.1031   54.5692   25.7669 C.3       1 UNK         0.0000 
     21 C21         6.0075   54.5852   27.0153 C.3       1 UNK         0.0000 
     22 C22         5.6595   53.4448   27.9897 C.3       1 UNK         0.0000 
     23 H23         0.4292   50.9327   23.8229 H         1 UNK         0.0000 
     24 H24         1.9323   52.4911   24.9078 H         1 UNK         0.0000 
     25 H25        -0.3481   52.1681   28.5400 H         1 UNK         0.0000 
     26 H26        -1.8573   50.6178   27.4568 H         1 UNK         0.0000 
     27 H27        -3.1955   48.4291   23.8945 H         1 UNK         0.0000 
     28 H28        -2.4859   47.7564   25.3475 H         1 UNK         0.0000 
     29 H29        -1.6955   48.5501   26.6561 H         1 UNK         0.0000 
     30 H30         1.4308   55.3213   27.9049 H         1 UNK         0.0000 
     31 H31         0.3436   54.2226   28.6956 H         1 UNK         0.0000 
     32 H32         1.9323   55.2150   30.3090 H         1 UNK         0.0000 
     33 H33         2.0535   53.4829   30.2718 H         1 UNK         0.0000 
     34 H34         3.9272   55.4963   28.9076 H         1 UNK         0.0000 
     35 H35         4.3457   54.4851   30.2486 H         1 UNK         0.0000 
     36 H36         3.0149   54.4666   25.2152 H         1 UNK         0.0000 
     37 H37         3.3381   55.5006   26.5716 H         1 UNK         0.0000 
     38 H38         5.3402   53.6929   25.1618 H         1 UNK         0.0000 
     39 H39         5.3215   55.4350   25.1401 H         1 UNK         0.0000 
     40 H40         7.0534   54.5066   26.7153 H         1 UNK         0.0000 
     41 H41         5.9159   55.5421   27.5283 H         1 UNK         0.0000 
     42 H42         6.2811   53.5265   28.8818 H         1 UNK         0.0000 
     43 H43         5.9305   52.4970   27.5256 H         1 UNK         0.0000 
@<TRIPOS>BOND
     1    1    6 ar   
     2    1    2 ar   
     3    1   23 1    
     4    2    3 ar   
     5    2   24 1    
     6    3    4 ar   
     7    3   11 1    
     8    4    5 ar   
     9    4   25 1    
    10    5    6 ar   
    11    5   26 1    
    12    6    7 1    
    13    7    8 2    
    14    7   10 1    
    15    8    9 1    
    16    9   27 1    
    17   10   28 1    
    18   10   29 1    
    19   11   17 1    
    20   11   12 1    
    21   12   13 1    
    22   12   30 1    
    23   12   31 1    
    24   13   14 1    
    25   13   32 1    
    26   13   33 1    
    27   14   15 1    
    28   14   34 1    
    29   14   35 1    
    30   15   16 1    
    31   15   22 1    
    32   15   17 1    
    33   17   18 1    
    34   17   19 1    
    35   19   20 1    
    36   19   36 1    
    37   19   37 1    
    38   20   21 1    
    39   20   38 1    
    40   20   39 1    
    41   21   22 1    
    42   21   40 1    
    43   21   41 1    
    44   22   42 1    
    45   22   43 1    
@<TRIPOS>SUBSTRUCTURE
     1 UNK         1 GROUP             0       ****    0 ROOT    
