@<TRIPOS>MOLECULE
ZINC13432980_4268
60   61    1
SMALL
USER_CHARGES


@<TRIPOS>ATOM
      1 C1          4.3551   55.4937   17.1266 C.3       1 UNK         0.0000 
      2 C2          4.8142   54.9467   18.4883 C.ar      1 UNK         0.0000 
      3 C3          5.6391   55.7156   19.3436 C.ar      1 UNK         0.0000 
      4 C4          5.9467   55.2234   20.6327 C.ar      1 UNK         0.0000 
      5 C5          5.5041   53.9553   21.0418 C.ar      1 UNK         0.0000 
      6 C6          4.7853   53.1593   20.1389 C.ar      1 UNK         0.0000 
      7 C7          4.3930   53.6696   18.8977 C.ar      1 UNK         0.0000 
      8 Cl8         3.3589   52.7024   17.8886 Cl        1 UNK         0.0000 
      9 O9          4.4475   51.8676   20.4678 O.3       1 UNK         0.0000 
     10 C10         5.8407   53.4176   22.4460 C.3       1 UNK         0.0000 
     11 C11         4.8886   53.6967   23.6085 C.2       1 UNK         0.0000 
     12 C12         3.5760   54.0389   23.6450 C.2       1 UNK         0.0000 
     13 C13         2.7615   54.3248   22.3819 C.3       1 UNK         0.0000 
     14 C14         2.8341   54.1973   24.9926 C.3       1 UNK         0.0000 
     15 H15         3.1044   55.1941   25.3382 H         1 UNK         0.0000 
     16 C16         3.1164   53.1338   26.0902 C.3       1 UNK         0.0000 
     17 C17         2.8439   53.4375   27.6035 C.3       1 UNK         0.0000 
     18 C18         3.7753   54.6240   28.0228 C.3       1 UNK         0.0000 
     19 H19         3.4159   55.4897   27.4768 H         1 UNK         0.0000 
     20 C20         3.5736   54.9584   29.5008 C.3       1 UNK         0.0000 
     21 C21         2.1426   55.4614   29.7723 C.3       1 UNK         0.0000 
     22 C22         1.1044   54.4345   29.3059 C.2       1 UNK         0.0000 
     23 O23         0.1721   54.0967   30.0344 O.2       1 UNK         0.0000 
     24 C24         1.3431   53.8689   27.8720 C.3       1 UNK         0.0000 
     25 H25         1.1112   54.7333   27.2561 H         1 UNK         0.0000 
     26 C26         0.2887   52.7735   27.5455 C.3       1 UNK         0.0000 
     27 C27         5.2906   54.4814   27.7051 C.3       1 UNK         0.0000 
     28 C28         3.1504   52.1861   28.4823 C.3       1 UNK         0.0000 
     29 O29         1.4448   54.0966   24.7817 O.3       1 UNK         0.0000 
     30 O30         6.7045   55.9574   21.5162 O.3       1 UNK         0.0000 
     31 C31         6.1426   57.0564   18.8814 C.2       1 UNK         0.0000 
     32 O32         6.7043   57.8959   19.5823 O.2       1 UNK         0.0000 
     33 H33         3.5440   54.9361   16.6636 H         1 UNK         0.0000 
     34 H34         3.9695   56.5081   17.2347 H         1 UNK         0.0000 
     35 H35         5.1915   55.5244   16.4277 H         1 UNK         0.0000 
     36 H36         4.3554   51.3480   19.6554 H         1 UNK         0.0000 
     37 H37         5.9485   52.3333   22.4084 H         1 UNK         0.0000 
     38 H38         6.8284   53.7671   22.7476 H         1 UNK         0.0000 
     39 H39         5.3989   53.5524   24.5460 H         1 UNK         0.0000 
     40 H40         2.4588   53.3918   21.9068 H         1 UNK         0.0000 
     41 H41         1.8545   54.8967   22.5660 H         1 UNK         0.0000 
     42 H42         3.3114   54.9266   21.6707 H         1 UNK         0.0000 
     43 H43         2.6057   52.2160   25.8049 H         1 UNK         0.0000 
     44 H44         4.1683   52.8963   26.0448 H         1 UNK         0.0000 
     45 H45         4.2611   55.7701   29.6816 H         1 UNK         0.0000 
     46 H46         3.9048   54.1639   30.1700 H         1 UNK         0.0000 
     47 H47         1.9544   56.3827   29.2203 H         1 UNK         0.0000 
     48 H48         1.9804   55.6794   30.8281 H         1 UNK         0.0000 
     49 H49        -0.7231   53.1813   27.5570 H         1 UNK         0.0000 
     50 H50         0.4366   52.3238   26.5651 H         1 UNK         0.0000 
     51 H51         0.3084   51.9588   28.2717 H         1 UNK         0.0000 
     52 H52         5.7149   53.5569   28.0955 H         1 UNK         0.0000 
     53 H53         5.4922   54.5222   26.6363 H         1 UNK         0.0000 
     54 H54         5.8704   55.2963   28.1389 H         1 UNK         0.0000 
     55 H55         2.8105   52.2804   29.5131 H         1 UNK         0.0000 
     56 H56         2.6651   51.2968   28.0822 H         1 UNK         0.0000 
     57 H57         4.2173   51.9787   28.5235 H         1 UNK         0.0000 
     58 H58         1.0408   53.8082   25.6032 H         1 UNK         0.0000 
     59 H59         6.8478   55.5061   22.3497 H         1 UNK         0.0000 
     60 H60         5.9847   57.2782   17.8273 H         1 UNK         0.0000 
@<TRIPOS>BOND
     1    1    2 1    
     2    1   33 1    
     3    1   34 1    
     4    1   35 1    
     5    2    7 ar   
     6    2    3 ar   
     7    3    4 ar   
     8    3   31 1    
     9    4    5 ar   
    10    4   30 1    
    11    5    6 ar   
    12    5   10 1    
    13    6    7 ar   
    14    6    9 1    
    15    7    8 1    
    16    9   36 1    
    17   10   11 1    
    18   10   37 1    
    19   10   38 1    
    20   11   12 2    
    21   11   39 1    
    22   12   13 1    
    23   12   14 1    
    24   13   40 1    
    25   13   41 1    
    26   13   42 1    
    27   14   15 1    
    28   14   16 1    
    29   14   29 1    
    30   16   17 1    
    31   16   43 1    
    32   16   44 1    
    33   17   24 1    
    34   17   18 1    
    35   17   28 1    
    36   18   19 1    
    37   18   20 1    
    38   18   27 1    
    39   20   21 1    
    40   20   45 1    
    41   20   46 1    
    42   21   22 1    
    43   21   47 1    
    44   21   48 1    
    45   22   23 2    
    46   22   24 1    
    47   24   25 1    
    48   24   26 1    
    49   26   49 1    
    50   26   50 1    
    51   26   51 1    
    52   27   52 1    
    53   27   53 1    
    54   27   54 1    
    55   28   55 1    
    56   28   56 1    
    57   28   57 1    
    58   29   58 1    
    59   30   59 1    
    60   31   32 2    
    61   31   60 1    
@<TRIPOS>SUBSTRUCTURE
     1 UNK         1 GROUP             0       ****    0 ROOT    
