@<TRIPOS>MOLECULE
ZINC28310976_5494
56   58    1
SMALL
USER_CHARGES


@<TRIPOS>ATOM
      1 C1          7.9431   56.2398   19.4755 C.3       1 UNK         0.0000 
      2 O2          7.5621   56.0705   20.8390 O.3       1 UNK         0.0000 
      3 C3          6.4555   55.2960   21.1278 C.ar      1 UNK         0.0000 
      4 C4          6.3070   54.8958   22.4540 C.ar      1 UNK         0.0000 
      5 C5          5.2364   54.0950   22.8378 C.ar      1 UNK         0.0000 
      6 C6          4.2900   53.6857   21.8973 C.ar      1 UNK         0.0000 
      7 C7          4.4230   54.0956   20.5627 C.ar      1 UNK         0.0000 
      8 C8          5.5012   54.8943   20.1809 C.ar      1 UNK         0.0000 
      9 N9          3.2556   52.8711   22.3949 N.am      1 UNK         0.0000 
     10 C10         2.3078   52.1412   21.7453 C.2       1 UNK         0.0000 
     11 O11         2.2077   52.1322   20.5182 O.2       1 UNK         0.0000 
     12 C12         1.4108   51.3466   22.6065 C.2       1 UNK         0.0000 
     13 C13         0.7229   50.2681   22.1160 C.2       1 UNK         0.0000 
     14 C14         0.7260   49.6063   20.7916 C.ar      1 UNK         0.0000 
     15 C15         1.9204   49.1752   20.2130 C.ar      1 UNK         0.0000 
     16 C16         1.9194   48.5175   18.9867 C.ar      1 UNK         0.0000 
     17 C17         0.7286   48.2670   18.3128 C.ar      1 UNK         0.0000 
     18 C18        -0.4762   48.6877   18.8966 C.ar      1 UNK         0.0000 
     19 C19        -0.4910   49.3538   20.1366 C.ar      1 UNK         0.0000 
     20 O20        -1.6536   49.7827   20.7567 O.3       1 UNK         0.0000 
     21 C21        -2.9132   49.5418   20.1350 C.3       1 UNK         0.0000 
     22 O22         0.8263   47.6035   17.1050 O.3       1 UNK         0.0000 
     23 C23        -0.3456   47.4106   16.3224 C.3       1 UNK         0.0000 
     24 N24         1.2855   51.7810   23.9187 N.am      1 UNK         0.0000 
     25 C25         0.3320   51.5282   24.8501 C.2       1 UNK         0.0000 
     26 O26        -0.7030   50.8901   24.6434 O.2       1 UNK         0.0000 
     27 C27         0.6052   52.0935   26.2273 C.ar      1 UNK         0.0000 
     28 C28        -0.0772   51.5646   27.3326 C.ar      1 UNK         0.0000 
     29 C29         0.1038   52.1039   28.6013 C.ar      1 UNK         0.0000 
     30 C30         0.9675   53.1823   28.7709 C.ar      1 UNK         0.0000 
     31 C31         1.6785   53.6998   27.6931 C.ar      1 UNK         0.0000 
     32 C32         1.5041   53.1574   26.4243 C.ar      1 UNK         0.0000 
     33 Br33        1.1603   53.9820   30.4841 Br        1 UNK         0.0000 
     34 H34         8.9065   56.7482   19.4342 H         1 UNK         0.0000 
     35 H35         8.0605   55.2813   18.9661 H         1 UNK         0.0000 
     36 H36         7.2209   56.8481   18.9285 H         1 UNK         0.0000 
     37 H37         7.0426   55.1986   23.1870 H         1 UNK         0.0000 
     38 H38         5.1581   53.7897   23.8724 H         1 UNK         0.0000 
     39 H39         3.7077   53.8165   19.8045 H         1 UNK         0.0000 
     40 H40         5.5775   55.1928   19.1473 H         1 UNK         0.0000 
     41 H41         3.3107   52.7450   23.3908 H         1 UNK         0.0000 
     42 H42         0.0721   49.7297   22.7852 H         1 UNK         0.0000 
     43 H43         2.8649   49.3551   20.7089 H         1 UNK         0.0000 
     44 H44         2.8571   48.2134   18.5414 H         1 UNK         0.0000 
     45 H45        -1.4035   48.4904   18.3865 H         1 UNK         0.0000 
     46 H46        -3.7069   49.9469   20.7622 H         1 UNK         0.0000 
     47 H47        -2.9766   50.0322   19.1625 H         1 UNK         0.0000 
     48 H48        -3.1010   48.4739   20.0157 H         1 UNK         0.0000 
     49 H49        -0.0762   46.9120   15.3929 H         1 UNK         0.0000 
     50 H50        -1.0745   46.7828   16.8378 H         1 UNK         0.0000 
     51 H51        -0.8129   48.3623   16.0620 H         1 UNK         0.0000 
     52 H52         2.0269   52.3739   24.2498 H         1 UNK         0.0000 
     53 H53        -0.7615   50.7311   27.2203 H         1 UNK         0.0000 
     54 H54        -0.4364   51.6945   29.4457 H         1 UNK         0.0000 
     55 H55         2.3460   54.5349   27.8393 H         1 UNK         0.0000 
     56 H56         2.0488   53.6069   25.6082 H         1 UNK         0.0000 
@<TRIPOS>BOND
     1    1    2 1    
     2    1   34 1    
     3    1   35 1    
     4    1   36 1    
     5    2    3 1    
     6    3    8 ar   
     7    3    4 ar   
     8    4    5 ar   
     9    4   37 1    
    10    5    6 ar   
    11    5   38 1    
    12    6    7 ar   
    13    6    9 1    
    14    7    8 ar   
    15    7   39 1    
    16    8   40 1    
    17    9   10 am   BACKBONE|DICT|INTERRES
    18    9   41 1    
    19   10   11 2    
    20   10   12 1    
    21   12   13 2    
    22   12   24 1    
    23   13   14 1    
    24   13   42 1    
    25   14   19 ar   
    26   14   15 ar   
    27   15   16 ar   
    28   15   43 1    
    29   16   17 ar   
    30   16   44 1    
    31   17   18 ar   
    32   17   22 1    
    33   18   19 ar   
    34   18   45 1    
    35   19   20 1    
    36   20   21 1    
    37   21   46 1    
    38   21   47 1    
    39   21   48 1    
    40   22   23 1    
    41   23   49 1    
    42   23   50 1    
    43   23   51 1    
    44   24   25 am   BACKBONE|DICT|INTERRES
    45   24   52 1    
    46   25   26 2    
    47   25   27 1    
    48   27   32 ar   
    49   27   28 ar   
    50   28   29 ar   
    51   28   53 1    
    52   29   30 ar   
    53   29   54 1    
    54   30   31 ar   
    55   30   33 1    
    56   31   32 ar   
    57   31   55 1    
    58   32   56 1    
@<TRIPOS>SUBSTRUCTURE
     1 UNK         1 GROUP             0       ****    0 ROOT    
