ZINC38563338_2062
                    3D
 Schrodinger Suite 2024-2.
 47 50  0  0  1  0            999 V2000
    2.1604   53.9492   23.3244 C   0  0  0  0  0  0
    3.4297   54.4802   23.0927 C   0  0  0  0  0  0
    4.1446   53.8660   22.0563 C   0  0  0  0  0  0
    3.1718   52.5794   21.3861 S   0  0  0  0  0  0
    1.8703   52.8931   22.4814 C   0  0  0  0  0  0
    5.5372   54.1404   21.4974 C   0  0  2  0  0  0
    5.9018   53.1710   21.1786 H   0  0  0  0  0  0
    6.5564   54.7497   22.5065 C   0  0  0  0  0  0
    6.6145   54.0312   23.7813 N   0  0  0  0  0  0
    6.3229   54.5568   24.9807 C   0  0  0  0  0  0
    6.6242   55.6981   25.3271 O   0  0  0  0  0  0
    5.5920   53.6975   25.7029 N   0  0  0  0  0  0
    4.8615   53.9877   26.8529 C   0  0  0  0  0  0
    5.4694   54.4806   28.0222 C   0  0  0  0  0  0
    4.7056   54.6921   29.1801 C   0  0  0  0  0  0
    3.3446   54.4110   29.1204 C   0  0  0  0  0  0
    2.7571   53.9330   27.9859 C   0  0  0  0  0  0
    3.4886   53.6986   26.8279 C   0  0  0  0  0  0
    1.4232   53.7808   28.1967 O   0  0  0  0  0  0
    1.2394   53.9576   29.5747 C   0  0  0  0  0  0
    2.3969   54.5696   30.0812 O   0  0  0  0  0  0
    5.5461   55.1698   19.8897 S   0  0  0  0  0  0
    5.9415   56.5469   20.2098 O   0  0  0  0  0  0
    4.3044   54.9036   19.1563 O   0  0  0  0  0  0
    6.8595   54.4824   18.8841 C   0  0  0  0  0  0
    6.5889   53.3717   18.0813 C   0  0  0  0  0  0
    7.5917   52.8400   17.2769 C   0  0  0  0  0  0
    8.8603   53.4145   17.2818 C   0  0  0  0  0  0
    9.1350   54.5221   18.0808 C   0  0  0  0  0  0
    8.1317   55.0603   18.8832 C   0  0  0  0  0  0
   10.1084   52.7369   16.3018 Cl  0  0  0  0  0  0
    1.4847   54.3172   24.0830 H   0  0  0  0  0  0
    3.8230   55.2955   23.6785 H   0  0  0  0  0  0
    0.9696   52.2984   22.4390 H   0  0  0  0  0  0
    7.5617   54.7374   22.0791 H   0  0  0  0  0  0
    6.3283   55.8043   22.6713 H   0  0  0  0  0  0
    6.7428   53.0330   23.7182 H   0  0  0  0  0  0
    5.3837   52.8019   25.2802 H   0  0  0  0  0  0
    6.5289   54.6928   28.0452 H   0  0  0  0  0  0
    5.1755   55.0732   30.0758 H   0  0  0  0  0  0
    3.0149   53.3066   25.9418 H   0  0  0  0  0  0
    1.1106   52.9800   30.0439 H   0  0  0  0  0  0
    0.3594   54.5705   29.7733 H   0  0  0  0  0  0
    5.6070   52.9165   18.0774 H   0  0  0  0  0  0
    7.3839   51.9754   16.6620 H   0  0  0  0  0  0
   10.1243   54.9574   18.0867 H   0  0  0  0  0  0
    8.3501   55.9185   19.5043 H   0  0  0  0  0  0
  1  5  2  0  0  0
  1  2  1  0  0  0
  1 32  1  0  0  0
  2  3  2  0  0  0
  2 33  1  0  0  0
  3  4  1  0  0  0
  3  6  1  0  0  0
  4  5  1  0  0  0
  5 34  1  0  0  0
  6  7  1  0  0  0
  6  8  1  0  0  0
  6 22  1  0  0  0
  8  9  1  0  0  0
  8 35  1  0  0  0
  8 36  1  0  0  0
  9 10  1  0  0  0
  9 37  1  0  0  0
 10 11  2  0  0  0
 10 12  1  0  0  0
 12 13  1  0  0  0
 12 38  1  0  0  0
 13 18  2  0  0  0
 13 14  1  0  0  0
 14 15  2  0  0  0
 14 39  1  0  0  0
 15 16  1  0  0  0
 15 40  1  0  0  0
 16 21  1  0  0  0
 16 17  2  0  0  0
 17 18  1  0  0  0
 17 19  1  0  0  0
 18 41  1  0  0  0
 19 20  1  0  0  0
 20 21  1  0  0  0
 20 42  1  0  0  0
 20 43  1  0  0  0
 22 23  2  0  0  0
 22 24  2  0  0  0
 22 25  1  0  0  0
 25 30  2  0  0  0
 25 26  1  0  0  0
 26 27  2  0  0  0
 26 44  1  0  0  0
 27 28  1  0  0  0
 27 45  1  0  0  0
 28 29  2  0  0  0
 28 31  1  0  0  0
 29 30  1  0  0  0
 29 46  1  0  0  0
 30 47  1  0  0  0
M  END
> <i_i_glide_confnum>
59

> <i_i_glide_lignum>
2063

> <i_i_glide_posenum>
20

> <i_i_glide_rotatable_bonds>
8

> <i_m_Source_File_Index>
1816

> <b_m_subgroup_collapsed>
0

> <r_i_docking_score>
-5.25883

> <r_i_glide_ecoul>
-4.35723

> <r_i_glide_eff_state_penalty>
0

> <r_i_glide_einternal>
9.73441

> <r_i_glide_emodel>
-54.8786

> <r_i_glide_energy>
-48.3252

> <r_i_glide_erotb>
0.652917

> <r_i_glide_esite>
-0.00849168

> <r_i_glide_evdw>
-43.968

> <r_i_glide_gscore>
-5.25883

> <r_i_glide_hbond>
-0.513055

> <r_i_glide_ligand_efficiency>
-0.175294

> <r_i_glide_ligand_efficiency_ln>
-1.19486

> <r_i_glide_ligand_efficiency_sa>
-0.54468

> <r_i_glide_lipo>
-2.88036

> <r_i_glide_metal>
0

> <r_i_glide_rewards>
0.342149

> <s_i_glide_gridfile>
wee1_glide-grid

> <s_m_Source_File>
wee1_decoys_glide_SP.sdf

> <s_m_Source_Path>
/Users/zhangxujun/Desktop

> <s_m_entry_id>
2091

> <s_m_entry_name>
wee1_decoys_glide_SP.1816

> <s_m_subgroup_title>
wee1_decoys_glide_SP

> <s_m_subgroupid>
wee1_decoys_glide_SP


$$$$
