@<TRIPOS>MOLECULE
ZINC37378007_5603
75   79    1
SMALL
USER_CHARGES


@<TRIPOS>ATOM
      1 C1         -3.7972   53.4304   24.0823 C.3       1 UNK         0.0000 
      2 C2         -2.6429   52.5637   23.5584 C.3       1 UNK         0.0000 
      3 C3         -1.2730   53.0938   24.0148 C.3       1 UNK         0.0000 
      4 C4         -0.0358   52.3154   23.4953 C.3       1 UNK         0.0000 
      5 H5         -0.0649   52.3768   22.4053 H         1 UNK         0.0000 
      6 C6         -0.0593   50.8167   23.8651 C.3       1 UNK         0.0000 
      7 C7          1.2767   52.9570   23.9582 C.ar      1 UNK         0.0000 
      8 N8          1.3920   53.2280   25.2772 N.ar      1 UNK         0.0000 
      9 C9          2.5813   53.7200   25.6225 C.ar      1 UNK         0.0000 
     10 C10         3.6735   53.9846   24.7419 C.ar      1 UNK         0.0000 
     11 C11         4.7119   54.4277   25.6573 C.ar      1 UNK         0.0000 
     12 N12         4.2466   54.4971   26.8846 N.2       1 UNK         0.0000 
     13 N13         2.9638   54.0959   26.8968 N.pl3     1 UNK         0.0000 
     14 C14         2.2246   54.0637   28.1053 C.ar      1 UNK         0.0000 
     15 C15         1.4754   52.9273   28.4390 C.ar      1 UNK         0.0000 
     16 C16         0.7000   52.9216   29.5970 C.ar      1 UNK         0.0000 
     17 C17         0.6625   54.0520   30.4114 C.ar      1 UNK         0.0000 
     18 C18         1.3930   55.1896   30.0805 C.ar      1 UNK         0.0000 
     19 C19         2.1716   55.1972   28.9268 C.ar      1 UNK         0.0000 
     20 F20        -0.0950   54.0525   31.5299 F         1 UNK         0.0000 
     21 C21         6.1789   54.7681   25.4783 C.3       1 UNK         0.0000 
     22 C22         3.4221   53.6968   23.3569 C.ar      1 UNK         0.0000 
     23 N23         2.2140   53.1653   23.0088 N.ar      1 UNK         0.0000 
     24 N24         4.2891   53.9196   22.2690 N.pl3     1 UNK         0.0000 
     25 C25         4.0794   53.2656   20.9538 C.3       1 UNK         0.0000 
     26 C26         4.5171   54.0461   19.7013 C.3       1 UNK         0.0000 
     27 N27         5.9036   54.4959   19.8877 N.am      1 UNK         0.0000 
     28 C28         6.1259   55.3030   21.0938 C.3       1 UNK         0.0000 
     29 C29         5.6105   54.5522   22.3494 C.3       1 UNK         0.0000 
     30 C30         6.8247   54.5045   18.8821 C.2       1 UNK         0.0000 
     31 O31         7.8247   55.2260   18.9035 O.2       1 UNK         0.0000 
     32 N32         6.6290   53.5951   17.9044 N.am      1 UNK         0.0000 
     33 C33         7.5421   53.3039   16.7957 C.3       1 UNK         0.0000 
     34 C34         8.8397   52.5582   17.2032 C.3       1 UNK         0.0000 
     35 C35         9.7613   52.2201   16.0164 C.3       1 UNK         0.0000 
     36 C36         9.0131   51.4805   14.8964 C.3       1 UNK         0.0000 
     37 C37         7.7797   52.2742   14.4326 C.3       1 UNK         0.0000 
     38 C38         6.8335   52.6243   15.5988 C.3       1 UNK         0.0000 
     39 H39        -4.7627   53.0069   23.8055 H         1 UNK         0.0000 
     40 H40        -3.7746   53.5021   25.1704 H         1 UNK         0.0000 
     41 H41        -3.7477   54.4437   23.6814 H         1 UNK         0.0000 
     42 H42        -2.6841   52.5172   22.4694 H         1 UNK         0.0000 
     43 H43        -2.7842   51.5442   23.9170 H         1 UNK         0.0000 
     44 H44        -1.2638   53.1163   25.1059 H         1 UNK         0.0000 
     45 H45        -1.1847   54.1285   23.6825 H         1 UNK         0.0000 
     46 H46         0.8482   50.3105   23.5324 H         1 UNK         0.0000 
     47 H47        -0.1386   50.6717   24.9435 H         1 UNK         0.0000 
     48 H48        -0.8984   50.3005   23.4001 H         1 UNK         0.0000 
     49 H49         1.4905   52.0486   27.8080 H         1 UNK         0.0000 
     50 H50         0.1192   52.0501   29.8645 H         1 UNK         0.0000 
     51 H51         1.3435   56.0664   30.7102 H         1 UNK         0.0000 
     52 H52         2.7049   56.0960   28.6711 H         1 UNK         0.0000 
     53 H53         6.6909   54.0479   24.8406 H         1 UNK         0.0000 
     54 H54         6.3272   55.7670   25.0687 H         1 UNK         0.0000 
     55 H55         6.7216   54.7521   26.4243 H         1 UNK         0.0000 
     56 H56         4.6798   52.3553   20.9972 H         1 UNK         0.0000 
     57 H57         3.0520   52.9393   20.7964 H         1 UNK         0.0000 
     58 H58         4.3698   53.4187   18.8219 H         1 UNK         0.0000 
     59 H59         3.8632   54.9119   19.5958 H         1 UNK         0.0000 
     60 H60         5.5367   56.2143   20.9883 H         1 UNK         0.0000 
     61 H61         7.1698   55.5909   21.2351 H         1 UNK         0.0000 
     62 H62         5.6073   55.2707   23.1559 H         1 UNK         0.0000 
     63 H63         6.3085   53.7426   22.5679 H         1 UNK         0.0000 
     64 H64         5.8681   52.9401   18.0164 H         1 UNK         0.0000 
     65 H65         7.8680   54.2715   16.4054 H         1 UNK         0.0000 
     66 H66         9.3999   53.1396   17.9377 H         1 UNK         0.0000 
     67 H67         8.5661   51.6164   17.6818 H         1 UNK         0.0000 
     68 H68        10.1923   53.1408   15.6206 H         1 UNK         0.0000 
     69 H69        10.6030   51.6178   16.3633 H         1 UNK         0.0000 
     70 H70         9.6808   51.3048   14.0528 H         1 UNK         0.0000 
     71 H71         8.7068   50.4960   15.2507 H         1 UNK         0.0000 
     72 H72         8.1028   53.1943   13.9448 H         1 UNK         0.0000 
     73 H73         7.2388   51.7052   13.6752 H         1 UNK         0.0000 
     74 H74         6.3721   51.6981   15.9416 H         1 UNK         0.0000 
     75 H75         6.0252   53.2562   15.2295 H         1 UNK         0.0000 
@<TRIPOS>BOND
     1    1    2 1    
     2    1   39 1    
     3    1   40 1    
     4    1   41 1    
     5    2    3 1    
     6    2   42 1    
     7    2   43 1    
     8    3    4 1    
     9    3   44 1    
    10    3   45 1    
    11    4    5 1    
    12    4    6 1    
    13    4    7 1    
    14    6   46 1    
    15    6   47 1    
    16    6   48 1    
    17    7   23 ar   
    18    7    8 ar   
    19    8    9 ar   
    20    9   13 ar   
    21    9   10 ar   
    22   10   11 ar   
    23   10   22 ar   
    24   11   12 ar   
    25   11   21 1    
    26   12   13 ar   
    27   13   14 1    
    28   14   19 ar   
    29   14   15 ar   
    30   15   16 ar   
    31   15   49 1    
    32   16   17 ar   
    33   16   50 1    
    34   17   18 ar   
    35   17   20 1    
    36   18   19 ar   
    37   18   51 1    
    38   19   52 1    
    39   21   53 1    
    40   21   54 1    
    41   21   55 1    
    42   22   23 ar   
    43   22   24 1    
    44   24   29 1    
    45   24   25 1    
    46   25   26 1    
    47   25   56 1    
    48   25   57 1    
    49   26   27 1    
    50   26   58 1    
    51   26   59 1    
    52   27   28 1    
    53   27   30 am   BACKBONE|DICT|INTERRES
    54   28   29 1    
    55   28   60 1    
    56   28   61 1    
    57   29   62 1    
    58   29   63 1    
    59   30   31 2    
    60   30   32 am   BACKBONE|DICT|INTERRES
    61   32   33 1    
    62   32   64 1    
    63   33   38 1    
    64   33   34 1    
    65   33   65 1    
    66   34   35 1    
    67   34   66 1    
    68   34   67 1    
    69   35   36 1    
    70   35   68 1    
    71   35   69 1    
    72   36   37 1    
    73   36   70 1    
    74   36   71 1    
    75   37   38 1    
    76   37   72 1    
    77   37   73 1    
    78   38   74 1    
    79   38   75 1    
@<TRIPOS>SUBSTRUCTURE
     1 UNK         1 GROUP             0       ****    0 ROOT    
