@<TRIPOS>MOLECULE
ZINC33960228_83
58   61    1
SMALL
USER_CHARGES


@<TRIPOS>ATOM
      1 C1         -2.3518   49.2262   22.3092 C.3       1 UNK         0.0000 
      2 C2         -2.5919   50.7453   22.2157 C.3       1 UNK         0.0000 
      3 H3         -3.4992   50.8955   21.6255 H         1 UNK         0.0000 
      4 C4         -2.8376   51.4006   23.6028 C.3       1 UNK         0.0000 
      5 C5         -1.5431   51.4797   24.4583 C.3       1 UNK         0.0000 
      6 H6         -1.1541   50.4691   24.6044 H         1 UNK         0.0000 
      7 C7         -0.4901   52.2851   23.6672 C.3       1 UNK         0.0000 
      8 N8         -0.2508   51.6390   22.3526 N.pl3     1 UNK         0.0000 
      9 C9         -1.4482   51.4937   21.4792 C.3       1 UNK         0.0000 
     10 S10         1.1556   50.5834   22.1099 S.o2      1 UNK         0.0000 
     11 O11         0.7179   49.3669   21.4137 O.2       1 UNK         0.0000 
     12 O12         1.9045   50.5190   23.3703 O.2       1 UNK         0.0000 
     13 C13         2.1715   51.5007   20.9542 C.ar      1 UNK         0.0000 
     14 C14         1.9573   51.3804   19.5798 C.ar      1 UNK         0.0000 
     15 C15         2.7552   52.0949   18.6873 C.ar      1 UNK         0.0000 
     16 C16         3.7746   52.9187   19.1644 C.ar      1 UNK         0.0000 
     17 C17         4.0004   53.0598   20.5394 C.ar      1 UNK         0.0000 
     18 C18         3.1761   52.3474   21.4255 C.ar      1 UNK         0.0000 
     19 C19         5.1056   53.9348   21.0589 C.2       1 UNK         0.0000 
     20 C20         5.8151   54.9186   20.3560 C.2       1 UNK         0.0000 
     21 S21         6.9824   55.6946   21.3958 S.3       1 UNK         0.0000 
     22 C22         6.4256   54.6632   22.6716 C.2       1 UNK         0.0000 
     23 N23         5.5037   53.8031   22.3116 N.2       1 UNK         0.0000 
     24 N24         6.9534   54.7975   23.9499 N.pl3     1 UNK         0.0000 
     25 N25         6.2904   54.5861   25.2046 N.2       1 UNK         0.0000 
     26 C26         5.0156   54.4874   25.2464 C.2       1 UNK         0.0000 
     27 C27         4.2017   54.1515   26.4140 C.ar      1 UNK         0.0000 
     28 C28         2.8907   53.6975   26.2095 C.ar      1 UNK         0.0000 
     29 C29         2.0688   53.3752   27.2883 C.ar      1 UNK         0.0000 
     30 C30         2.5448   53.5099   28.5890 C.ar      1 UNK         0.0000 
     31 C31         3.8446   53.9559   28.8061 C.ar      1 UNK         0.0000 
     32 C32         4.6758   54.2656   27.7291 C.ar      1 UNK         0.0000 
     33 O33         4.3003   54.0988   30.0818 O.3       1 UNK         0.0000 
     34 C34        -1.8077   52.0916   25.8427 C.3       1 UNK         0.0000 
     35 H35        -1.4659   48.9791   22.8961 H         1 UNK         0.0000 
     36 H36        -3.2025   48.7230   22.7761 H         1 UNK         0.0000 
     37 H37        -2.2189   48.7894   21.3188 H         1 UNK         0.0000 
     38 H38        -3.6028   50.8549   24.1546 H         1 UNK         0.0000 
     39 H39        -3.2493   52.4047   23.4773 H         1 UNK         0.0000 
     40 H40         0.4503   52.3691   24.2118 H         1 UNK         0.0000 
     41 H41        -0.8511   53.2975   23.4769 H         1 UNK         0.0000 
     42 H42        -1.7616   52.4971   21.1948 H         1 UNK         0.0000 
     43 H43        -1.1553   50.9640   20.5713 H         1 UNK         0.0000 
     44 H44         1.1858   50.7261   19.1967 H         1 UNK         0.0000 
     45 H45         2.6112   51.9789   17.6235 H         1 UNK         0.0000 
     46 H46         4.3999   53.4344   18.4516 H         1 UNK         0.0000 
     47 H47         3.3241   52.4417   22.4914 H         1 UNK         0.0000 
     48 H48         5.6981   55.2262   19.3295 H         1 UNK         0.0000 
     49 H49         7.9678   54.8965   24.0486 H         1 UNK         0.0000 
     50 H50         4.4098   54.6527   24.3607 H         1 UNK         0.0000 
     51 H51         2.4972   53.5801   25.2094 H         1 UNK         0.0000 
     52 H52         1.0645   53.0234   27.1154 H         1 UNK         0.0000 
     53 H53         1.9035   53.2676   29.4248 H         1 UNK         0.0000 
     54 H54         5.6849   54.6116   27.9133 H         1 UNK         0.0000 
     55 H55         5.2025   54.4303   30.0995 H         1 UNK         0.0000 
     56 H56        -2.1845   53.1131   25.7694 H         1 UNK         0.0000 
     57 H57        -2.5398   51.5051   26.3984 H         1 UNK         0.0000 
     58 H58        -0.8981   52.1124   26.4444 H         1 UNK         0.0000 
@<TRIPOS>BOND
     1    1    2 1    
     2    1   35 1    
     3    1   36 1    
     4    1   37 1    
     5    2    3 1    
     6    2    9 1    
     7    2    4 1    
     8    4    5 1    
     9    4   38 1    
    10    4   39 1    
    11    5    6 1    
    12    5    7 1    
    13    5   34 1    
    14    7    8 1    
    15    7   40 1    
    16    7   41 1    
    17    8    9 1    
    18    8   10 1    
    19    9   42 1    
    20    9   43 1    
    21   10   11 2    
    22   10   12 2    
    23   10   13 1    
    24   13   18 ar   
    25   13   14 ar   
    26   14   15 ar   
    27   14   44 1    
    28   15   16 ar   
    29   15   45 1    
    30   16   17 ar   
    31   16   46 1    
    32   17   18 ar   
    33   17   19 1    
    34   18   47 1    
    35   19   23 1    
    36   19   20 2    
    37   20   21 1    
    38   20   48 1    
    39   21   22 1    
    40   22   23 2    
    41   22   24 1    
    42   24   25 1    
    43   24   49 1    
    44   25   26 2    
    45   26   27 1    
    46   26   50 1    
    47   27   32 ar   
    48   27   28 ar   
    49   28   29 ar   
    50   28   51 1    
    51   29   30 ar   
    52   29   52 1    
    53   30   31 ar   
    54   30   53 1    
    55   31   32 ar   
    56   31   33 1    
    57   32   54 1    
    58   33   55 1    
    59   34   56 1    
    60   34   57 1    
    61   34   58 1    
@<TRIPOS>SUBSTRUCTURE
     1 UNK         1 GROUP             0       ****    0 ROOT    
