@<TRIPOS>MOLECULE
ZINC40372723_1587
44   45    1
SMALL
USER_CHARGES


@<TRIPOS>ATOM
      1 C1         -3.0989   50.5288   25.1196 C.3       1 UNK         0.0000 
      2 C2         -1.8246   50.2415   25.9293 C.3       1 UNK         0.0000 
      3 C3         -0.6185   51.1425   25.5551 C.3       1 UNK         0.0000 
      4 C4          0.7044   50.6959   26.2051 C.3       1 UNK         0.0000 
      5 C5          0.6984   50.8979   27.7414 C.3       1 UNK         0.0000 
      6 C6          0.5143   52.4013   28.1486 C.3       1 UNK         0.0000 
      7 C7         -0.7687   52.8967   27.4143 C.3       1 UNK         0.0000 
      8 C8         -0.7919   52.6399   25.8819 C.3       1 UNK         0.0000 
      9 C9          0.1874   52.5884   29.6904 C.2       1 UNK         0.0000 
     10 N10         0.7373   53.5566   30.3268 N.2       1 UNK         0.0000 
     11 O11         0.3044   53.6967   31.6631 O.3       1 UNK         0.0000 
     12 N12        -0.7499   51.6967   30.1841 N.pl3     1 UNK         0.0000 
     13 N13         1.7026   53.1760   27.6920 N.am      1 UNK         0.0000 
     14 C14         2.9779   53.0481   28.1235 C.2       1 UNK         0.0000 
     15 O15         3.3179   52.3216   29.0604 O.2       1 UNK         0.0000 
     16 C16         3.9528   53.8260   27.4009 C.2       1 UNK         0.0000 
     17 C17         5.2166   54.1937   27.8889 C.2       1 UNK         0.0000 
     18 C18         5.8830   54.8397   26.8683 C.2       1 UNK         0.0000 
     19 O19         5.1162   54.8491   25.7529 O.3       1 UNK         0.0000 
     20 C20         3.9554   54.2055   26.0502 C.2       1 UNK         0.0000 
     21 C21         2.9974   54.0348   24.8910 C.3       1 UNK         0.0000 
     22 H22        -3.8830   49.8142   25.3719 H         1 UNK         0.0000 
     23 H23        -3.4913   51.5247   25.3240 H         1 UNK         0.0000 
     24 H24        -2.9146   50.4509   24.0478 H         1 UNK         0.0000 
     25 H25        -1.5480   49.1972   25.7746 H         1 UNK         0.0000 
     26 H26        -2.0617   50.3182   26.9898 H         1 UNK         0.0000 
     27 H27        -0.4690   51.0636   24.4766 H         1 UNK         0.0000 
     28 H28         1.5044   51.2967   25.7695 H         1 UNK         0.0000 
     29 H29         0.9060   49.6476   25.9761 H         1 UNK         0.0000 
     30 H30         1.6204   50.4967   28.1632 H         1 UNK         0.0000 
     31 H31        -0.1045   50.2850   28.1325 H         1 UNK         0.0000 
     32 H32        -1.6556   52.3995   27.8084 H         1 UNK         0.0000 
     33 H33        -0.8956   53.9468   27.6817 H         1 UNK         0.0000 
     34 H34         0.0009   53.2031   25.3866 H         1 UNK         0.0000 
     35 H35        -1.7272   53.0126   25.4653 H         1 UNK         0.0000 
     36 H36         0.7882   54.4709   31.9602 H         1 UNK         0.0000 
     37 H37        -1.0014   51.7460   31.1682 H         1 UNK         0.0000 
     38 H38        -1.0461   50.8861   29.6577 H         1 UNK         0.0000 
     39 H39         1.5604   53.7275   26.8619 H         1 UNK         0.0000 
     40 H40         5.6006   54.0117   28.8817 H         1 UNK         0.0000 
     41 H41         6.8561   55.2967   26.7912 H         1 UNK         0.0000 
     42 H42         2.0313   54.4967   25.0824 H         1 UNK         0.0000 
     43 H43         3.3818   54.4806   23.9730 H         1 UNK         0.0000 
     44 H44         2.8180   52.9814   24.6781 H         1 UNK         0.0000 
@<TRIPOS>BOND
     1    1    2 1    
     2    1   22 1    
     3    1   23 1    
     4    1   24 1    
     5    2    3 1    
     6    2   25 1    
     7    2   26 1    
     8    3    8 1    
     9    3    4 1    
    10    3   27 1    
    11    4    5 1    
    12    4   28 1    
    13    4   29 1    
    14    5    6 1    
    15    5   30 1    
    16    5   31 1    
    17    6    7 1    
    18    6    9 1    
    19    6   13 1    
    20    7    8 1    
    21    7   32 1    
    22    7   33 1    
    23    8   34 1    
    24    8   35 1    
    25    9   10 2    
    26    9   12 1    
    27   10   11 1    
    28   11   36 1    
    29   12   37 1    
    30   12   38 1    
    31   13   14 am   BACKBONE|DICT|INTERRES
    32   13   39 1    
    33   14   15 2    
    34   14   16 1    
    35   16   20 2    
    36   16   17 1    
    37   17   18 2    
    38   17   40 1    
    39   18   19 1    
    40   18   41 1    
    41   19   20 1    
    42   20   21 1    
    43   21   42 1    
    44   21   43 1    
    45   21   44 1    
@<TRIPOS>SUBSTRUCTURE
     1 UNK         1 GROUP             0       ****    0 ROOT    
