@<TRIPOS>MOLECULE
ZINC51630780_1907
36   38    1
SMALL
USER_CHARGES


@<TRIPOS>ATOM
      1 C1         -0.1535   52.4569   23.3880 C.ar      1 UNK         0.0000 
      2 C2          1.0895   53.0490   23.5647 C.ar      1 UNK         0.0000 
      3 C3          1.6717   53.0646   24.8281 C.ar      1 UNK         0.0000 
      4 C4          1.0297   52.4968   25.9399 C.ar      1 UNK         0.0000 
      5 C5         -0.2261   51.8712   25.7498 C.ar      1 UNK         0.0000 
      6 C6         -0.8035   51.8745   24.4733 C.ar      1 UNK         0.0000 
      7 C7         -0.9447   51.1665   26.9020 C.3       1 UNK         0.0000 
      8 C8         -0.5099   51.6969   28.2776 C.3       1 UNK         0.0000 
      9 C9          1.0204   51.6967   28.3791 C.3       1 UNK         0.0000 
     10 C10         1.6723   52.6199   27.3283 C.3       1 UNK         0.0000 
     11 H11         2.7264   52.3547   27.2404 H         1 UNK         0.0000 
     12 N12         1.5474   54.0083   27.8214 N.pl3     1 UNK         0.0000 
     13 S13         2.7658   54.6516   28.9102 S.o2      1 UNK         0.0000 
     14 O14         2.9270   53.7669   30.0719 O.2       1 UNK         0.0000 
     15 O15         2.4976   56.0820   29.0705 O.2       1 UNK         0.0000 
     16 C16         4.2487   54.4758   27.8877 C.2       1 UNK         0.0000 
     17 C17         4.4086   54.8943   26.5691 C.2       1 UNK         0.0000 
     18 C18         5.6829   54.6084   26.0671 C.2       1 UNK         0.0000 
     19 C19         6.4939   53.9600   26.9798 C.2       1 UNK         0.0000 
     20 S20         5.6802   53.6974   28.4816 S.3       1 UNK         0.0000 
     21 N21         6.0966   54.9314   24.8089 N.pl3     1 UNK         0.0000 
     22 H22        -0.6122   52.4405   22.4092 H         1 UNK         0.0000 
     23 H23         1.6015   53.4976   22.7242 H         1 UNK         0.0000 
     24 H24         2.6362   53.5335   24.9467 H         1 UNK         0.0000 
     25 H25        -1.7614   51.4006   24.3190 H         1 UNK         0.0000 
     26 H26        -0.7170   50.0984   26.8505 H         1 UNK         0.0000 
     27 H27        -2.0282   51.2500   26.7945 H         1 UNK         0.0000 
     28 H28        -0.9414   51.0749   29.0645 H         1 UNK         0.0000 
     29 H29        -0.8922   52.7060   28.4338 H         1 UNK         0.0000 
     30 H30         1.3868   50.6844   28.2116 H         1 UNK         0.0000 
     31 H31         1.3285   51.9480   29.3936 H         1 UNK         0.0000 
     32 H32         1.2690   54.6721   27.0961 H         1 UNK         0.0000 
     33 H33         3.6423   55.3991   26.0020 H         1 UNK         0.0000 
     34 H34         7.5043   53.6131   26.8480 H         1 UNK         0.0000 
     35 H35         7.0184   54.6904   24.4728 H         1 UNK         0.0000 
     36 H36         5.4577   55.2973   24.1179 H         1 UNK         0.0000 
@<TRIPOS>BOND
     1    1    6 ar   
     2    1    2 ar   
     3    1   22 1    
     4    2    3 ar   
     5    2   23 1    
     6    3    4 ar   
     7    3   24 1    
     8    4   10 1    
     9    4    5 ar   
    10    5    6 ar   
    11    5    7 1    
    12    6   25 1    
    13    7    8 1    
    14    7   26 1    
    15    7   27 1    
    16    8    9 1    
    17    8   28 1    
    18    8   29 1    
    19    9   10 1    
    20    9   30 1    
    21    9   31 1    
    22   10   11 1    
    23   10   12 1    
    24   12   13 1    
    25   12   32 1    
    26   13   14 2    
    27   13   15 2    
    28   13   16 1    
    29   16   20 1    
    30   16   17 2    
    31   17   18 1    
    32   17   33 1    
    33   18   19 2    
    34   18   21 1    
    35   19   20 1    
    36   19   34 1    
    37   21   35 1    
    38   21   36 1    
@<TRIPOS>SUBSTRUCTURE
     1 UNK         1 GROUP             0       ****    0 ROOT    
