@<TRIPOS>MOLECULE
ZINC39685761_396
74   76    1
SMALL
USER_CHARGES


@<TRIPOS>ATOM
      1 C1         -1.8645   52.5136   23.3788 C.3       1 UNK         0.0000 
      2 C2         -1.1611   51.2440   22.8550 C.3       1 UNK         0.0000 
      3 C3         -2.1521   50.0673   22.7733 C.3       1 UNK         0.0000 
      4 C4         -0.3241   51.4364   21.5468 C.3       1 UNK         0.0000 
      5 H5          0.2241   50.5066   21.3735 H         1 UNK         0.0000 
      6 C6         -1.1653   51.6932   20.2803 C.2       1 UNK         0.0000 
      7 O7         -2.3255   52.0937   20.3514 O.2       1 UNK         0.0000 
      8 N8         -0.4938   51.5418   19.1250 N.am      1 UNK         0.0000 
      9 C9         -0.9498   51.8716   17.7687 C.3       1 UNK         0.0000 
     10 C10         0.2171   51.5854   16.8017 C.3       1 UNK         0.0000 
     11 C11        -1.3189   53.3716   17.6604 C.3       1 UNK         0.0000 
     12 C12        -2.1549   50.9946   17.3565 C.3       1 UNK         0.0000 
     13 N13         0.6546   52.5180   21.6503 N.am      1 UNK         0.0000 
     14 C14         1.7953   52.4796   22.3479 C.2       1 UNK         0.0000 
     15 O15         2.1158   51.4879   23.0036 O.2       1 UNK         0.0000 
     16 C16         2.7273   53.7160   22.2260 C.3       1 UNK         0.0000 
     17 H17         2.1039   54.5954   22.0810 H         1 UNK         0.0000 
     18 C18         3.2789   53.9622   23.6404 C.3       1 UNK         0.0000 
     19 N19         4.6531   54.4176   23.4524 N.am      1 UNK         0.0000 
     20 C20         5.0190   54.4943   22.0331 C.3       1 UNK         0.0000 
     21 C21         3.9872   53.6333   21.2848 C.3       1 UNK         0.0000 
     22 C22         3.9032   54.1959   19.8284 C.3       1 UNK         0.0000 
     23 C23         2.9674   53.3648   18.9317 C.3       1 UNK         0.0000 
     24 N24         3.5035   51.9253   18.8775 N.4       1 UNK         0.0000 
     25 C25         3.7597   51.2606   20.2434 C.3       1 UNK         0.0000 
     26 C26         4.6008   52.2105   21.1187 C.3       1 UNK         0.0000 
     27 C27         5.5683   54.6859   24.4242 C.2       1 UNK         0.0000 
     28 O28         6.7014   55.0736   24.1260 O.2       1 UNK         0.0000 
     29 C29         5.2619   54.4708   25.8991 C.ar      1 UNK         0.0000 
     30 C30         3.9835   54.5815   26.4798 C.ar      1 UNK         0.0000 
     31 C31         3.7678   54.3388   27.8396 C.ar      1 UNK         0.0000 
     32 C32         4.8583   54.0170   28.6453 C.ar      1 UNK         0.0000 
     33 C33         6.1382   53.9558   28.1027 C.ar      1 UNK         0.0000 
     34 C34         6.3317   54.1726   26.7502 C.ar      1 UNK         0.0000 
     35 F35         7.2041   53.6968   28.8815 F         1 UNK         0.0000 
     36 C36         2.3570   54.4253   28.4223 C.3       1 UNK         0.0000 
     37 F37         2.2864   53.9091   29.6525 F         1 UNK         0.0000 
     38 F38         1.9755   55.7011   28.4849 F         1 UNK         0.0000 
     39 F39         1.5039   53.7584   27.6431 F         1 UNK         0.0000 
     40 H40        -2.6164   52.8966   22.6910 H         1 UNK         0.0000 
     41 H41        -2.3696   52.3101   24.3239 H         1 UNK         0.0000 
     42 H42        -1.1451   53.3090   23.5724 H         1 UNK         0.0000 
     43 H43        -0.4472   50.9610   23.6303 H         1 UNK         0.0000 
     44 H44        -2.9616   50.2522   22.0677 H         1 UNK         0.0000 
     45 H45        -1.6469   49.1506   22.4651 H         1 UNK         0.0000 
     46 H46        -2.6066   49.8760   23.7465 H         1 UNK         0.0000 
     47 H47         0.4458   51.1820   19.1834 H         1 UNK         0.0000 
     48 H48        -0.0648   51.7734   15.7656 H         1 UNK         0.0000 
     49 H49         0.5475   50.5474   16.8585 H         1 UNK         0.0000 
     50 H50         1.0793   52.2171   17.0124 H         1 UNK         0.0000 
     51 H51        -2.2295   53.6078   18.2115 H         1 UNK         0.0000 
     52 H52        -0.5261   54.0049   18.0648 H         1 UNK         0.0000 
     53 H53        -1.4903   53.6708   16.6257 H         1 UNK         0.0000 
     54 H54        -3.0238   51.1643   17.9940 H         1 UNK         0.0000 
     55 H55        -2.4663   51.2005   16.3306 H         1 UNK         0.0000 
     56 H56        -1.9114   49.9312   17.4157 H         1 UNK         0.0000 
     57 H57         0.4542   53.3415   21.0985 H         1 UNK         0.0000 
     58 H58         2.6601   54.7428   24.0791 H         1 UNK         0.0000 
     59 H59         3.3335   53.0595   24.2542 H         1 UNK         0.0000 
     60 H60         6.0468   54.2249   21.7821 H         1 UNK         0.0000 
     61 H61         4.8834   55.5192   21.6819 H         1 UNK         0.0000 
     62 H62         3.5898   55.2513   19.7973 H         1 UNK         0.0000 
     63 H63         4.8974   54.2156   19.3763 H         1 UNK         0.0000 
     64 H64         1.9463   53.2932   19.3024 H         1 UNK         0.0000 
     65 H65         2.9465   53.7278   17.9026 H         1 UNK         0.0000 
     66 H66         2.9028   51.3308   18.3209 H         1 UNK         0.0000 
     67 H67         2.7887   50.9557   20.6142 H         1 UNK         0.0000 
     68 H68         4.3042   50.3425   20.0750 H         1 UNK         0.0000 
     69 H69         5.5846   52.2813   20.6578 H         1 UNK         0.0000 
     70 H70         4.7904   51.7468   22.0815 H         1 UNK         0.0000 
     71 H71         3.1212   54.8908   25.9274 H         1 UNK         0.0000 
     72 H72         4.7047   53.8281   29.6909 H         1 UNK         0.0000 
     73 H73         7.3369   54.0970   26.3718 H         1 UNK         0.0000 
     74 H74         4.3973   51.8763   18.3917 H         1 UNK         0.0000 
@<TRIPOS>BOND
     1    1    2 1    
     2    1   40 1    
     3    1   41 1    
     4    1   42 1    
     5    2    3 1    
     6    2    4 1    
     7    2   43 1    
     8    3   44 1    
     9    3   45 1    
    10    3   46 1    
    11    4    5 1    
    12    4    6 1    
    13    4   13 1    
    14    6    7 2    
    15    6    8 am   BACKBONE|DICT|INTERRES
    16    8    9 1    
    17    8   47 1    
    18    9   10 1    
    19    9   11 1    
    20    9   12 1    
    21   10   48 1    
    22   10   49 1    
    23   10   50 1    
    24   11   51 1    
    25   11   52 1    
    26   11   53 1    
    27   12   54 1    
    28   12   55 1    
    29   12   56 1    
    30   13   14 am   BACKBONE|DICT|INTERRES
    31   13   57 1    
    32   14   15 2    
    33   14   16 1    
    34   16   17 1    
    35   16   21 1    
    36   16   18 1    
    37   18   19 1    
    38   18   58 1    
    39   18   59 1    
    40   19   20 1    
    41   19   27 am   BACKBONE|DICT|INTERRES
    42   20   21 1    
    43   20   60 1    
    44   20   61 1    
    45   21   26 1    
    46   21   22 1    
    47   22   23 1    
    48   22   62 1    
    49   22   63 1    
    50   23   24 1    
    51   23   64 1    
    52   23   65 1    
    53   24   25 1    
    54   24   66 1    
    55   24   74 1    
    56   25   26 1    
    57   25   67 1    
    58   25   68 1    
    59   26   69 1    
    60   26   70 1    
    61   27   28 2    
    62   27   29 1    
    63   29   34 ar   
    64   29   30 ar   
    65   30   31 ar   
    66   30   71 1    
    67   31   32 ar   
    68   31   36 1    
    69   32   33 ar   
    70   32   72 1    
    71   33   34 ar   
    72   33   35 1    
    73   34   73 1    
    74   36   37 1    
    75   36   38 1    
    76   36   39 1    
@<TRIPOS>SUBSTRUCTURE
     1 UNK         1 GROUP             0       ****    0 ROOT    
