ZINC39934663_136
                    3D
 Schrodinger Suite 2024-2.
 42 45  0  0  1  0            999 V2000
    5.6475   54.4976   23.4683 C   0  0  0  0  0  0
    6.3851   54.9592   24.6342 C   0  0  0  0  0  0
    5.8734   54.8646   25.8901 C   0  0  0  0  0  0
    4.6064   54.3016   26.0992 C   0  0  0  0  0  0
    3.9611   54.1079   27.2167 N   0  3  0  0  0  0
    2.6738   53.4611   26.9356 C   0  0  0  0  0  0
    2.6646   53.3241   25.4207 C   0  0  0  0  0  0
    3.8474   53.8461   25.0146 C   0  0  0  0  0  0
    4.4220   53.9713   23.6612 C   0  0  0  0  0  0
    1.6491   52.7573   24.5271 C   0  0  0  0  0  0
    0.4767   52.1039   24.7363 C   0  0  0  0  0  0
   -0.1473   51.7549   26.0051 C   0  0  0  0  0  0
    0.2594   52.0522   27.1311 O   0  0  0  0  0  0
   -1.2736   51.0269   25.7656 N   0  0  0  0  0  0
   -1.6385   50.7310   24.4813 C   0  0  0  0  0  0
   -2.8917   49.8099   23.8720 S   0  0  0  0  0  0
   -0.5260   51.5164   23.4058 S   0  0  0  0  0  0
   -1.9646   50.4967   26.8815 N   0  0  0  0  0  0
   -3.0535   51.1105   27.3877 C   0  0  0  0  0  0
   -3.5921   52.0972   26.8820 O   0  0  0  0  0  0
   -3.4481   50.4969   28.5208 N   0  0  0  0  0  0
   -4.5485   50.7795   29.3484 C   0  0  0  0  0  0
   -4.4969   50.2652   30.6478 C   0  0  0  0  0  0
   -5.5373   50.5016   31.5467 C   0  0  0  0  0  0
   -6.6417   51.2548   31.1510 C   0  0  0  0  0  0
   -6.7091   51.7653   29.8548 C   0  0  0  0  0  0
   -5.6748   51.5192   28.9504 C   0  0  0  0  0  0
   -8.0642   52.7195   29.3730 Cl  0  0  0  0  0  0
    6.0692   54.5820   22.4762 H   0  0  0  0  0  0
    7.3660   55.3907   24.4834 H   0  0  0  0  0  0
    6.4633   55.2215   26.7228 H   0  0  0  0  0  0
    2.6714   52.5023   27.4583 H   0  0  0  0  0  0
    1.8790   54.0994   27.3240 H   0  0  0  0  0  0
    3.8863   53.6417   22.7826 H   0  0  0  0  0  0
    1.8768   52.8768   23.4775 H   0  0  0  0  0  0
   -1.5804   49.6246   27.2425 H   0  0  0  0  0  0
   -2.8465   49.7507   28.8551 H   0  0  0  0  0  0
   -3.6402   49.6967   30.9796 H   0  0  0  0  0  0
   -5.4739   50.1148   32.5536 H   0  0  0  0  0  0
   -7.4434   51.4427   31.8507 H   0  0  0  0  0  0
   -5.7614   51.9134   27.9497 H   0  0  0  0  0  0
    4.2959   54.3470   28.1464 H   0  0  0  0  0  0
  1  9  2  0  0  0
  1  2  1  0  0  0
  1 29  1  0  0  0
  2  3  2  0  0  0
  2 30  1  0  0  0
  3  4  1  0  0  0
  3 31  1  0  0  0
  4  8  1  0  0  0
  4  5  2  0  0  0
  5  6  1  0  0  0
  5 42  1  0  0  0
  6  7  1  0  0  0
  6 32  1  0  0  0
  6 33  1  0  0  0
  7  8  2  0  0  0
  7 10  1  0  0  0
  8  9  1  0  0  0
  9 34  1  0  0  0
 10 11  2  0  0  0
 10 35  1  0  0  0
 11 17  1  0  0  0
 11 12  1  0  0  0
 12 13  2  0  0  0
 12 14  1  0  0  0
 14 15  1  0  0  0
 14 18  1  0  0  0
 15 16  2  0  0  0
 15 17  1  0  0  0
 18 19  1  0  0  0
 18 36  1  0  0  0
 19 20  2  0  0  0
 19 21  1  0  0  0
 21 22  1  0  0  0
 21 37  1  0  0  0
 22 27  2  0  0  0
 22 23  1  0  0  0
 23 24  2  0  0  0
 23 38  1  0  0  0
 24 25  1  0  0  0
 24 39  1  0  0  0
 25 26  2  0  0  0
 25 40  1  0  0  0
 26 27  1  0  0  0
 26 28  1  0  0  0
 27 41  1  0  0  0
M  CHG  1   5   1
M  END
> <i_i_glide_confnum>
7

> <i_i_glide_lignum>
137

> <i_i_glide_posenum>
183

> <i_i_glide_rotatable_bonds>
5

> <i_m_Source_File_Index>
3828

> <b_m_subgroup_collapsed>
0

> <r_i_docking_score>
-5.67758

> <r_i_glide_ecoul>
-7.23661

> <r_i_glide_eff_state_penalty>
0

> <r_i_glide_einternal>
9.00877

> <r_i_glide_emodel>
-51.674

> <r_i_glide_energy>
-38.6884

> <r_i_glide_erotb>
0.322612

> <r_i_glide_esite>
-0.318267

> <r_i_glide_evdw>
-31.4518

> <r_i_glide_gscore>
-5.67758

> <r_i_glide_hbond>
-0.305019

> <r_i_glide_ligand_efficiency>
-0.202771

> <r_i_glide_ligand_efficiency_ln>
-1.31055

> <r_i_glide_ligand_efficiency_sa>
-0.615731

> <r_i_glide_lipo>
-2.24364

> <r_i_glide_metal>
0

> <r_i_glide_rewards>
-0.475177

> <s_i_glide_gridfile>
wee1_glide-grid

> <s_m_Source_File>
wee1_decoys_glide_SP.sdf

> <s_m_Source_Path>
/Users/zhangxujun/Desktop

> <s_m_entry_id>
4103

> <s_m_entry_name>
wee1_decoys_glide_SP.3828

> <s_m_subgroup_title>
wee1_decoys_glide_SP

> <s_m_subgroupid>
wee1_decoys_glide_SP


$$$$
