ZINC43410725_1901
                    3D
 Schrodinger Suite 2024-2.
 44 46  0  0  1  0            999 V2000
    0.0511   51.6838   28.3745 C   0  0  0  0  0  0
   -0.2568   51.6131   27.0099 C   0  0  0  0  0  0
    0.4878   52.4248   26.1352 C   0  0  0  0  0  0
    1.5045   53.1953   26.5846 N   0  0  0  0  0  0
    1.7783   53.2617   27.9077 C   0  0  0  0  0  0
    1.0838   52.5018   28.8669 C   0  0  0  0  0  0
    1.3894   52.4962   30.3222 C   0  0  0  0  0  0
    2.4961   52.1323   30.8522 N   0  0  0  0  0  0
    3.5037   51.6985   29.9605 O   0  0  0  0  0  0
    0.2930   52.9193   31.0315 N   0  0  0  0  0  0
    3.0949   54.3672   28.3362 S   0  0  0  0  0  0
    4.4386   53.9584   27.1808 C   0  0  0  0  0  0
    4.2356   54.6374   25.8040 C   0  0  0  0  0  0
    5.4432   54.4607   24.8756 C   0  0  0  0  0  0
    6.7382   54.9109   25.5593 C   0  0  0  0  0  0
    6.9683   54.1517   26.8803 C   0  0  0  0  0  0
    5.7873   54.3051   27.8464 C   0  0  0  0  0  0
    0.1810   52.4842   24.6395 C   0  0  0  0  0  0
   -0.5502   51.2289   24.1388 C   0  0  0  0  0  0
   -1.7615   50.9422   25.0419 C   0  0  0  0  0  0
   -1.3099   50.6322   26.4811 C   0  0  0  0  0  0
   -0.4980   51.0451   29.0542 H   0  0  0  0  0  0
    3.1158   51.8575   29.0938 H   0  0  0  0  0  0
    0.2587   52.7889   32.0332 H   0  0  0  0  0  0
   -0.5815   53.0630   30.5533 H   0  0  0  0  0  0
    4.4047   52.8759   27.0420 H   0  0  0  0  0  0
    3.3598   54.2470   25.2882 H   0  0  0  0  0  0
    4.0529   55.6966   25.9495 H   0  0  0  0  0  0
    5.5343   53.4133   24.5848 H   0  0  0  0  0  0
    5.2942   55.0179   23.9498 H   0  0  0  0  0  0
    7.5777   54.7488   24.8818 H   0  0  0  0  0  0
    6.6990   55.9853   25.7512 H   0  0  0  0  0  0
    7.1180   53.0934   26.6665 H   0  0  0  0  0  0
    7.8834   54.4970   27.3651 H   0  0  0  0  0  0
    5.7706   55.3308   28.2118 H   0  0  0  0  0  0
    5.9474   53.6709   28.7209 H   0  0  0  0  0  0
    1.0920   52.6480   24.0623 H   0  0  0  0  0  0
   -0.4527   53.3533   24.4621 H   0  0  0  0  0  0
    0.1250   50.3690   24.1373 H   0  0  0  0  0  0
   -0.8732   51.3701   23.1086 H   0  0  0  0  0  0
   -2.3379   50.1016   24.6486 H   0  0  0  0  0  0
   -2.4379   51.8008   25.0434 H   0  0  0  0  0  0
   -2.1697   50.5868   27.1522 H   0  0  0  0  0  0
   -0.8686   49.6344   26.4818 H   0  0  0  0  0  0
  1  6  2  0  0  0
  1  2  1  0  0  0
  1 22  1  0  0  0
  2 21  1  0  0  0
  2  3  2  0  0  0
  3  4  1  0  0  0
  3 18  1  0  0  0
  4  5  2  0  0  0
  5  6  1  0  0  0
  5 11  1  0  0  0
  6  7  1  0  0  0
  7  8  2  0  0  0
  7 10  1  0  0  0
  8  9  1  0  0  0
  9 23  1  0  0  0
 10 24  1  0  0  0
 10 25  1  0  0  0
 11 12  1  0  0  0
 12 17  1  0  0  0
 12 13  1  0  0  0
 12 26  1  0  0  0
 13 14  1  0  0  0
 13 27  1  0  0  0
 13 28  1  0  0  0
 14 15  1  0  0  0
 14 29  1  0  0  0
 14 30  1  0  0  0
 15 16  1  0  0  0
 15 31  1  0  0  0
 15 32  1  0  0  0
 16 17  1  0  0  0
 16 33  1  0  0  0
 16 34  1  0  0  0
 17 35  1  0  0  0
 17 36  1  0  0  0
 18 19  1  0  0  0
 18 37  1  0  0  0
 18 38  1  0  0  0
 19 20  1  0  0  0
 19 39  1  0  0  0
 19 40  1  0  0  0
 20 21  1  0  0  0
 20 41  1  0  0  0
 20 42  1  0  0  0
 21 43  1  0  0  0
 21 44  1  0  0  0
M  END
> <i_i_glide_confnum>
5

> <i_i_glide_lignum>
1902

> <i_i_glide_posenum>
42

> <i_i_glide_rotatable_bonds>
4

> <i_m_Source_File_Index>
4242

> <b_m_subgroup_collapsed>
0

> <r_i_docking_score>
-5.91777

> <r_i_glide_ecoul>
-6.73344

> <r_i_glide_eff_state_penalty>
0

> <r_i_glide_einternal>
3.97933

> <r_i_glide_emodel>
-59.4989

> <r_i_glide_energy>
-45.194

> <r_i_glide_erotb>
0.791362

> <r_i_glide_esite>
-0.144254

> <r_i_glide_evdw>
-38.4606

> <r_i_glide_gscore>
-5.91777

> <r_i_glide_hbond>
-0.00264838

> <r_i_glide_ligand_efficiency>
-0.281798

> <r_i_glide_ligand_efficiency_ln>
-1.46316

> <r_i_glide_ligand_efficiency_sa>
-0.77746

> <r_i_glide_lipo>
-2.20234

> <r_i_glide_metal>
0

> <r_i_glide_rewards>
-1.42685

> <s_i_glide_gridfile>
wee1_glide-grid

> <s_m_Source_File>
wee1_decoys_glide_SP.sdf

> <s_m_Source_Path>
/Users/zhangxujun/Desktop

> <s_m_entry_id>
4517

> <s_m_entry_name>
wee1_decoys_glide_SP.4242

> <s_m_subgroup_title>
wee1_decoys_glide_SP

> <s_m_subgroupid>
wee1_decoys_glide_SP


$$$$
