ZINC34756481_619
                    3D
 Schrodinger Suite 2024-2.
 65 69  0  0  1  0            999 V2000
   -5.8840   50.8779   23.2082 C   0  0  0  0  0  0
   -4.7934   51.0221   24.2536 C   0  0  0  0  0  0
   -5.1144   51.4562   25.5386 C   0  0  0  0  0  0
   -4.1224   51.5497   26.5114 C   0  0  0  0  0  0
   -2.7957   51.2172   26.2186 C   0  0  0  0  0  0
   -2.4585   50.8064   24.9096 C   0  0  0  0  0  0
   -3.4675   50.7150   23.9419 C   0  0  0  0  0  0
   -1.0469   50.3793   24.5034 C   0  0  0  0  0  0
   -0.1679   51.4935   23.8777 N   0  3  0  0  0  0
    1.1601   50.8951   23.3629 C   0  0  0  0  0  0
    2.1037   52.0093   22.8667 C   0  0  0  0  0  0
    2.3595   53.0439   23.8860 N   0  0  0  0  0  0
    1.1036   53.6582   24.3213 C   0  0  0  0  0  0
    0.0855   52.6388   24.8795 C   0  0  0  0  0  0
    3.5862   53.6968   23.9817 C   0  0  0  0  0  0
    4.2246   54.0372   25.2152 C   0  0  0  0  0  0
    3.8932   53.9004   26.6179 C   0  0  0  0  0  0
    4.9642   54.2963   27.4236 C   0  0  0  0  0  0
    6.3458   54.8967   26.5625 S   0  0  0  0  0  0
    5.5452   54.5732   25.0572 C   0  0  0  0  0  0
    6.1614   54.8028   23.8998 N   0  0  0  0  0  0
    5.4325   54.4967   22.8059 C   0  0  0  0  0  0
    4.1938   53.9552   22.7939 N   0  0  0  0  0  0
    6.0932   55.1038   21.2815 S   0  0  0  0  0  0
    4.9212   54.6726   19.9619 C   0  0  0  0  0  0
    4.9734   53.1960   19.5942 C   0  0  0  0  0  0
    4.9989   52.3175   20.4547 O   0  0  0  0  0  0
    5.0013   52.8967   18.3027 N   0  0  0  0  0  0
    4.9802   54.2550   28.9362 C   0  0  0  0  0  0
    3.9860   53.1797   29.4089 C   0  0  0  0  0  0
    2.6066   53.4063   28.7741 C   0  0  0  0  0  0
    2.6139   53.3136   27.2287 C   0  0  0  0  0  0
   -1.7885   51.2809   27.3628 C   0  0  0  0  0  0
   -5.4803   50.8967   22.1957 H   0  0  0  0  0  0
   -6.4278   49.9443   23.3544 H   0  0  0  0  0  0
   -6.5996   51.6969   23.2818 H   0  0  0  0  0  0
   -6.1361   51.6991   25.7925 H   0  0  0  0  0  0
   -4.3957   51.8608   27.5091 H   0  0  0  0  0  0
   -3.2256   50.3775   22.9441 H   0  0  0  0  0  0
   -1.1001   49.6065   23.7336 H   0  0  0  0  0  0
   -0.4744   49.9491   25.3255 H   0  0  0  0  0  0
    1.6049   50.3106   24.1701 H   0  0  0  0  0  0
    0.8918   50.2362   22.5351 H   0  0  0  0  0  0
    1.6475   52.5280   22.0210 H   0  0  0  0  0  0
    3.0340   51.5846   22.4821 H   0  0  0  0  0  0
    1.2765   54.4965   24.9889 H   0  0  0  0  0  0
    0.6918   54.1124   23.4192 H   0  0  0  0  0  0
    0.4256   52.1820   25.8085 H   0  0  0  0  0  0
   -0.8862   53.1137   25.0192 H   0  0  0  0  0  0
    3.9039   54.8967   20.2748 H   0  0  0  0  0  0
    5.1424   55.2957   19.0953 H   0  0  0  0  0  0
    4.9690   53.5875   17.5710 H   0  0  0  0  0  0
    5.1044   51.8956   18.0817 H   0  0  0  0  0  0
    4.7152   55.2319   29.3430 H   0  0  0  0  0  0
    5.9911   54.0446   29.2817 H   0  0  0  0  0  0
    3.9075   53.1980   30.4963 H   0  0  0  0  0  0
    4.3562   52.1863   29.1469 H   0  0  0  0  0  0
    2.2420   54.3913   29.0716 H   0  0  0  0  0  0
    1.8862   52.6934   29.1783 H   0  0  0  0  0  0
    2.5031   52.2736   26.9242 H   0  0  0  0  0  0
    1.7294   53.8412   26.8894 H   0  0  0  0  0  0
   -2.2829   51.1127   28.3214 H   0  0  0  0  0  0
   -1.0359   50.4969   27.3044 H   0  0  0  0  0  0
   -1.2955   52.2513   27.4032 H   0  0  0  0  0  0
   -0.6364   51.8988   23.0794 H   0  0  0  0  0  0
  1  2  1  0  0  0
  1 34  1  0  0  0
  1 35  1  0  0  0
  1 36  1  0  0  0
  2  7  2  0  0  0
  2  3  1  0  0  0
  3  4  2  0  0  0
  3 37  1  0  0  0
  4  5  1  0  0  0
  4 38  1  0  0  0
  5  6  2  0  0  0
  5 33  1  0  0  0
  6  7  1  0  0  0
  6  8  1  0  0  0
  7 39  1  0  0  0
  8  9  1  0  0  0
  8 40  1  0  0  0
  8 41  1  0  0  0
  9 14  1  0  0  0
  9 10  1  0  0  0
  9 65  1  0  0  0
 10 11  1  0  0  0
 10 42  1  0  0  0
 10 43  1  0  0  0
 11 12  1  0  0  0
 11 44  1  0  0  0
 11 45  1  0  0  0
 12 13  1  0  0  0
 12 15  1  0  0  0
 13 14  1  0  0  0
 13 46  1  0  0  0
 13 47  1  0  0  0
 14 48  1  0  0  0
 14 49  1  0  0  0
 15 23  2  0  0  0
 15 16  1  0  0  0
 16 20  2  0  0  0
 16 17  1  0  0  0
 17 32  1  0  0  0
 17 18  2  0  0  0
 18 19  1  0  0  0
 18 29  1  0  0  0
 19 20  1  0  0  0
 20 21  1  0  0  0
 21 22  2  0  0  0
 22 23  1  0  0  0
 22 24  1  0  0  0
 24 25  1  0  0  0
 25 26  1  0  0  0
 25 50  1  0  0  0
 25 51  1  0  0  0
 26 27  2  0  0  0
 26 28  1  0  0  0
 28 52  1  0  0  0
 28 53  1  0  0  0
 29 30  1  0  0  0
 29 54  1  0  0  0
 29 55  1  0  0  0
 30 31  1  0  0  0
 30 56  1  0  0  0
 30 57  1  0  0  0
 31 32  1  0  0  0
 31 58  1  0  0  0
 31 59  1  0  0  0
 32 60  1  0  0  0
 32 61  1  0  0  0
 33 62  1  0  0  0
 33 63  1  0  0  0
 33 64  1  0  0  0
M  CHG  1   9   1
M  END
> <i_i_glide_confnum>
143

> <i_i_glide_lignum>
620

> <i_i_glide_posenum>
53

> <i_i_glide_rotatable_bonds>
6

> <i_m_Source_File_Index>
364

> <b_m_subgroup_collapsed>
0

> <r_i_docking_score>
-6.56519

> <r_i_glide_ecoul>
-6.49749

> <r_i_glide_eff_state_penalty>
0

> <r_i_glide_einternal>
3.77607

> <r_i_glide_emodel>
-66.2005

> <r_i_glide_energy>
-47.5629

> <r_i_glide_erotb>
0.435548

> <r_i_glide_esite>
-0.150023

> <r_i_glide_evdw>
-41.0654

> <r_i_glide_gscore>
-6.56519

> <r_i_glide_hbond>
-0.16

> <r_i_glide_ligand_efficiency>
-0.198945

> <r_i_glide_ligand_efficiency_ln>
-1.46007

> <r_i_glide_ligand_efficiency_sa>
-0.638124

> <r_i_glide_lipo>
-2.98972

> <r_i_glide_metal>
0

> <r_i_glide_rewards>
-0.673104

> <s_i_glide_gridfile>
wee1_glide-grid

> <s_m_Source_File>
wee1_decoys_glide_SP.sdf

> <s_m_Source_Path>
/Users/zhangxujun/Desktop

> <s_m_entry_id>
639

> <s_m_entry_name>
wee1_decoys_glide_SP.364

> <s_m_subgroup_title>
wee1_decoys_glide_SP

> <s_m_subgroupid>
wee1_decoys_glide_SP


$$$$
