ZINC35426062_1476
                    3D
 Schrodinger Suite 2024-2.
 45 49  0  0  1  0            999 V2000
   -0.2196   52.1913   30.0553 C   0  0  0  0  0  0
    0.2337   53.3209   30.7397 C   0  0  0  0  0  0
    1.0889   54.2405   30.1316 C   0  0  0  0  0  0
    1.5037   53.9476   28.8302 C   0  0  0  0  0  0
    1.0592   52.8130   28.1137 C   0  0  0  0  0  0
    0.1739   51.9237   28.7408 C   0  0  0  0  0  0
    1.6968   52.9140   26.8414 C   0  0  0  0  0  0
    2.4991   54.0472   26.8917 C   0  0  0  0  0  0
    2.3791   54.6849   28.0912 O   0  0  0  0  0  0
    3.4589   54.6888   25.9112 C   0  0  0  0  0  0
    4.7961   54.0951   25.9458 N   0  0  0  0  0  0
    5.4550   54.2307   27.2423 C   0  0  0  0  0  0
    6.9299   53.9319   26.9876 C   0  0  0  0  0  0
    7.1043   54.2026   25.4918 C   0  0  0  0  0  0
    5.7450   54.7027   25.0138 C   0  0  1  0  0  0
    5.7099   55.7851   25.1635 H   0  0  0  0  0  0
    5.4873   54.4506   23.5330 C   0  0  0  0  0  0
    6.2059   54.8962   22.5417 N   0  0  0  0  0  0
    5.5239   54.4981   21.4849 C   0  0  0  0  0  0
    4.4770   53.7383   21.7429 N   0  0  0  0  0  0
    4.4347   53.6971   23.1332 O   0  0  0  0  0  0
    5.9040   54.9022   20.0812 C   0  0  0  0  0  0
    4.9600   54.7429   19.0513 C   0  0  0  0  0  0
    5.1917   55.0865   17.7590 N   0  0  0  0  0  0
    6.4123   55.6064   17.4952 C   0  0  0  0  0  0
    7.4049   55.8078   18.3948 N   0  0  0  0  0  0
    7.1406   55.4590   19.6792 C   0  0  0  0  0  0
    8.1885   55.6967   20.5663 N   0  0  0  0  0  0
   -0.8949   51.5093   30.5541 H   0  0  0  0  0  0
   -0.0959   53.4840   31.7569 H   0  0  0  0  0  0
    1.4226   55.1323   30.6392 H   0  0  0  0  0  0
   -0.1922   51.0458   28.2265 H   0  0  0  0  0  0
    1.6096   52.2465   25.9973 H   0  0  0  0  0  0
    3.0396   54.5651   24.9130 H   0  0  0  0  0  0
    3.5217   55.7589   26.0799 H   0  0  0  0  0  0
    5.2990   55.2125   27.6932 H   0  0  0  0  0  0
    5.0090   53.5209   27.9406 H   0  0  0  0  0  0
    7.5622   54.5753   27.6005 H   0  0  0  0  0  0
    7.1657   52.8967   27.2408 H   0  0  0  0  0  0
    7.8825   54.9308   25.2812 H   0  0  0  0  0  0
    7.3859   53.2963   24.9567 H   0  0  0  0  0  0
    3.9790   54.3351   19.2486 H   0  0  0  0  0  0
    6.6195   55.8817   16.4724 H   0  0  0  0  0  0
    8.0877   55.4311   21.5367 H   0  0  0  0  0  0
    9.0628   56.0451   20.1990 H   0  0  0  0  0  0
  1  6  2  0  0  0
  1  2  1  0  0  0
  1 29  1  0  0  0
  2  3  2  0  0  0
  2 30  1  0  0  0
  3  4  1  0  0  0
  3 31  1  0  0  0
  4  9  1  0  0  0
  4  5  2  0  0  0
  5  6  1  0  0  0
  5  7  1  0  0  0
  6 32  1  0  0  0
  7  8  2  0  0  0
  7 33  1  0  0  0
  8  9  1  0  0  0
  8 10  1  0  0  0
 10 11  1  0  0  0
 10 34  1  0  0  0
 10 35  1  0  0  0
 11 15  1  0  0  0
 11 12  1  0  0  0
 12 13  1  0  0  0
 12 36  1  0  0  0
 12 37  1  0  0  0
 13 14  1  0  0  0
 13 38  1  0  0  0
 13 39  1  0  0  0
 14 15  1  0  0  0
 14 40  1  0  0  0
 14 41  1  0  0  0
 15 16  1  0  0  0
 15 17  1  0  0  0
 17 21  1  0  0  0
 17 18  2  0  0  0
 18 19  1  0  0  0
 19 20  2  0  0  0
 19 22  1  0  0  0
 20 21  1  0  0  0
 22 27  2  0  0  0
 22 23  1  0  0  0
 23 24  2  0  0  0
 23 42  1  0  0  0
 24 25  1  0  0  0
 25 26  2  0  0  0
 25 43  1  0  0  0
 26 27  1  0  0  0
 27 28  1  0  0  0
 28 44  1  0  0  0
 28 45  1  0  0  0
M  END
> <i_i_glide_confnum>
18

> <i_i_glide_lignum>
1477

> <i_i_glide_posenum>
275

> <i_i_glide_rotatable_bonds>
4

> <i_m_Source_File_Index>
1765

> <b_m_subgroup_collapsed>
0

> <r_i_docking_score>
-5.53394

> <r_i_glide_ecoul>
-1.66695

> <r_i_glide_eff_state_penalty>
0

> <r_i_glide_einternal>
4.09752

> <r_i_glide_emodel>
-55.4528

> <r_i_glide_energy>
-43.3471

> <r_i_glide_erotb>
0.58486

> <r_i_glide_esite>
0

> <r_i_glide_evdw>
-41.6802

> <r_i_glide_gscore>
-5.53394

> <r_i_glide_hbond>
0

> <r_i_glide_ligand_efficiency>
-0.204961

> <r_i_glide_ligand_efficiency_ln>
-1.28821

> <r_i_glide_ligand_efficiency_sa>
-0.614882

> <r_i_glide_lipo>
-2.60726

> <r_i_glide_metal>
0

> <r_i_glide_rewards>
-1.17749

> <s_i_glide_gridfile>
wee1_glide-grid

> <s_m_Source_File>
wee1_decoys_glide_SP.sdf

> <s_m_Source_Path>
/Users/zhangxujun/Desktop

> <s_m_entry_id>
2040

> <s_m_entry_name>
wee1_decoys_glide_SP.1765

> <s_m_subgroup_title>
wee1_decoys_glide_SP

> <s_m_subgroupid>
wee1_decoys_glide_SP


$$$$
