@<TRIPOS>MOLECULE
ZINC39444819_2775
52   56    1
SMALL
USER_CHARGES


@<TRIPOS>ATOM
      1 C1          1.7306   50.1416   22.1235 C.ar      1 UNK         0.0000 
      2 C2          1.3628   50.2534   23.4636 C.ar      1 UNK         0.0000 
      3 C3          0.8362   51.4551   23.9415 C.ar      1 UNK         0.0000 
      4 C4          0.6886   52.5496   23.0893 C.ar      1 UNK         0.0000 
      5 C5          1.0407   52.4333   21.7512 C.ar      1 UNK         0.0000 
      6 C6          1.5424   51.2218   21.2541 C.ar      1 UNK         0.0000 
      7 N7          1.8921   51.0380   19.9042 N.am      1 UNK         0.0000 
      8 C8          1.3280   51.6312   18.8295 C.2       1 UNK         0.0000 
      9 O9          0.3706   52.4088   18.8982 O.2       1 UNK         0.0000 
     10 C10         1.9042   51.2093   17.4620 C.3       1 UNK         0.0000 
     11 H11         2.9641   50.9647   17.5634 H         1 UNK         0.0000 
     12 C12         1.1054   50.0982   16.8521 C.2       1 UNK         0.0000 
     13 C13         0.6160   50.6111   15.7207 C.2       1 UNK         0.0000 
     14 N14         1.0039   51.8912   15.5383 N.2       1 UNK         0.0000 
     15 N15         1.7509   52.2681   16.4979 N.2       1 UNK         0.0000 
     16 Cl16        0.9183   48.4729   17.5201 Cl        1 UNK         0.0000 
     17 S17         0.4140   51.6525   25.6650 S.o2      1 UNK         0.0000 
     18 O18        -0.7856   52.4963   25.7295 O.2       1 UNK         0.0000 
     19 O19         0.4351   50.3246   26.2855 O.2       1 UNK         0.0000 
     20 N20         1.7747   52.5964   26.2762 N.pl3     1 UNK         0.0000 
     21 C21         1.9462   52.9353   27.7078 C.3       1 UNK         0.0000 
     22 C22         3.3948   53.4851   27.8504 C.3       1 UNK         0.0000 
     23 C23         3.6252   53.9408   29.3132 C.3       1 UNK         0.0000 
     24 C24         2.5790   55.0428   29.6503 C.3       1 UNK         0.0000 
     25 C25         1.1503   54.4742   29.5447 C.3       1 UNK         0.0000 
     26 C26         0.9345   54.0410   28.0820 C.3       1 UNK         0.0000 
     27 C27         0.9835   53.2516   30.4856 C.3       1 UNK         0.0000 
     28 C28         2.0112   52.1504   30.1036 C.3       1 UNK         0.0000 
     29 C29         3.4517   52.7060   30.2379 C.3       1 UNK         0.0000 
     30 C30         1.7493   51.7081   28.6411 C.3       1 UNK         0.0000 
     31 H31         2.1411   49.2092   21.7626 H         1 UNK         0.0000 
     32 H32         1.4998   49.4118   24.1252 H         1 UNK         0.0000 
     33 H33         0.3088   53.4897   23.4641 H         1 UNK         0.0000 
     34 H34         0.9269   53.2948   21.1101 H         1 UNK         0.0000 
     35 H35         2.5480   50.2954   19.7131 H         1 UNK         0.0000 
     36 H36        -0.0120   50.1409   14.9804 H         1 UNK         0.0000 
     37 H37         1.9227   53.4327   25.7045 H         1 UNK         0.0000 
     38 H38         4.1266   52.7225   27.5752 H         1 UNK         0.0000 
     39 H39         3.5636   54.3222   27.1711 H         1 UNK         0.0000 
     40 H40         4.6355   54.3438   29.4189 H         1 UNK         0.0000 
     41 H41         2.7024   55.8960   28.9797 H         1 UNK         0.0000 
     42 H42         2.7043   55.4491   30.6400 H         1 UNK         0.0000 
     43 H43         0.4296   55.2438   29.8180 H         1 UNK         0.0000 
     44 H44         1.1028   54.8960   27.4262 H         1 UNK         0.0000 
     45 H45        -0.0924   53.7016   27.9396 H         1 UNK         0.0000 
     46 H46         1.1044   53.5495   31.5276 H         1 UNK         0.0000 
     47 H47        -0.0348   52.8594   30.4143 H         1 UNK         0.0000 
     48 H48         1.9011   51.2969   30.7692 H         1 UNK         0.0000 
     49 H49         4.1758   51.9336   29.9708 H         1 UNK         0.0000 
     50 H50         3.6677   52.9513   31.2781 H         1 UNK         0.0000 
     51 H51         0.7343   51.3122   28.5666 H         1 UNK         0.0000 
     52 H52         2.4176   50.8968   28.3598 H         1 UNK         0.0000 
@<TRIPOS>BOND
     1    1    6 ar   
     2    1    2 ar   
     3    1   31 1    
     4    2    3 ar   
     5    2   32 1    
     6    3    4 ar   
     7    3   17 1    
     8    4    5 ar   
     9    4   33 1    
    10    5    6 ar   
    11    5   34 1    
    12    6    7 1    
    13    7    8 am   BACKBONE|DICT|INTERRES
    14    7   35 1    
    15    8    9 2    
    16    8   10 1    
    17   10   11 1    
    18   10   15 1    
    19   10   12 1    
    20   12   13 2    
    21   12   16 1    
    22   13   14 1    
    23   13   36 1    
    24   14   15 2    
    25   17   18 2    
    26   17   19 2    
    27   17   20 1    
    28   20   21 1    
    29   20   37 1    
    30   21   26 1    
    31   21   30 1    
    32   21   22 1    
    33   22   23 1    
    34   22   38 1    
    35   22   39 1    
    36   23   29 1    
    37   23   24 1    
    38   23   40 1    
    39   24   25 1    
    40   24   41 1    
    41   24   42 1    
    42   25   26 1    
    43   25   27 1    
    44   25   43 1    
    45   26   44 1    
    46   26   45 1    
    47   27   28 1    
    48   27   46 1    
    49   27   47 1    
    50   28   29 1    
    51   28   30 1    
    52   28   48 1    
    53   29   49 1    
    54   29   50 1    
    55   30   51 1    
    56   30   52 1    
@<TRIPOS>SUBSTRUCTURE
     1 UNK         1 GROUP             0       ****    0 ROOT    
