@<TRIPOS>MOLECULE
ZINC39595768_624
63   66    1
SMALL
USER_CHARGES


@<TRIPOS>ATOM
      1 C1         -0.8113   49.1106   20.6549 C.3       1 UNK         0.0000 
      2 C2          0.0383   50.2975   21.1328 C.3       1 UNK         0.0000 
      3 H3          0.7597   49.9024   21.8463 H         1 UNK         0.0000 
      4 C4          0.8029   50.9626   19.9674 C.3       1 UNK         0.0000 
      5 N5          1.6332   52.1049   20.3561 N.am      1 UNK         0.0000 
      6 C6          2.7951   52.0266   21.0207 C.2       1 UNK         0.0000 
      7 O7          3.2408   50.9568   21.4411 O.2       1 UNK         0.0000 
      8 C8          3.5241   53.3759   21.2827 C.3       1 UNK         0.0000 
      9 H9          2.7677   54.1459   21.4466 H         1 UNK         0.0000 
     10 C10         4.3819   53.2235   22.5493 C.3       1 UNK         0.0000 
     11 N11         5.3669   54.2985   22.4316 N.am      1 UNK         0.0000 
     12 C12         5.5264   54.7228   21.0337 C.3       1 UNK         0.0000 
     13 C13         4.5775   53.8197   20.2127 C.3       1 UNK         0.0000 
     14 C14         5.3770   52.6090   19.6551 C.3       1 UNK         0.0000 
     15 C15         6.4063   52.9707   18.5518 C.3       1 UNK         0.0000 
     16 N16         5.6833   53.6977   17.4080 N.4       1 UNK         0.0000 
     17 C17         4.9542   54.9562   17.9070 C.3       1 UNK         0.0000 
     18 C18         3.9404   54.5159   18.9756 C.3       1 UNK         0.0000 
     19 C19         6.0600   54.8963   23.4376 C.2       1 UNK         0.0000 
     20 O20         6.9661   55.6941   23.1970 O.2       1 UNK         0.0000 
     21 C21         5.6879   54.6392   24.8839 C.ar      1 UNK         0.0000 
     22 C22         6.7043   54.4841   25.8299 C.ar      1 UNK         0.0000 
     23 C23         6.4048   54.3186   27.1808 C.ar      1 UNK         0.0000 
     24 C24         5.0763   54.3235   27.5975 C.ar      1 UNK         0.0000 
     25 C25         4.0506   54.4958   26.6720 C.ar      1 UNK         0.0000 
     26 C26         4.3559   54.6681   25.3241 C.ar      1 UNK         0.0000 
     27 Cl27        4.6986   54.1527   29.2752 Cl        1 UNK         0.0000 
     28 O28        -0.8666   51.2551   21.6956 O.3       1 UNK         0.0000 
     29 C29        -0.8352   51.5380   23.0470 C.ar      1 UNK         0.0000 
     30 C30        -2.0375   51.9622   23.6159 C.ar      1 UNK         0.0000 
     31 C31        -2.1110   52.2597   24.9750 C.ar      1 UNK         0.0000 
     32 C32        -0.9725   52.1480   25.7670 C.ar      1 UNK         0.0000 
     33 C33         0.2390   51.7491   25.2098 C.ar      1 UNK         0.0000 
     34 C34         0.3126   51.4488   23.8516 C.ar      1 UNK         0.0000 
     35 F35        -1.0351   52.4586   27.0803 F         1 UNK         0.0000 
     36 H36        -0.1911   48.3331   20.2092 H         1 UNK         0.0000 
     37 H37        -1.3499   48.6601   21.4897 H         1 UNK         0.0000 
     38 H38        -1.5475   49.4193   19.9118 H         1 UNK         0.0000 
     39 H39         1.4227   50.2235   19.4545 H         1 UNK         0.0000 
     40 H40         0.0871   51.3186   19.2245 H         1 UNK         0.0000 
     41 H41         1.3058   53.0224   20.0828 H         1 UNK         0.0000 
     42 H42         3.7610   53.1915   23.4408 H         1 UNK         0.0000 
     43 H43         4.9695   52.3050   22.4820 H         1 UNK         0.0000 
     44 H44         6.5475   54.7492   20.6548 H         1 UNK         0.0000 
     45 H45         5.1366   55.7377   20.9797 H         1 UNK         0.0000 
     46 H46         5.8757   52.0832   20.4628 H         1 UNK         0.0000 
     47 H47         4.6726   51.8792   19.2817 H         1 UNK         0.0000 
     48 H48         7.1981   53.6443   18.8822 H         1 UNK         0.0000 
     49 H49         6.8583   52.0968   18.0817 H         1 UNK         0.0000 
     50 H50         6.3420   53.9341   16.6783 H         1 UNK         0.0000 
     51 H51         5.7111   55.6469   18.2858 H         1 UNK         0.0000 
     52 H52         4.4710   55.3997   17.0346 H         1 UNK         0.0000 
     53 H53         3.1706   53.8837   18.5296 H         1 UNK         0.0000 
     54 H54         3.4374   55.4240   19.2820 H         1 UNK         0.0000 
     55 H55         7.7328   54.4970   25.5066 H         1 UNK         0.0000 
     56 H56         7.1976   54.2035   27.9047 H         1 UNK         0.0000 
     57 H57         3.0221   54.5224   26.9995 H         1 UNK         0.0000 
     58 H58         3.5449   54.8651   24.6377 H         1 UNK         0.0000 
     59 H59        -2.9204   52.0449   23.0008 H         1 UNK         0.0000 
     60 H60        -3.0435   52.5776   25.4157 H         1 UNK         0.0000 
     61 H61         1.1164   51.6797   25.8344 H         1 UNK         0.0000 
     62 H62         1.2702   51.1617   23.4467 H         1 UNK         0.0000 
     63 H63         5.0177   53.0537   16.9998 H         1 UNK         0.0000 
@<TRIPOS>BOND
     1    1    2 1    
     2    1   36 1    
     3    1   37 1    
     4    1   38 1    
     5    2    3 1    
     6    2    4 1    
     7    2   28 1    
     8    4    5 1    
     9    4   39 1    
    10    4   40 1    
    11    5    6 am   BACKBONE|DICT|INTERRES
    12    5   41 1    
    13    6    7 2    
    14    6    8 1    
    15    8    9 1    
    16    8   13 1    
    17    8   10 1    
    18   10   11 1    
    19   10   42 1    
    20   10   43 1    
    21   11   12 1    
    22   11   19 am   BACKBONE|DICT|INTERRES
    23   12   13 1    
    24   12   44 1    
    25   12   45 1    
    26   13   18 1    
    27   13   14 1    
    28   14   15 1    
    29   14   46 1    
    30   14   47 1    
    31   15   16 1    
    32   15   48 1    
    33   15   49 1    
    34   16   17 1    
    35   16   50 1    
    36   16   63 1    
    37   17   18 1    
    38   17   51 1    
    39   17   52 1    
    40   18   53 1    
    41   18   54 1    
    42   19   20 2    
    43   19   21 1    
    44   21   26 ar   
    45   21   22 ar   
    46   22   23 ar   
    47   22   55 1    
    48   23   24 ar   
    49   23   56 1    
    50   24   25 ar   
    51   24   27 1    
    52   25   26 ar   
    53   25   57 1    
    54   26   58 1    
    55   28   29 1    
    56   29   34 ar   
    57   29   30 ar   
    58   30   31 ar   
    59   30   59 1    
    60   31   32 ar   
    61   31   60 1    
    62   32   33 ar   
    63   32   35 1    
    64   33   34 ar   
    65   33   61 1    
    66   34   62 1    
@<TRIPOS>SUBSTRUCTURE
     1 UNK         1 GROUP             0       ****    0 ROOT    
