@<TRIPOS>MOLECULE
ZINC22965625_2405
51   55    1
SMALL
USER_CHARGES


@<TRIPOS>ATOM
      1 C1          6.8522   54.4986   26.7833 C.ar      1 UNK         0.0000 
      2 C2          6.8641   54.4842   25.3917 C.ar      1 UNK         0.0000 
      3 C3          5.6758   54.4073   24.6572 C.ar      1 UNK         0.0000 
      4 C4          4.4569   54.3844   25.3608 C.ar      1 UNK         0.0000 
      5 C5          4.4419   54.3838   26.7598 C.ar      1 UNK         0.0000 
      6 C6          5.6486   54.4594   27.4668 C.ar      1 UNK         0.0000 
      7 N7          3.1973   54.3236   27.4000 N.am      1 UNK         0.0000 
      8 C8          2.9332   53.7538   28.5947 C.2       1 UNK         0.0000 
      9 O9          3.7591   53.1292   29.2666 O.2       1 UNK         0.0000 
     10 C10         1.4797   53.8676   29.0819 C.3       1 UNK         0.0000 
     11 H11         1.0597   54.8150   28.7419 H         1 UNK         0.0000 
     12 C12         0.6376   52.6734   28.6075 C.3       1 UNK         0.0000 
     13 C13        -0.2460   52.3415   29.7949 C.3       1 UNK         0.0000 
     14 C14         0.2013   53.2705   30.9212 C.3       1 UNK         0.0000 
     15 O15         1.4548   53.7833   30.5034 O.3       1 UNK         0.0000 
     16 C16         5.7539   54.3172   23.1485 C.2       1 UNK         0.0000 
     17 O17         6.8142   54.5574   22.5723 O.2       1 UNK         0.0000 
     18 N18         4.6303   53.9175   22.5168 N.am      1 UNK         0.0000 
     19 C19         4.4721   53.7464   21.1465 C.ar      1 UNK         0.0000 
     20 C20         3.6584   52.8105   20.4906 C.ar      1 UNK         0.0000 
     21 N21         3.7525   52.9157   19.1786 N.2       1 UNK         0.0000 
     22 C22         4.5720   53.9130   18.9575 C.ar      1 UNK         0.0000 
     23 N23         5.0539   54.4883   20.1173 N.pl3     1 UNK         0.0000 
     24 C24         5.9047   55.5692   19.9067 C.2       1 UNK         0.0000 
     25 C25         6.0878   55.8284   18.5631 C.2       1 UNK         0.0000 
     26 S26         5.2024   54.7159   17.5315 S.3       1 UNK         0.0000 
     27 C27         2.7717   51.7721   21.0975 C.ar      1 UNK         0.0000 
     28 C28         1.9929   52.0812   22.2183 C.ar      1 UNK         0.0000 
     29 C29         1.1743   51.1112   22.7903 C.ar      1 UNK         0.0000 
     30 C30         1.1328   49.8329   22.2398 C.ar      1 UNK         0.0000 
     31 C31         1.8964   49.5159   21.1202 C.ar      1 UNK         0.0000 
     32 C32         2.7093   50.4873   20.5437 C.ar      1 UNK         0.0000 
     33 F33         0.3287   48.8965   22.7903 F         1 UNK         0.0000 
     34 H34         7.7758   54.5293   27.3423 H         1 UNK         0.0000 
     35 H35         7.8162   54.4973   24.8817 H         1 UNK         0.0000 
     36 H36         3.5168   54.3356   24.8325 H         1 UNK         0.0000 
     37 H37         5.6733   54.4860   28.5468 H         1 UNK         0.0000 
     38 H38         2.4126   54.6617   26.8663 H         1 UNK         0.0000 
     39 H39         1.2308   51.7972   28.3396 H         1 UNK         0.0000 
     40 H40         0.0244   52.9391   27.7450 H         1 UNK         0.0000 
     41 H41        -0.1327   51.2972   30.0824 H         1 UNK         0.0000 
     42 H42        -1.2955   52.4943   29.5657 H         1 UNK         0.0000 
     43 H43         0.2945   52.7601   31.8830 H         1 UNK         0.0000 
     44 H44        -0.4895   54.1010   31.0682 H         1 UNK         0.0000 
     45 H45         3.9201   53.5006   23.0958 H         1 UNK         0.0000 
     46 H46         6.3333   56.1059   20.7399 H         1 UNK         0.0000 
     47 H47         6.6880   56.6071   18.1128 H         1 UNK         0.0000 
     48 H48         2.0010   53.0780   22.6334 H         1 UNK         0.0000 
     49 H49         0.5683   51.3450   23.6516 H         1 UNK         0.0000 
     50 H50         1.8540   48.5244   20.6947 H         1 UNK         0.0000 
     51 H51         3.2992   50.2417   19.6696 H         1 UNK         0.0000 
@<TRIPOS>BOND
     1    1    6 ar   
     2    1    2 ar   
     3    1   34 1    
     4    2    3 ar   
     5    2   35 1    
     6    3    4 ar   
     7    3   16 1    
     8    4    5 ar   
     9    4   36 1    
    10    5    6 ar   
    11    5    7 1    
    12    6   37 1    
    13    7    8 am   BACKBONE|DICT|INTERRES
    14    7   38 1    
    15    8    9 2    
    16    8   10 1    
    17   10   11 1    
    18   10   15 1    
    19   10   12 1    
    20   12   13 1    
    21   12   39 1    
    22   12   40 1    
    23   13   14 1    
    24   13   41 1    
    25   13   42 1    
    26   14   15 1    
    27   14   43 1    
    28   14   44 1    
    29   16   17 2    
    30   16   18 am   BACKBONE|DICT|INTERRES
    31   18   19 1    
    32   18   45 1    
    33   19   23 ar   
    34   19   20 ar   
    35   20   21 ar   
    36   20   27 1    
    37   21   22 ar   
    38   22   26 1    
    39   22   23 ar   
    40   23   24 1    
    41   24   25 2    
    42   24   46 1    
    43   25   26 1    
    44   25   47 1    
    45   27   32 ar   
    46   27   28 ar   
    47   28   29 ar   
    48   28   48 1    
    49   29   30 ar   
    50   29   49 1    
    51   30   31 ar   
    52   30   33 1    
    53   31   32 ar   
    54   31   50 1    
    55   32   51 1    
@<TRIPOS>SUBSTRUCTURE
     1 UNK         1 GROUP             0       ****    0 ROOT    
