ZINC08896813_5279
                    3D
 Schrodinger Suite 2024-2.
 68 71  0  0  1  0            999 V2000
   -7.4663   45.8661   31.5917 C   0  0  0  0  0  0
   -7.4558   47.1438   30.7203 C   0  0  0  0  0  0
   -8.8780   47.3899   30.1612 C   0  0  0  0  0  0
   -7.1158   48.3324   31.6590 C   0  0  0  0  0  0
   -6.4541   46.9852   29.5430 C   0  0  0  0  0  0
   -5.3542   47.8401   29.3841 C   0  0  0  0  0  0
   -4.4959   47.7066   28.2981 C   0  0  0  0  0  0
   -4.6829   46.6940   27.3439 C   0  0  0  0  0  0
   -5.7725   45.8271   27.5119 C   0  0  0  0  0  0
   -6.6487   45.9782   28.5869 C   0  0  0  0  0  0
   -3.7707   46.5510   26.1332 C   0  0  0  0  0  0
   -4.0125   45.6945   25.2774 O   0  0  0  0  0  0
   -2.6987   47.3859   26.0833 N   0  0  0  0  0  0
   -1.9993   47.9549   25.0519 C   0  0  0  0  0  0
   -2.2748   47.6915   23.4079 S   0  0  0  0  0  0
   -1.0664   48.8296   25.5501 N   0  0  0  0  0  0
   -0.1976   49.7241   24.8932 C   0  0  0  0  0  0
    0.6788   49.2911   23.8970 C   0  0  0  0  0  0
    1.5006   50.1971   23.2419 C   0  0  0  0  0  0
    1.4830   51.5508   23.5902 C   0  0  0  0  0  0
    0.6409   51.9749   24.6266 C   0  0  0  0  0  0
   -0.1965   51.0665   25.2782 C   0  0  0  0  0  0
    2.3043   52.4377   22.9067 N   0  0  0  0  0  0
    2.3957   52.4594   21.4434 C   0  0  0  0  0  0
    3.8107   52.6669   20.8592 C   0  0  0  0  0  0
    4.5499   53.7185   21.5860 N   0  0  0  0  0  0
    4.4624   53.7357   23.0612 C   0  0  0  0  0  0
    2.9977   53.5658   23.5277 C   0  0  0  0  0  0
    5.4734   54.5297   20.9877 C   0  0  0  0  0  0
    6.1948   55.2992   21.6285 O   0  0  0  0  0  0
    5.6343   54.5368   19.4841 C   0  0  0  0  0  0
    5.5873   55.7554   18.7951 C   0  0  0  0  0  0
    5.7657   55.7921   17.4155 C   0  0  0  0  0  0
    6.0039   54.6112   16.7181 C   0  0  0  0  0  0
    6.0769   53.3954   17.3920 C   0  0  0  0  0  0
    5.9019   53.3601   18.7720 C   0  0  0  0  0  0
   -8.1989   45.9387   32.3970 H   0  0  0  0  0  0
   -6.4961   45.6964   32.0597 H   0  0  0  0  0  0
   -7.7239   44.9773   31.0150 H   0  0  0  0  0  0
   -8.9088   48.2815   29.5341 H   0  0  0  0  0  0
   -9.2361   46.5550   29.5590 H   0  0  0  0  0  0
   -9.6045   47.5326   30.9619 H   0  0  0  0  0  0
   -7.1240   49.2836   31.1256 H   0  0  0  0  0  0
   -7.8384   48.4216   32.4718 H   0  0  0  0  0  0
   -6.1352   48.2166   32.1233 H   0  0  0  0  0  0
   -5.1465   48.6353   30.0821 H   0  0  0  0  0  0
   -3.6956   48.4252   28.2171 H   0  0  0  0  0  0
   -5.9622   45.0361   26.7982 H   0  0  0  0  0  0
   -7.4891   45.3047   28.6670 H   0  0  0  0  0  0
   -2.4832   47.8038   26.9855 H   0  0  0  0  0  0
   -1.0476   48.9063   26.5617 H   0  0  0  0  0  0
    0.7168   48.2450   23.6295 H   0  0  0  0  0  0
    2.1662   49.8368   22.4711 H   0  0  0  0  0  0
    0.6188   53.0145   24.9183 H   0  0  0  0  0  0
   -0.8542   51.4094   26.0648 H   0  0  0  0  0  0
    1.9362   51.5730   21.0043 H   0  0  0  0  0  0
    1.7669   53.2967   21.1428 H   0  0  0  0  0  0
    4.3442   51.7233   20.9882 H   0  0  0  0  0  0
    3.6706   52.8818   19.7997 H   0  0  0  0  0  0
    4.8403   54.6612   23.4988 H   0  0  0  0  0  0
    5.0421   52.8986   23.4504 H   0  0  0  0  0  0
    2.4253   54.4580   23.2635 H   0  0  0  0  0  0
    2.9661   53.4797   24.6137 H   0  0  0  0  0  0
    5.4099   56.6834   19.3225 H   0  0  0  0  0  0
    5.7171   56.7337   16.8880 H   0  0  0  0  0  0
    6.1395   54.6391   15.6475 H   0  0  0  0  0  0
    6.2613   52.4794   16.8491 H   0  0  0  0  0  0
    5.9786   52.4085   19.2777 H   0  0  0  0  0  0
  1  2  1  0  0  0
  1 37  1  0  0  0
  1 38  1  0  0  0
  1 39  1  0  0  0
  2  3  1  0  0  0
  2  4  1  0  0  0
  2  5  1  0  0  0
  3 40  1  0  0  0
  3 41  1  0  0  0
  3 42  1  0  0  0
  4 43  1  0  0  0
  4 44  1  0  0  0
  4 45  1  0  0  0
  5 10  2  0  0  0
  5  6  1  0  0  0
  6  7  2  0  0  0
  6 46  1  0  0  0
  7  8  1  0  0  0
  7 47  1  0  0  0
  8  9  2  0  0  0
  8 11  1  0  0  0
  9 10  1  0  0  0
  9 48  1  0  0  0
 10 49  1  0  0  0
 11 12  2  0  0  0
 11 13  1  0  0  0
 13 14  1  0  0  0
 13 50  1  0  0  0
 14 15  2  0  0  0
 14 16  1  0  0  0
 16 17  1  0  0  0
 16 51  1  0  0  0
 17 22  2  0  0  0
 17 18  1  0  0  0
 18 19  2  0  0  0
 18 52  1  0  0  0
 19 20  1  0  0  0
 19 53  1  0  0  0
 20 21  2  0  0  0
 20 23  1  0  0  0
 21 22  1  0  0  0
 21 54  1  0  0  0
 22 55  1  0  0  0
 23 28  1  0  0  0
 23 24  1  0  0  0
 24 25  1  0  0  0
 24 56  1  0  0  0
 24 57  1  0  0  0
 25 26  1  0  0  0
 25 58  1  0  0  0
 25 59  1  0  0  0
 26 27  1  0  0  0
 26 29  1  0  0  0
 27 28  1  0  0  0
 27 60  1  0  0  0
 27 61  1  0  0  0
 28 62  1  0  0  0
 28 63  1  0  0  0
 29 30  2  0  0  0
 29 31  1  0  0  0
 31 36  2  0  0  0
 31 32  1  0  0  0
 32 33  2  0  0  0
 32 64  1  0  0  0
 33 34  1  0  0  0
 33 65  1  0  0  0
 34 35  2  0  0  0
 34 66  1  0  0  0
 35 36  1  0  0  0
 35 67  1  0  0  0
 36 68  1  0  0  0
M  END
> <i_i_glide_confnum>
471

> <i_i_glide_lignum>
5280

> <i_i_glide_posenum>
307

> <i_i_glide_rotatable_bonds>
9

> <i_m_Source_File_Index>
4208

> <b_m_subgroup_collapsed>
0

> <r_i_docking_score>
-4.2341

> <r_i_glide_ecoul>
-10.2404

> <r_i_glide_eff_state_penalty>
0

> <r_i_glide_einternal>
10.6986

> <r_i_glide_emodel>
-52.1051

> <r_i_glide_energy>
-46.443

> <r_i_glide_erotb>
0.651765

> <r_i_glide_esite>
-0.346397

> <r_i_glide_evdw>
-36.2027

> <r_i_glide_gscore>
-4.2341

> <r_i_glide_hbond>
-0.456

> <r_i_glide_ligand_efficiency>
-0.117614

> <r_i_glide_ligand_efficiency_ln>
-0.923766

> <r_i_glide_ligand_efficiency_sa>
-0.388352

> <r_i_glide_lipo>
-1.19303

> <r_i_glide_metal>
0

> <r_i_glide_rewards>
0.455747

> <s_i_glide_gridfile>
wee1_glide-grid

> <s_m_Source_File>
wee1_decoys_glide_SP.sdf

> <s_m_Source_Path>
/Users/zhangxujun/Desktop

> <s_m_entry_id>
4483

> <s_m_entry_name>
wee1_decoys_glide_SP.4208

> <s_m_subgroup_title>
wee1_decoys_glide_SP

> <s_m_subgroupid>
wee1_decoys_glide_SP


$$$$
