@<TRIPOS>MOLECULE
ZINC33058241_4490
52   55    1
SMALL
USER_CHARGES


@<TRIPOS>ATOM
      1 C1          6.5022   54.3357   27.1295 C.3       1 UNK         0.0000 
      2 O2          5.8240   55.2889   26.3188 O.3       1 UNK         0.0000 
      3 C3          5.6740   54.9118   25.0050 C.ar      1 UNK         0.0000 
      4 C4          6.6706   55.2655   24.0958 C.ar      1 UNK         0.0000 
      5 C5          6.5686   54.8959   22.7571 C.ar      1 UNK         0.0000 
      6 C6          5.4562   54.1796   22.3208 C.ar      1 UNK         0.0000 
      7 C7          4.4409   53.8468   23.2186 C.ar      1 UNK         0.0000 
      8 C8          4.5297   54.2186   24.5692 C.ar      1 UNK         0.0000 
      9 N9          3.5654   53.8932   25.5424 N.pl3     1 UNK         0.0000 
     10 C10         2.3219   53.3016   25.4960 C.2       1 UNK         0.0000 
     11 C11         1.7076   52.6490   26.5672 C.2       1 UNK         0.0000 
     12 C12         0.4679   52.0965   26.2039 C.2       1 UNK         0.0000 
     13 C13         0.1117   52.3371   24.8736 C.2       1 UNK         0.0000 
     14 S14         1.3029   53.3232   24.0852 S.3       1 UNK         0.0000 
     15 C15        -1.0418   51.8977   24.0886 C.2       1 UNK         0.0000 
     16 O16        -1.6725   52.7317   23.4336 O.2       1 UNK         0.0000 
     17 C17        -1.4369   50.4461   24.1034 C.ar      1 UNK         0.0000 
     18 C18        -0.5714   49.4468   24.5821 C.ar      1 UNK         0.0000 
     19 C19        -0.9547   48.1090   24.5621 C.ar      1 UNK         0.0000 
     20 C20        -2.1985   47.7550   24.0477 C.ar      1 UNK         0.0000 
     21 C21        -3.0613   48.7291   23.5516 C.ar      1 UNK         0.0000 
     22 C22        -2.6801   50.0682   23.5748 C.ar      1 UNK         0.0000 
     23 Cl23       -2.6730   46.0971   24.0184 Cl        1 UNK         0.0000 
     24 N24        -0.3099   51.3941   27.0795 N.pl3     1 UNK         0.0000 
     25 S25         2.4498   52.5129   28.2270 S.o2      1 UNK         0.0000 
     26 O26         1.9132   51.3119   28.8782 O.2       1 UNK         0.0000 
     27 O27         3.8951   52.7332   28.1070 O.2       1 UNK         0.0000 
     28 C28         1.8372   53.9327   29.0884 C.ar      1 UNK         0.0000 
     29 C29         0.9441   53.7790   30.1465 C.ar      1 UNK         0.0000 
     30 C30         0.5799   54.8973   30.8816 C.ar      1 UNK         0.0000 
     31 C31         1.1041   56.1474   30.5492 C.ar      1 UNK         0.0000 
     32 C32         1.9364   56.3071   29.4522 C.ar      1 UNK         0.0000 
     33 C33         2.3194   55.1905   28.7239 C.ar      1 UNK         0.0000 
     34 H34         6.3252   54.5614   28.1813 H         1 UNK         0.0000 
     35 H35         6.1703   53.3111   26.9508 H         1 UNK         0.0000 
     36 H36         7.5762   54.3813   26.9566 H         1 UNK         0.0000 
     37 H37         7.5199   55.8338   24.4352 H         1 UNK         0.0000 
     38 H38         7.3524   55.1632   22.0627 H         1 UNK         0.0000 
     39 H39         5.3766   53.8837   21.2846 H         1 UNK         0.0000 
     40 H40         3.6113   53.2756   22.8395 H         1 UNK         0.0000 
     41 H41         3.9915   53.9668   26.4588 H         1 UNK         0.0000 
     42 H42         0.4081   49.6806   24.9744 H         1 UNK         0.0000 
     43 H43        -0.2852   47.3549   24.9514 H         1 UNK         0.0000 
     44 H44        -4.0242   48.4500   23.1496 H         1 UNK         0.0000 
     45 H45        -3.3648   50.8079   23.1836 H         1 UNK         0.0000 
     46 H46         0.0570   51.1234   27.9857 H         1 UNK         0.0000 
     47 H47        -1.1638   50.9307   26.7979 H         1 UNK         0.0000 
     48 H48         0.5641   52.8053   30.4251 H         1 UNK         0.0000 
     49 H49        -0.0884   54.7904   31.7237 H         1 UNK         0.0000 
     50 H50         0.8362   57.0108   31.1376 H         1 UNK         0.0000 
     51 H51         2.3051   57.2871   29.1916 H         1 UNK         0.0000 
     52 H52         3.0086   55.2983   27.8993 H         1 UNK         0.0000 
@<TRIPOS>BOND
     1    1    2 1    
     2    1   34 1    
     3    1   35 1    
     4    1   36 1    
     5    2    3 1    
     6    3    8 ar   
     7    3    4 ar   
     8    4    5 ar   
     9    4   37 1    
    10    5    6 ar   
    11    5   38 1    
    12    6    7 ar   
    13    6   39 1    
    14    7    8 ar   
    15    7   40 1    
    16    8    9 1    
    17    9   10 1    
    18    9   41 1    
    19   10   14 1    
    20   10   11 2    
    21   11   12 1    
    22   11   25 1    
    23   12   13 2    
    24   12   24 1    
    25   13   14 1    
    26   13   15 1    
    27   15   16 2    
    28   15   17 1    
    29   17   22 ar   
    30   17   18 ar   
    31   18   19 ar   
    32   18   42 1    
    33   19   20 ar   
    34   19   43 1    
    35   20   21 ar   
    36   20   23 1    
    37   21   22 ar   
    38   21   44 1    
    39   22   45 1    
    40   24   46 1    
    41   24   47 1    
    42   25   26 2    
    43   25   27 2    
    44   25   28 1    
    45   28   33 ar   
    46   28   29 ar   
    47   29   30 ar   
    48   29   48 1    
    49   30   31 ar   
    50   30   49 1    
    51   31   32 ar   
    52   31   50 1    
    53   32   33 ar   
    54   32   51 1    
    55   33   52 1    
@<TRIPOS>SUBSTRUCTURE
     1 UNK         1 GROUP             0       ****    0 ROOT    
