ZINC62427326_1661
                    3D
 Schrodinger Suite 2024-2.
 31 33  0  0  1  0            999 V2000
    1.9981   52.3717   27.6950 C   0  0  0  0  0  0
    2.8673   53.1298   28.4837 C   0  0  0  0  0  0
    3.2607   54.1747   27.7686 N   0  0  0  0  0  0
    2.7051   54.0967   26.5056 N   0  0  0  0  0  0
    1.9315   53.0064   26.4768 N   0  0  0  0  0  0
    1.2860   52.6321   25.3023 C   0  0  0  0  0  0
    0.0813   51.9127   25.1599 C   0  0  0  0  0  0
   -0.2273   51.6462   23.8024 C   0  0  0  0  0  0
    0.7183   52.1878   22.9212 C   0  0  0  0  0  0
    1.9617   53.0517   23.7533 S   0  0  0  0  0  0
    0.6650   52.0976   21.4016 C   0  0  0  0  0  0
   -0.3872   51.0510   20.9815 C   0  0  0  0  0  0
   -1.6893   51.1847   21.7883 C   0  0  0  0  0  0
   -1.4656   50.9007   23.2900 C   0  0  0  0  0  0
   -0.6998   51.3886   26.2443 C   0  0  0  0  0  0
   -1.4881   52.0804   26.8821 O   0  0  0  0  0  0
   -0.4706   50.0967   26.4816 N   0  0  0  0  0  0
    3.3205   52.8443   29.8502 C   0  0  0  0  0  0
    3.8894   53.7639   30.4809 O   0  0  0  0  0  0
    3.1042   51.6968   30.2990 O   0  5  0  0  0  0
    1.4853   51.4438   27.8969 H   0  0  0  0  0  0
    0.3952   53.0663   20.9841 H   0  0  0  0  0  0
    1.6384   51.8357   20.9853 H   0  0  0  0  0  0
   -0.5910   51.1526   19.9144 H   0  0  0  0  0  0
    0.0191   50.0474   21.1136 H   0  0  0  0  0  0
   -2.0939   52.1899   21.6623 H   0  0  0  0  0  0
   -2.4453   50.5040   21.3952 H   0  0  0  0  0  0
   -1.3359   49.8286   23.4455 H   0  0  0  0  0  0
   -2.3589   51.1806   23.8524 H   0  0  0  0  0  0
    0.1912   49.5848   25.9189 H   0  0  0  0  0  0
   -0.9456   49.5963   27.2366 H   0  0  0  0  0  0
  1  5  1  0  0  0
  1  2  2  0  0  0
  1 21  1  0  0  0
  2  3  1  0  0  0
  2 18  1  0  0  0
  3  4  2  0  0  0
  4  5  1  0  0  0
  5  6  1  0  0  0
  6 10  1  0  0  0
  6  7  2  0  0  0
  7  8  1  0  0  0
  7 15  1  0  0  0
  8 14  1  0  0  0
  8  9  2  0  0  0
  9 10  1  0  0  0
  9 11  1  0  0  0
 11 12  1  0  0  0
 11 22  1  0  0  0
 11 23  1  0  0  0
 12 13  1  0  0  0
 12 24  1  0  0  0
 12 25  1  0  0  0
 13 14  1  0  0  0
 13 26  1  0  0  0
 13 27  1  0  0  0
 14 28  1  0  0  0
 14 29  1  0  0  0
 15 16  2  0  0  0
 15 17  1  0  0  0
 17 30  1  0  0  0
 17 31  1  0  0  0
 18 19  2  0  0  0
 18 20  1  0  0  0
M  CHG  1  20  -1
M  END
> <i_i_glide_confnum>
5

> <i_i_glide_lignum>
1662

> <i_i_glide_posenum>
306

> <i_i_glide_rotatable_bonds>
3

> <i_m_Source_File_Index>
52

> <b_m_subgroup_collapsed>
0

> <r_i_docking_score>
-6.25112

> <r_i_glide_ecoul>
-12.2283

> <r_i_glide_eff_state_penalty>
0

> <r_i_glide_einternal>
1.32806

> <r_i_glide_emodel>
-53.5249

> <r_i_glide_energy>
-36.6959

> <r_i_glide_erotb>
0.214931

> <r_i_glide_esite>
-0.133099

> <r_i_glide_evdw>
-24.4676

> <r_i_glide_gscore>
-6.25112

> <r_i_glide_hbond>
-0.48

> <r_i_glide_ligand_efficiency>
-0.312556

> <r_i_glide_ligand_efficiency_ln>
-1.56445

> <r_i_glide_ligand_efficiency_sa>
-0.848408

> <r_i_glide_lipo>
-0.85525

> <r_i_glide_metal>
0

> <r_i_glide_rewards>
-1.94008

> <s_i_glide_gridfile>
wee1_glide-grid

> <s_m_Source_File>
wee1_decoys_glide_SP.sdf

> <s_m_Source_Path>
/Users/zhangxujun/Desktop

> <s_m_entry_id>
327

> <s_m_entry_name>
wee1_decoys_glide_SP.52

> <s_m_subgroup_title>
wee1_decoys_glide_SP

> <s_m_subgroupid>
wee1_decoys_glide_SP


$$$$
