@<TRIPOS>MOLECULE
ZINC13657884_4294
36   37    1
SMALL
USER_CHARGES


@<TRIPOS>ATOM
      1 C1          4.2072   54.0936   26.3778 C.ar      1 UNK         0.0000 
      2 C2          3.0967   53.7370   25.5967 C.ar      1 UNK         0.0000 
      3 C3          3.2220   53.7746   24.2020 C.ar      1 UNK         0.0000 
      4 C4          4.4261   54.1423   23.6013 C.ar      1 UNK         0.0000 
      5 C5          5.5232   54.4957   24.3929 C.ar      1 UNK         0.0000 
      6 C6          5.4119   54.4659   25.7851 C.ar      1 UNK         0.0000 
      7 Br7         6.8919   54.8981   26.9049 Br        1 UNK         0.0000 
      8 O8          6.7014   54.8695   23.8045 O.3       1 UNK         0.0000 
      9 Br9         4.5405   54.1767   21.6978 Br        1 UNK         0.0000 
     10 C10         1.8280   53.3146   26.1963 C.2       1 UNK         0.0000 
     11 N11         1.6435   53.2225   27.4480 N.2       1 UNK         0.0000 
     12 N12         0.3957   52.7915   27.7978 N.pl3     1 UNK         0.0000 
     13 C13        -0.0069   52.4950   29.0464 C.2       1 UNK         0.0000 
     14 N14        -1.0477   51.6970   29.2891 N.pl3     1 UNK         0.0000 
     15 C15        -2.1534   51.2953   28.3956 C.3       1 UNK         0.0000 
     16 C16        -1.7693   50.8983   26.9562 C.3       1 UNK         0.0000 
     17 H17        -0.8294   50.3412   26.9755 H         1 UNK         0.0000 
     18 C18        -2.8510   50.1186   26.2154 C.3       1 UNK         0.0000 
     19 C19        -2.5952   50.4214   24.7543 C.3       1 UNK         0.0000 
     20 C20        -1.8069   51.7333   24.7735 C.3       1 UNK         0.0000 
     21 O21        -1.6596   52.0720   26.1525 O.3       1 UNK         0.0000 
     22 S22         0.7052   53.2094   30.4813 S.3       1 UNK         0.0000 
     23 H23         4.1509   54.0686   27.4573 H         1 UNK         0.0000 
     24 H24         2.3878   53.5070   23.5675 H         1 UNK         0.0000 
     25 H25         6.6599   54.8398   22.8460 H         1 UNK         0.0000 
     26 H26         1.0463   53.0753   25.4762 H         1 UNK         0.0000 
     27 H27        -1.1837   51.4787   30.2680 H         1 UNK         0.0000 
     28 H28        -2.5976   50.4343   28.8959 H         1 UNK         0.0000 
     29 H29        -2.9072   52.0798   28.3956 H         1 UNK         0.0000 
     30 H30        -2.8431   49.0591   26.4781 H         1 UNK         0.0000 
     31 H31        -3.8365   50.4747   26.5198 H         1 UNK         0.0000 
     32 H32        -1.9997   49.6279   24.3005 H         1 UNK         0.0000 
     33 H33        -3.5243   50.5039   24.1891 H         1 UNK         0.0000 
     34 H34        -0.8223   51.6111   24.3169 H         1 UNK         0.0000 
     35 H35        -2.3298   52.5358   24.2500 H         1 UNK         0.0000 
     36 H36        -0.1906   52.4613   27.0392 H         1 UNK         0.0000 
@<TRIPOS>BOND
     1    1    6 ar   
     2    1    2 ar   
     3    1   23 1    
     4    2    3 ar   
     5    2   10 1    
     6    3    4 ar   
     7    3   24 1    
     8    4    5 ar   
     9    4    9 1    
    10    5    6 ar   
    11    5    8 1    
    12    6    7 1    
    13    8   25 1    
    14   10   11 2    
    15   10   26 1    
    16   11   12 1    
    17   12   13 2    
    18   12   36 1    
    19   13   14 1    
    20   13   22 1    
    21   14   15 1    
    22   14   27 1    
    23   15   16 1    
    24   15   28 1    
    25   15   29 1    
    26   16   17 1    
    27   16   21 1    
    28   16   18 1    
    29   18   19 1    
    30   18   30 1    
    31   18   31 1    
    32   19   20 1    
    33   19   32 1    
    34   19   33 1    
    35   20   21 1    
    36   20   34 1    
    37   20   35 1    
@<TRIPOS>SUBSTRUCTURE
     1 UNK         1 GROUP             0       ****    0 ROOT    
