@<TRIPOS>MOLECULE
ZINC39636103_782
66   69    1
SMALL
USER_CHARGES


@<TRIPOS>ATOM
      1 C1         -8.0547   52.4517   26.7600 C.3       1 UNK         0.0000 
      2 C2         -6.8408   51.4981   26.7094 C.3       1 UNK         0.0000 
      3 H3         -6.5935   51.2484   27.7437 H         1 UNK         0.0000 
      4 C4         -7.1703   50.1561   26.0024 C.3       1 UNK         0.0000 
      5 C5         -7.2910   50.2851   24.4707 C.3       1 UNK         0.0000 
      6 C6         -6.0407   50.9445   23.8610 C.3       1 UNK         0.0000 
      7 C7         -5.7343   52.2928   24.5430 C.3       1 UNK         0.0000 
      8 C8         -5.5815   52.1737   26.0855 C.3       1 UNK         0.0000 
      9 H9         -5.5180   53.1886   26.4879 H         1 UNK         0.0000 
     10 N10        -4.3554   51.4708   26.4868 N.am      1 UNK         0.0000 
     11 C11        -3.1162   51.9915   26.4406 C.2       1 UNK         0.0000 
     12 O12        -2.9031   53.1593   26.1197 O.2       1 UNK         0.0000 
     13 C13        -1.9519   51.0540   26.8463 C.3       1 UNK         0.0000 
     14 H14        -2.3955   50.1567   27.2836 H         1 UNK         0.0000 
     15 C15        -0.9484   51.6830   27.8272 C.3       1 UNK         0.0000 
     16 N16         0.1606   52.1821   26.9975 N.am      1 UNK         0.0000 
     17 C17         0.0246   51.7192   25.6113 C.3       1 UNK         0.0000 
     18 C18        -1.0855   50.6324   25.6248 C.3       1 UNK         0.0000 
     19 C19        -0.5047   49.2258   25.9245 C.3       1 UNK         0.0000 
     20 C20         0.5053   48.7402   24.8742 C.3       1 UNK         0.0000 
     21 N21        -0.1330   48.7923   23.4706 N.4       1 UNK         0.0000 
     22 C22        -0.8166   50.1285   23.1227 C.3       1 UNK         0.0000 
     23 C23        -1.8082   50.4637   24.2537 C.3       1 UNK         0.0000 
     24 C24         1.2125   52.8402   27.5712 C.2       1 UNK         0.0000 
     25 O25         1.2471   53.0147   28.7938 O.2       1 UNK         0.0000 
     26 C26         2.3884   53.3621   26.7474 C.ar      1 UNK         0.0000 
     27 C27         3.6150   53.6080   27.3918 C.ar      1 UNK         0.0000 
     28 C28         4.7203   54.1048   26.7029 C.ar      1 UNK         0.0000 
     29 C29         4.6255   54.3801   25.3349 C.ar      1 UNK         0.0000 
     30 C30         3.4091   54.1650   24.6745 C.ar      1 UNK         0.0000 
     31 C31         2.3043   53.6849   25.3821 C.ar      1 UNK         0.0000 
     32 Cl32        3.2380   54.4953   22.9849 Cl        1 UNK         0.0000 
     33 O33         5.7034   54.8978   24.6578 O.3       1 UNK         0.0000 
     34 C34         6.5644   53.9206   24.0870 C.3       1 UNK         0.0000 
     35 Cl35        6.1955   54.3797   27.5574 Cl        1 UNK         0.0000 
     36 H36        -8.3744   52.7662   25.7675 H         1 UNK         0.0000 
     37 H37        -8.9078   51.9723   27.2410 H         1 UNK         0.0000 
     38 H38        -7.8266   53.3507   27.3347 H         1 UNK         0.0000 
     39 H39        -8.0890   49.7314   26.4101 H         1 UNK         0.0000 
     40 H40        -6.3872   49.4278   26.2328 H         1 UNK         0.0000 
     41 H41        -7.4476   49.3015   24.0259 H         1 UNK         0.0000 
     42 H42        -8.1757   50.8721   24.2189 H         1 UNK         0.0000 
     43 H43        -5.1835   50.2776   23.9640 H         1 UNK         0.0000 
     44 H44        -6.1852   51.0914   22.7894 H         1 UNK         0.0000 
     45 H45        -4.8295   52.7221   24.1096 H         1 UNK         0.0000 
     46 H46        -6.5269   53.0060   24.3046 H         1 UNK         0.0000 
     47 H47        -4.4735   50.5492   26.8804 H         1 UNK         0.0000 
     48 H48        -1.3894   52.4260   28.4876 H         1 UNK         0.0000 
     49 H49        -0.5830   50.8920   28.4816 H         1 UNK         0.0000 
     50 H50         0.9413   51.3780   25.1290 H         1 UNK         0.0000 
     51 H51        -0.3941   52.5453   25.0354 H         1 UNK         0.0000 
     52 H52         0.0243   49.2417   26.8798 H         1 UNK         0.0000 
     53 H53        -1.2949   48.4870   26.0786 H         1 UNK         0.0000 
     54 H54         1.4320   49.3077   24.8320 H         1 UNK         0.0000 
     55 H55         0.7414   47.6958   25.0442 H         1 UNK         0.0000 
     56 H56         0.5650   48.5709   22.7730 H         1 UNK         0.0000 
     57 H57        -0.0231   50.8682   23.0037 H         1 UNK         0.0000 
     58 H58        -1.3113   49.9838   22.1608 H         1 UNK         0.0000 
     59 H59        -2.6125   49.7293   24.3184 H         1 UNK         0.0000 
     60 H60        -2.2977   51.3957   23.9641 H         1 UNK         0.0000 
     61 H61         3.7260   53.4030   28.4463 H         1 UNK         0.0000 
     62 H62         1.3823   53.6189   24.8321 H         1 UNK         0.0000 
     63 H63         7.3628   54.4185   23.5371 H         1 UNK         0.0000 
     64 H64         7.0302   53.2978   24.8557 H         1 UNK         0.0000 
     65 H65         6.0344   53.2755   23.3835 H         1 UNK         0.0000 
     66 H66        -0.8317   48.0636   23.4216 H         1 UNK         0.0000 
@<TRIPOS>BOND
     1    1    2 1    
     2    1   36 1    
     3    1   37 1    
     4    1   38 1    
     5    2    3 1    
     6    2    8 1    
     7    2    4 1    
     8    4    5 1    
     9    4   39 1    
    10    4   40 1    
    11    5    6 1    
    12    5   41 1    
    13    5   42 1    
    14    6    7 1    
    15    6   43 1    
    16    6   44 1    
    17    7    8 1    
    18    7   45 1    
    19    7   46 1    
    20    8    9 1    
    21    8   10 1    
    22   10   11 am   BACKBONE|DICT|INTERRES
    23   10   47 1    
    24   11   12 2    
    25   11   13 1    
    26   13   14 1    
    27   13   18 1    
    28   13   15 1    
    29   15   16 1    
    30   15   48 1    
    31   15   49 1    
    32   16   17 1    
    33   16   24 am   BACKBONE|DICT|INTERRES
    34   17   18 1    
    35   17   50 1    
    36   17   51 1    
    37   18   23 1    
    38   18   19 1    
    39   19   20 1    
    40   19   52 1    
    41   19   53 1    
    42   20   21 1    
    43   20   54 1    
    44   20   55 1    
    45   21   22 1    
    46   21   56 1    
    47   21   66 1    
    48   22   23 1    
    49   22   57 1    
    50   22   58 1    
    51   23   59 1    
    52   23   60 1    
    53   24   25 2    
    54   24   26 1    
    55   26   31 ar   
    56   26   27 ar   
    57   27   28 ar   
    58   27   61 1    
    59   28   29 ar   
    60   28   35 1    
    61   29   30 ar   
    62   29   33 1    
    63   30   31 ar   
    64   30   32 1    
    65   31   62 1    
    66   33   34 1    
    67   34   63 1    
    68   34   64 1    
    69   34   65 1    
@<TRIPOS>SUBSTRUCTURE
     1 UNK         1 GROUP             0       ****    0 ROOT    
