@<TRIPOS>MOLECULE
ZINC63209075_2219
64   67    1
SMALL
USER_CHARGES


@<TRIPOS>ATOM
      1 C1          6.1167   54.4976   28.2708 C.3       1 UNK         0.0000 
      2 C2          4.9554   54.1387   27.3626 C.ar      1 UNK         0.0000 
      3 C3          3.7035   53.5818   27.7606 C.ar      1 UNK         0.0000 
      4 C4          2.9766   53.2969   26.5999 C.ar      1 UNK         0.0000 
      5 N5          3.7513   53.7017   25.5490 N.pl3     1 UNK         0.0000 
      6 H6          3.4721   53.6173   24.5831 H         1 UNK         0.0000 
      7 C7          4.9421   54.2418   25.9634 C.ar      1 UNK         0.0000 
      8 C8          5.9462   54.7927   25.0722 C.2       1 UNK         0.0000 
      9 O9          6.7049   55.6882   25.4433 O.2       1 UNK         0.0000 
     10 N10         5.9254   54.3184   23.8110 N.am      1 UNK         0.0000 
     11 C11         6.7682   54.7964   22.7023 C.3       1 UNK         0.0000 
     12 C12         5.9842   55.0538   21.3825 C.3       1 UNK         0.0000 
     13 H13         5.2291   55.7617   21.6814 H         1 UNK         0.0000 
     14 C14         6.7880   55.7786   20.2858 C.ar      1 UNK         0.0000 
     15 C15         8.1568   55.5746   20.1073 C.ar      1 UNK         0.0000 
     16 C16         8.8528   56.2680   19.1210 C.ar      1 UNK         0.0000 
     17 C17         8.2210   57.2216   18.3095 C.ar      1 UNK         0.0000 
     18 C18         6.8483   57.4249   18.5002 C.ar      1 UNK         0.0000 
     19 C19         6.1505   56.7051   19.4627 C.ar      1 UNK         0.0000 
     20 N20         8.9523   57.9732   17.3483 N.pl3     1 UNK         0.0000 
     21 C21         8.2584   58.9073   16.4581 C.3       1 UNK         0.0000 
     22 C22        10.2861   57.5321   16.9365 C.3       1 UNK         0.0000 
     23 C23         5.0919   53.9094   20.8944 C.2       1 UNK         0.0000 
     24 C24         3.8962   53.4894   21.3578 C.2       1 UNK         0.0000 
     25 C25         3.0506   54.0057   22.4446 C.2       1 UNK         0.0000 
     26 C26         1.8832   53.4090   22.7567 C.2       1 UNK         0.0000 
     27 C27         1.4964   52.2251   22.0016 C.2       1 UNK         0.0000 
     28 C28         2.2547   51.7442   20.9823 C.2       1 UNK         0.0000 
     29 C29         3.4516   52.3806   20.6324 C.2       1 UNK         0.0000 
     30 N30         4.3007   52.0970   19.6819 N.pl3     1 UNK         0.0000 
     31 C31         5.3959   53.0685   19.6696 C.3       1 UNK         0.0000 
     32 C32         1.6248   52.6550   26.3398 C.3       1 UNK         0.0000 
     33 C33         3.2686   53.3360   29.1467 C.2       1 UNK         0.0000 
     34 O34         3.9042   53.7295   30.1196 O.2       1 UNK         0.0000 
     35 C35         1.9787   52.5702   29.4264 C.3       1 UNK         0.0000 
     36 H36         7.0312   54.7782   27.7496 H         1 UNK         0.0000 
     37 H37         5.8561   55.2958   28.9638 H         1 UNK         0.0000 
     38 H38         6.3820   53.6440   28.8917 H         1 UNK         0.0000 
     39 H39         5.4891   53.4207   23.6677 H         1 UNK         0.0000 
     40 H40         7.2819   55.7196   22.9815 H         1 UNK         0.0000 
     41 H41         7.5673   54.0758   22.5484 H         1 UNK         0.0000 
     42 H42         8.7052   54.8967   20.7370 H         1 UNK         0.0000 
     43 H43         9.9045   56.0668   19.0230 H         1 UNK         0.0000 
     44 H44         6.2974   58.1432   17.9117 H         1 UNK         0.0000 
     45 H45         5.1044   56.8958   19.5766 H         1 UNK         0.0000 
     46 H46         7.6019   58.3650   15.7761 H         1 UNK         0.0000 
     47 H47         7.6391   59.6096   17.0190 H         1 UNK         0.0000 
     48 H48         8.9564   59.4927   15.8586 H         1 UNK         0.0000 
     49 H49        10.9664   57.4774   17.7871 H         1 UNK         0.0000 
     50 H50        10.2324   56.5369   16.4921 H         1 UNK         0.0000 
     51 H51        10.7316   58.2012   16.1987 H         1 UNK         0.0000 
     52 H52         3.3162   54.9057   22.9797 H         1 UNK         0.0000 
     53 H53         1.2328   53.8201   23.5154 H         1 UNK         0.0000 
     54 H54         0.5791   51.7149   22.2589 H         1 UNK         0.0000 
     55 H55         1.9199   50.8657   20.4483 H         1 UNK         0.0000 
     56 H56         5.3407   53.6249   18.7328 H         1 UNK         0.0000 
     57 H57         6.3045   52.4840   19.6813 H         1 UNK         0.0000 
     58 H58         1.5057   51.7172   26.8823 H         1 UNK         0.0000 
     59 H59         0.7976   53.2970   26.6415 H         1 UNK         0.0000 
     60 H60         1.4705   52.3958   25.2935 H         1 UNK         0.0000 
     61 H61         2.0407   51.5600   29.0237 H         1 UNK         0.0000 
     62 H62         1.1261   53.0795   28.9796 H         1 UNK         0.0000 
     63 H63         1.8005   52.4954   30.5005 H         1 UNK         0.0000 
     64 H64         4.2556   51.3205   19.0116 H         1 UNK         0.0000 
@<TRIPOS>BOND
     1    1    2 1    
     2    1   36 1    
     3    1   37 1    
     4    1   38 1    
     5    2    7 ar   
     6    2    3 ar   
     7    3    4 ar   
     8    3   33 1    
     9    4    5 ar   
    10    4   32 1    
    11    5    6 1    
    12    5    7 ar   
    13    7    8 1    
    14    8    9 2    
    15    8   10 am   BACKBONE|DICT|INTERRES
    16   10   11 1    
    17   10   39 1    
    18   11   12 1    
    19   11   40 1    
    20   11   41 1    
    21   12   13 1    
    22   12   14 1    
    23   12   23 1    
    24   14   19 ar   
    25   14   15 ar   
    26   15   16 ar   
    27   15   42 1    
    28   16   17 ar   
    29   16   43 1    
    30   17   18 ar   
    31   17   20 1    
    32   18   19 ar   
    33   18   44 1    
    34   19   45 1    
    35   20   21 1    
    36   20   22 1    
    37   21   46 1    
    38   21   47 1    
    39   21   48 1    
    40   22   49 1    
    41   22   50 1    
    42   22   51 1    
    43   23   31 1    
    44   23   24 2    
    45   24   29 1    
    46   24   25 1    
    47   25   26 2    
    48   25   52 1    
    49   26   27 1    
    50   26   53 1    
    51   27   28 2    
    52   27   54 1    
    53   28   29 1    
    54   28   55 1    
    55   29   30 2    
    56   30   31 1    
    57   30   64 1    
    58   31   56 1    
    59   31   57 1    
    60   32   58 1    
    61   32   59 1    
    62   32   60 1    
    63   33   34 2    
    64   33   35 1    
    65   35   61 1    
    66   35   62 1    
    67   35   63 1    
@<TRIPOS>SUBSTRUCTURE
     1 UNK         1 GROUP             0       ****    0 ROOT    
