@<TRIPOS>MOLECULE
ZINC33058476_4492
51   54    1
SMALL
USER_CHARGES


@<TRIPOS>ATOM
      1 C1          0.7035   54.5532   28.7723 C.3       1 UNK         0.0000 
      2 C2          2.1693   54.3115   28.4577 C.ar      1 UNK         0.0000 
      3 C3          3.1233   54.7406   29.3807 C.ar      1 UNK         0.0000 
      4 C4          4.4781   54.5068   29.1625 C.ar      1 UNK         0.0000 
      5 C5          4.8899   53.8397   28.0152 C.ar      1 UNK         0.0000 
      6 C6          3.9427   53.4331   27.0780 C.ar      1 UNK         0.0000 
      7 C7          2.5742   53.6812   27.2691 C.ar      1 UNK         0.0000 
      8 N8          1.5965   53.2938   26.3282 N.pl3     1 UNK         0.0000 
      9 C9          1.6651   53.1418   24.9605 C.2       1 UNK         0.0000 
     10 C10         0.6675   52.6483   24.1206 C.2       1 UNK         0.0000 
     11 C11         1.1230   52.5228   22.7939 C.2       1 UNK         0.0000 
     12 C12         2.4380   52.9564   22.5795 C.2       1 UNK         0.0000 
     13 S13         3.0203   53.7016   24.0352 S.3       1 UNK         0.0000 
     14 C14         3.2583   52.8968   21.3513 C.2       1 UNK         0.0000 
     15 O15         2.8698   52.1930   20.4190 O.2       1 UNK         0.0000 
     16 C16         4.4311   53.8130   21.1421 C.ar      1 UNK         0.0000 
     17 C17         5.4425   53.9927   22.0994 C.ar      1 UNK         0.0000 
     18 C18         6.4734   54.8995   21.8723 C.ar      1 UNK         0.0000 
     19 C19         6.5258   55.5907   20.6658 C.ar      1 UNK         0.0000 
     20 C20         5.5833   55.3559   19.6699 C.ar      1 UNK         0.0000 
     21 C21         4.5428   54.4622   19.9045 C.ar      1 UNK         0.0000 
     22 F22         7.5055   56.4950   20.4541 F         1 UNK         0.0000 
     23 N23         0.3332   52.0432   21.7908 N.pl3     1 UNK         0.0000 
     24 S24        -1.0267   52.2467   24.6567 S.o2      1 UNK         0.0000 
     25 O25        -1.1143   52.4968   26.1008 O.2       1 UNK         0.0000 
     26 O26        -1.9240   52.9306   23.7164 O.2       1 UNK         0.0000 
     27 C27        -1.2435   50.4867   24.4154 C.ar      1 UNK         0.0000 
     28 C28        -0.8924   49.6008   25.4363 C.ar      1 UNK         0.0000 
     29 C29        -1.1427   48.2412   25.2802 C.ar      1 UNK         0.0000 
     30 C30        -1.7358   47.7727   24.1100 C.ar      1 UNK         0.0000 
     31 C31        -2.0700   48.6508   23.0824 C.ar      1 UNK         0.0000 
     32 C32        -1.8298   50.0110   23.2370 C.ar      1 UNK         0.0000 
     33 Cl33       -2.0953   46.0969   23.9386 Cl        1 UNK         0.0000 
     34 H34         0.5512   54.8999   29.7951 H         1 UNK         0.0000 
     35 H35         0.3053   55.2944   28.0816 H         1 UNK         0.0000 
     36 H36         0.1215   53.6372   28.6561 H         1 UNK         0.0000 
     37 H37         2.8072   55.2649   30.2681 H         1 UNK         0.0000 
     38 H38         5.2100   54.8585   29.8761 H         1 UNK         0.0000 
     39 H39         5.9388   53.6396   27.8493 H         1 UNK         0.0000 
     40 H40         4.2965   52.8972   26.2145 H         1 UNK         0.0000 
     41 H41         0.6795   53.1999   26.7479 H         1 UNK         0.0000 
     42 H42         5.4481   53.4408   23.0252 H         1 UNK         0.0000 
     43 H43         7.2394   55.0581   22.6200 H         1 UNK         0.0000 
     44 H44         5.6407   55.8833   18.7296 H         1 UNK         0.0000 
     45 H45         3.8003   54.3107   19.1320 H         1 UNK         0.0000 
     46 H46        -0.6490   51.8632   21.9231 H         1 UNK         0.0000 
     47 H47         0.7136   51.9368   20.8560 H         1 UNK         0.0000 
     48 H48        -0.4678   49.9569   26.3663 H         1 UNK         0.0000 
     49 H49        -0.8957   47.5660   26.0878 H         1 UNK         0.0000 
     50 H50        -2.5410   48.2826   22.1825 H         1 UNK         0.0000 
     51 H51        -2.1259   50.6892   22.4495 H         1 UNK         0.0000 
@<TRIPOS>BOND
     1    1    2 1    
     2    1   34 1    
     3    1   35 1    
     4    1   36 1    
     5    2    7 ar   
     6    2    3 ar   
     7    3    4 ar   
     8    3   37 1    
     9    4    5 ar   
    10    4   38 1    
    11    5    6 ar   
    12    5   39 1    
    13    6    7 ar   
    14    6   40 1    
    15    7    8 1    
    16    8    9 1    
    17    8   41 1    
    18    9   13 1    
    19    9   10 2    
    20   10   11 1    
    21   10   24 1    
    22   11   12 2    
    23   11   23 1    
    24   12   13 1    
    25   12   14 1    
    26   14   15 2    
    27   14   16 1    
    28   16   21 ar   
    29   16   17 ar   
    30   17   18 ar   
    31   17   42 1    
    32   18   19 ar   
    33   18   43 1    
    34   19   20 ar   
    35   19   22 1    
    36   20   21 ar   
    37   20   44 1    
    38   21   45 1    
    39   23   46 1    
    40   23   47 1    
    41   24   25 2    
    42   24   26 2    
    43   24   27 1    
    44   27   32 ar   
    45   27   28 ar   
    46   28   29 ar   
    47   28   48 1    
    48   29   30 ar   
    49   29   49 1    
    50   30   31 ar   
    51   30   33 1    
    52   31   32 ar   
    53   31   50 1    
    54   32   51 1    
@<TRIPOS>SUBSTRUCTURE
     1 UNK         1 GROUP             0       ****    0 ROOT    
