@<TRIPOS>MOLECULE
ZINC67263921_1415
55   56    1
SMALL
USER_CHARGES


@<TRIPOS>ATOM
      1 C1         -0.7311   52.7576   28.2688 C.3       1 UNK         0.0000 
      2 C2          0.7675   52.4504   28.3181 C.3       1 UNK         0.0000 
      3 C3          0.9880   51.3339   29.3554 C.3       1 UNK         0.0000 
      4 C4          1.1612   51.8466   26.9501 C.3       1 UNK         0.0000 
      5 C5          1.5453   53.7092   28.8547 C.2       1 UNK         0.0000 
      6 O6          1.1028   54.2413   29.8805 O.2       1 UNK         0.0000 
      7 N7          2.7241   54.1330   28.3256 N.am      1 UNK         0.0000 
      8 C8          3.6389   54.9430   29.1366 C.3       1 UNK         0.0000 
      9 C9          5.1014   54.4398   29.0568 C.3       1 UNK         0.0000 
     10 C10         5.9284   54.7106   27.7788 C.3       1 UNK         0.0000 
     11 N11         5.4512   54.1799   26.4818 N.am      1 UNK         0.0000 
     12 C12         4.1890   53.4180   26.4577 C.3       1 UNK         0.0000 
     13 C13         2.9695   54.2438   26.8905 C.3       1 UNK         0.0000 
     14 C14         6.1094   54.5668   25.3478 C.2       1 UNK         0.0000 
     15 O15         7.1036   55.2954   25.3939 O.2       1 UNK         0.0000 
     16 N16         5.5851   54.0969   24.1883 N.am      1 UNK         0.0000 
     17 C17         5.8244   54.4817   22.8571 C.ar      1 UNK         0.0000 
     18 C18         6.8861   55.2969   22.4507 C.ar      1 UNK         0.0000 
     19 C19         6.9912   55.7039   21.1278 C.ar      1 UNK         0.0000 
     20 C20         6.0099   55.3344   20.2037 C.ar      1 UNK         0.0000 
     21 C21         4.9891   54.4628   20.5837 C.ar      1 UNK         0.0000 
     22 C22         4.8991   54.0367   21.9081 C.ar      1 UNK         0.0000 
     23 N23         5.9950   55.8444   18.8987 N.am      1 UNK         0.0000 
     24 C24         6.3006   57.1520   18.5369 C.2       1 UNK         0.0000 
     25 O25         6.7059   58.0442   19.2882 O.2       1 UNK         0.0000 
     26 O26         6.0460   57.3138   17.2268 O.3       1 UNK         0.0000 
     27 C27         6.1359   58.6042   16.6327 C.3       1 UNK         0.0000 
     28 H28        -1.3083   51.9473   27.8192 H         1 UNK         0.0000 
     29 H29        -0.8982   53.6603   27.6819 H         1 UNK         0.0000 
     30 H30        -1.1214   52.8966   29.2794 H         1 UNK         0.0000 
     31 H31         1.9861   50.9008   29.2810 H         1 UNK         0.0000 
     32 H32         0.8563   51.6965   30.3789 H         1 UNK         0.0000 
     33 H33         0.2619   50.5338   29.2164 H         1 UNK         0.0000 
     34 H34         2.2309   51.6973   26.8826 H         1 UNK         0.0000 
     35 H35         0.7095   50.8624   26.8082 H         1 UNK         0.0000 
     36 H36         0.8209   52.4462   26.1060 H         1 UNK         0.0000 
     37 H37         3.5087   55.9914   28.8629 H         1 UNK         0.0000 
     38 H38         3.3703   54.8848   30.1904 H         1 UNK         0.0000 
     39 H39         5.6469   54.9252   29.8640 H         1 UNK         0.0000 
     40 H40         5.1346   53.3733   29.2816 H         1 UNK         0.0000 
     41 H41         5.9959   55.7886   27.6786 H         1 UNK         0.0000 
     42 H42         6.9510   54.3645   27.9407 H         1 UNK         0.0000 
     43 H43         4.3064   52.5902   27.1589 H         1 UNK         0.0000 
     44 H44         3.9780   52.9010   25.5221 H         1 UNK         0.0000 
     45 H45         2.1067   54.0064   26.2772 H         1 UNK         0.0000 
     46 H46         3.1449   55.2920   26.6404 H         1 UNK         0.0000 
     47 H47         4.8036   53.4710   24.2972 H         1 UNK         0.0000 
     48 H48         7.6191   55.6669   23.1427 H         1 UNK         0.0000 
     49 H49         7.8133   56.3413   20.8391 H         1 UNK         0.0000 
     50 H50         4.2335   54.1544   19.8742 H         1 UNK         0.0000 
     51 H51         4.0759   53.3983   22.1951 H         1 UNK         0.0000 
     52 H52         5.5791   55.2699   18.1812 H         1 UNK         0.0000 
     53 H53         5.9135   58.5400   15.5679 H         1 UNK         0.0000 
     54 H54         5.4223   59.2963   17.0846 H         1 UNK         0.0000 
     55 H55         7.1368   59.0245   16.7457 H         1 UNK         0.0000 
@<TRIPOS>BOND
     1    1    2 1    
     2    1   28 1    
     3    1   29 1    
     4    1   30 1    
     5    2    3 1    
     6    2    4 1    
     7    2    5 1    
     8    3   31 1    
     9    3   32 1    
    10    3   33 1    
    11    4   34 1    
    12    4   35 1    
    13    4   36 1    
    14    5    6 2    
    15    5    7 am   BACKBONE|DICT|INTERRES
    16    7   13 1    
    17    7    8 1    
    18    8    9 1    
    19    8   37 1    
    20    8   38 1    
    21    9   10 1    
    22    9   39 1    
    23    9   40 1    
    24   10   11 1    
    25   10   41 1    
    26   10   42 1    
    27   11   12 1    
    28   11   14 am   BACKBONE|DICT|INTERRES
    29   12   13 1    
    30   12   43 1    
    31   12   44 1    
    32   13   45 1    
    33   13   46 1    
    34   14   15 2    
    35   14   16 am   BACKBONE|DICT|INTERRES
    36   16   17 1    
    37   16   47 1    
    38   17   22 ar   
    39   17   18 ar   
    40   18   19 ar   
    41   18   48 1    
    42   19   20 ar   
    43   19   49 1    
    44   20   21 ar   
    45   20   23 1    
    46   21   22 ar   
    47   21   50 1    
    48   22   51 1    
    49   23   24 am   BACKBONE|DICT|INTERRES
    50   23   52 1    
    51   24   25 2    
    52   24   26 1    
    53   26   27 1    
    54   27   53 1    
    55   27   54 1    
    56   27   55 1    
@<TRIPOS>SUBSTRUCTURE
     1 UNK         1 GROUP             0       ****    0 ROOT    
