@<TRIPOS>MOLECULE
ZINC36231999_1673
41   42    1
SMALL
USER_CHARGES


@<TRIPOS>ATOM
      1 C1          0.5433   55.1527   30.8838 C.3       1 UNK         0.0000 
      2 C2          1.4368   54.2389   30.0331 C.3       1 UNK         0.0000 
      3 C3          0.9485   54.3358   28.5658 C.3       1 UNK         0.0000 
      4 N4          1.8446   53.6241   27.6428 N.pl3     1 UNK         0.0000 
      5 C5          3.1869   54.2262   27.7262 C.3       1 UNK         0.0000 
      6 C6          3.7106   54.2487   29.1822 C.3       1 UNK         0.0000 
      7 O7          2.7476   54.8071   30.0780 O.3       1 UNK         0.0000 
      8 C8          1.3305   52.8755   26.5848 C.ar      1 UNK         0.0000 
      9 C9          0.3048   51.9665   26.8931 C.ar      1 UNK         0.0000 
     10 C10        -0.2366   51.1188   25.9339 C.ar      1 UNK         0.0000 
     11 C11         0.2484   51.1516   24.6286 C.ar      1 UNK         0.0000 
     12 C12         1.2347   52.0787   24.2821 C.ar      1 UNK         0.0000 
     13 C13         1.7748   52.9411   25.2409 C.ar      1 UNK         0.0000 
     14 N14         2.7356   53.8550   24.7939 N.pl3     1 UNK         0.0000 
     15 S15        -0.3863   49.9949   23.4188 S.o2      1 UNK         0.0000 
     16 O16        -1.8376   50.1992   23.3524 O.2       1 UNK         0.0000 
     17 O17         0.4444   50.1141   22.2160 O.2       1 UNK         0.0000 
     18 N18        -0.0945   48.3947   24.0964 N.pl3     1 UNK         0.0000 
     19 C19        -0.8771   47.9310   25.2612 C.3       1 UNK         0.0000 
     20 C20         1.4271   52.7761   30.5422 C.3       1 UNK         0.0000 
     21 H21        -0.4967   54.8965   30.7174 H         1 UNK         0.0000 
     22 H22         0.6847   56.2043   30.6290 H         1 UNK         0.0000 
     23 H23         0.7045   55.0379   31.9539 H         1 UNK         0.0000 
     24 H24        -0.0821   53.9870   28.4984 H         1 UNK         0.0000 
     25 H25         0.9267   55.3795   28.2467 H         1 UNK         0.0000 
     26 H26         3.8870   53.6234   27.1461 H         1 UNK         0.0000 
     27 H27         3.1795   55.2292   27.2976 H         1 UNK         0.0000 
     28 H28         3.9719   53.2362   29.4926 H         1 UNK         0.0000 
     29 H29         4.6253   54.8413   29.2384 H         1 UNK         0.0000 
     30 H30        -0.0626   51.8746   27.9044 H         1 UNK         0.0000 
     31 H31        -1.0145   50.4276   26.2218 H         1 UNK         0.0000 
     32 H32         1.5909   52.1199   23.2632 H         1 UNK         0.0000 
     33 H33         3.0084   53.8668   23.8212 H         1 UNK         0.0000 
     34 H34         3.1388   54.5010   25.4557 H         1 UNK         0.0000 
     35 H35         0.8871   48.0988   24.0869 H         1 UNK         0.0000 
     36 H36        -0.9007   46.8424   25.2793 H         1 UNK         0.0000 
     37 H37        -0.3927   48.2656   26.1802 H         1 UNK         0.0000 
     38 H38        -1.8918   48.3299   25.2325 H         1 UNK         0.0000 
     39 H39         0.4130   52.3775   30.5798 H         1 UNK         0.0000 
     40 H40         2.0125   52.1082   29.9129 H         1 UNK         0.0000 
     41 H41         1.8364   52.7082   31.5495 H         1 UNK         0.0000 
@<TRIPOS>BOND
     1    1    2 1    
     2    1   21 1    
     3    1   22 1    
     4    1   23 1    
     5    2    7 1    
     6    2    3 1    
     7    2   20 1    
     8    3    4 1    
     9    3   24 1    
    10    3   25 1    
    11    4    5 1    
    12    4    8 1    
    13    5    6 1    
    14    5   26 1    
    15    5   27 1    
    16    6    7 1    
    17    6   28 1    
    18    6   29 1    
    19    8   13 ar   
    20    8    9 ar   
    21    9   10 ar   
    22    9   30 1    
    23   10   11 ar   
    24   10   31 1    
    25   11   12 ar   
    26   11   15 1    
    27   12   13 ar   
    28   12   32 1    
    29   13   14 1    
    30   14   33 1    
    31   14   34 1    
    32   15   16 2    
    33   15   17 2    
    34   15   18 1    
    35   18   19 1    
    36   18   35 1    
    37   19   36 1    
    38   19   37 1    
    39   19   38 1    
    40   20   39 1    
    41   20   40 1    
    42   20   41 1    
@<TRIPOS>SUBSTRUCTURE
     1 UNK         1 GROUP             0       ****    0 ROOT    
