ZINC62007073_3794
                    3D
 Schrodinger Suite 2024-2.
 43 45  0  0  1  0            999 V2000
    5.6645   54.4076   19.7746 C   0  0  0  0  0  0
    5.5047   54.3652   21.2860 C   0  0  0  0  0  0
    4.3998   53.7410   21.8539 C   0  0  0  0  0  0
    4.2682   53.6968   23.2383 C   0  0  0  0  0  0
    5.2218   54.2913   24.0807 C   0  0  0  0  0  0
    6.3422   54.8901   23.4893 C   0  0  0  0  0  0
    6.4888   54.9141   22.1057 C   0  0  0  0  0  0
    5.0517   54.3098   25.5856 C   0  0  0  0  0  0
    3.8330   54.2408   26.3028 C   0  0  0  0  0  0
    4.0272   54.3828   27.6712 C   0  0  0  0  0  0
    5.7177   54.4891   27.9911 S   0  0  0  0  0  0
    6.1379   54.4308   26.3356 N   0  0  0  0  0  0
    3.0653   54.4186   28.7458 C   0  0  0  0  0  0
    2.8225   55.5000   29.2819 O   0  0  0  0  0  0
    2.4355   53.2536   29.0801 N   0  0  0  0  0  0
    1.3030   53.2809   30.0218 C   0  0  0  0  0  0
   -0.0587   53.4919   29.3250 C   0  0  0  0  0  0
   -0.6069   52.2365   28.6103 C   0  0  0  0  0  0
    0.3438   51.5538   27.6143 C   0  0  0  0  0  0
    1.6023   50.9674   28.2711 C   0  0  0  0  0  0
    2.7731   51.9505   28.4735 C   0  0  0  0  0  0
    2.5915   54.0916   25.7507 N   0  0  0  0  0  0
    5.2216   53.5244   19.3106 H   0  0  0  0  0  0
    5.1814   55.2953   19.3626 H   0  0  0  0  0  0
    6.7177   54.4162   19.4903 H   0  0  0  0  0  0
    3.6447   53.2871   21.2275 H   0  0  0  0  0  0
    3.4193   53.1668   23.6315 H   0  0  0  0  0  0
    7.1073   55.3491   24.0961 H   0  0  0  0  0  0
    7.3665   55.3798   21.6767 H   0  0  0  0  0  0
    1.3341   52.4125   30.6779 H   0  0  0  0  0  0
    1.4377   54.1036   30.7256 H   0  0  0  0  0  0
    0.0067   54.3280   28.6257 H   0  0  0  0  0  0
   -0.7868   53.7857   30.0779 H   0  0  0  0  0  0
   -1.5121   52.4950   28.0633 H   0  0  0  0  0  0
   -0.9171   51.5065   29.3618 H   0  0  0  0  0  0
   -0.2059   50.7400   27.1333 H   0  0  0  0  0  0
    0.6193   52.2425   26.8110 H   0  0  0  0  0  0
    1.3386   50.5598   29.2445 H   0  0  0  0  0  0
    1.9193   50.1046   27.6822 H   0  0  0  0  0  0
    3.4788   51.4583   29.1444 H   0  0  0  0  0  0
    3.2492   52.0968   27.5083 H   0  0  0  0  0  0
    2.4497   54.0848   24.7514 H   0  0  0  0  0  0
    1.7660   54.0351   26.3275 H   0  0  0  0  0  0
  1  2  1  0  0  0
  1 23  1  0  0  0
  1 24  1  0  0  0
  1 25  1  0  0  0
  2  7  2  0  0  0
  2  3  1  0  0  0
  3  4  2  0  0  0
  3 26  1  0  0  0
  4  5  1  0  0  0
  4 27  1  0  0  0
  5  6  2  0  0  0
  5  8  1  0  0  0
  6  7  1  0  0  0
  6 28  1  0  0  0
  7 29  1  0  0  0
  8 12  2  0  0  0
  8  9  1  0  0  0
  9 10  2  0  0  0
  9 22  1  0  0  0
 10 11  1  0  0  0
 10 13  1  0  0  0
 11 12  1  0  0  0
 13 14  2  0  0  0
 13 15  1  0  0  0
 15 21  1  0  0  0
 15 16  1  0  0  0
 16 17  1  0  0  0
 16 30  1  0  0  0
 16 31  1  0  0  0
 17 18  1  0  0  0
 17 32  1  0  0  0
 17 33  1  0  0  0
 18 19  1  0  0  0
 18 34  1  0  0  0
 18 35  1  0  0  0
 19 20  1  0  0  0
 19 36  1  0  0  0
 19 37  1  0  0  0
 20 21  1  0  0  0
 20 38  1  0  0  0
 20 39  1  0  0  0
 21 40  1  0  0  0
 21 41  1  0  0  0
 22 42  1  0  0  0
 22 43  1  0  0  0
M  END
> <i_i_glide_confnum>
51

> <i_i_glide_lignum>
3795

> <i_i_glide_posenum>
32

> <i_i_glide_rotatable_bonds>
3

> <i_m_Source_File_Index>
1308

> <b_m_subgroup_collapsed>
0

> <r_i_docking_score>
-6.2455

> <r_i_glide_ecoul>
-1.57156

> <r_i_glide_eff_state_penalty>
0

> <r_i_glide_einternal>
3.10699

> <r_i_glide_emodel>
-49.8636

> <r_i_glide_energy>
-36.7347

> <r_i_glide_erotb>
0.560888

> <r_i_glide_esite>
0

> <r_i_glide_evdw>
-35.1631

> <r_i_glide_gscore>
-6.2455

> <r_i_glide_hbond>
0

> <r_i_glide_ligand_efficiency>
-0.283887

> <r_i_glide_ligand_efficiency_ln>
-1.52663

> <r_i_glide_ligand_efficiency_sa>
-0.795461

> <r_i_glide_lipo>
-2.91895

> <r_i_glide_metal>
0

> <r_i_glide_rewards>
-1.89355

> <s_i_glide_gridfile>
wee1_glide-grid

> <s_m_Source_File>
wee1_decoys_glide_SP.sdf

> <s_m_Source_Path>
/Users/zhangxujun/Desktop

> <s_m_entry_id>
1583

> <s_m_entry_name>
wee1_decoys_glide_SP.1308

> <s_m_subgroup_title>
wee1_decoys_glide_SP

> <s_m_subgroupid>
wee1_decoys_glide_SP


$$$$
