ZINC08566471_5068
                    3D
 Schrodinger Suite 2024-2.
 56 60  0  0  1  0            999 V2000
    3.7393   54.0874   21.3843 C   0  0  0  0  0  0
    2.9797   52.8970   21.2199 O   0  0  0  0  0  0
    2.3258   52.3519   22.3094 C   0  0  0  0  0  0
    2.1936   53.0112   23.5426 C   0  0  0  0  0  0
    1.6004   52.3894   24.6473 C   0  0  0  0  0  0
    1.1023   51.0924   24.4816 C   0  0  0  0  0  0
    1.1853   50.4423   23.2557 C   0  0  0  0  0  0
    1.7817   51.0699   22.1540 C   0  0  0  0  0  0
    1.8882   50.4844   20.9047 O   0  0  0  0  0  0
    1.1169   49.3308   20.5644 C   0  0  0  0  0  0
   -0.3878   49.6186   20.5723 C   0  0  0  0  0  0
   -1.2292   48.8375   21.3748 C   0  0  0  0  0  0
   -2.6006   49.0834   21.4142 C   0  0  0  0  0  0
   -3.1481   50.1059   20.6430 C   0  0  0  0  0  0
   -2.3226   50.8834   19.8326 C   0  0  0  0  0  0
   -0.9473   50.6460   19.7919 C   0  0  0  0  0  0
    0.0221   51.6402   18.7611 Cl  0  0  0  0  0  0
    1.5256   53.1361   25.9943 C   0  0  1  0  0  0
    1.1125   54.0939   25.6898 H   0  0  0  0  0  0
    0.6063   52.5601   27.0995 C   0  0  0  0  0  0
   -0.7054   52.0062   27.1993 C   0  0  0  0  0  0
   -0.9963   51.6752   28.4506 N   0  0  0  0  0  0
    0.0903   51.9335   29.1726 N   0  0  0  0  0  0
    0.1429   51.7563   30.1658 H   0  0  0  0  0  0
    1.0792   52.4398   28.3946 C   0  0  0  0  0  0
    2.3096   52.7672   28.8969 O   0  0  0  0  0  0
    3.1526   53.2927   27.9674 C   0  0  0  0  0  0
    2.8929   53.4852   26.6471 C   0  0  0  0  0  0
    3.9125   54.0916   25.8494 C   0  0  0  0  0  0
    4.7601   54.5977   25.2451 N   0  0  0  0  0  0
    4.3271   53.5759   28.6111 N   0  0  0  0  0  0
   -1.7230   51.7408   26.1238 C   0  0  0  0  0  0
   -1.7368   52.5003   24.9510 C   0  0  0  0  0  0
   -2.6726   52.2529   23.9504 C   0  0  0  0  0  0
   -3.6094   51.2373   24.1227 C   0  0  0  0  0  0
   -3.6102   50.4663   25.2819 C   0  0  0  0  0  0
   -2.6700   50.7179   26.2779 C   0  0  0  0  0  0
    4.2058   54.3521   20.4356 H   0  0  0  0  0  0
    3.1100   54.9222   21.6861 H   0  0  0  0  0  0
    4.5326   53.9553   22.1210 H   0  0  0  0  0  0
    2.5693   54.0146   23.6565 H   0  0  0  0  0  0
    0.6602   50.5609   25.3105 H   0  0  0  0  0  0
    0.7957   49.4394   23.1884 H   0  0  0  0  0  0
    1.4033   49.0247   19.5575 H   0  0  0  0  0  0
    1.3812   48.4971   21.2148 H   0  0  0  0  0  0
   -0.8238   48.0406   21.9814 H   0  0  0  0  0  0
   -3.2385   48.4821   22.0451 H   0  0  0  0  0  0
   -4.2113   50.2932   20.6718 H   0  0  0  0  0  0
   -2.7500   51.6685   19.2284 H   0  0  0  0  0  0
    5.0855   54.0180   28.1110 H   0  0  0  0  0  0
    4.5609   53.0933   29.4649 H   0  0  0  0  0  0
   -1.0218   53.2972   24.8154 H   0  0  0  0  0  0
   -2.6715   52.8452   23.0475 H   0  0  0  0  0  0
   -4.3398   51.0431   23.3508 H   0  0  0  0  0  0
   -4.3329   49.6741   25.4101 H   0  0  0  0  0  0
   -2.6700   50.1004   27.1664 H   0  0  0  0  0  0
  1  2  1  0  0  0
  1 38  1  0  0  0
  1 39  1  0  0  0
  1 40  1  0  0  0
  2  3  1  0  0  0
  3  8  2  0  0  0
  3  4  1  0  0  0
  4  5  2  0  0  0
  4 41  1  0  0  0
  5  6  1  0  0  0
  5 18  1  0  0  0
  6  7  2  0  0  0
  6 42  1  0  0  0
  7  8  1  0  0  0
  7 43  1  0  0  0
  8  9  1  0  0  0
  9 10  1  0  0  0
 10 11  1  0  0  0
 10 44  1  0  0  0
 10 45  1  0  0  0
 11 16  2  0  0  0
 11 12  1  0  0  0
 12 13  2  0  0  0
 12 46  1  0  0  0
 13 14  1  0  0  0
 13 47  1  0  0  0
 14 15  2  0  0  0
 14 48  1  0  0  0
 15 16  1  0  0  0
 15 49  1  0  0  0
 16 17  1  0  0  0
 18 19  1  0  0  0
 18 28  1  0  0  0
 18 20  1  0  0  0
 20 25  2  0  0  0
 20 21  1  0  0  0
 21 22  2  0  0  0
 21 32  1  0  0  0
 22 23  1  0  0  0
 23 24  1  0  0  0
 23 25  1  0  0  0
 25 26  1  0  0  0
 26 27  1  0  0  0
 27 28  2  0  0  0
 27 31  1  0  0  0
 28 29  1  0  0  0
 29 30  3  0  0  0
 31 50  1  0  0  0
 31 51  1  0  0  0
 32 37  2  0  0  0
 32 33  1  0  0  0
 33 34  2  0  0  0
 33 52  1  0  0  0
 34 35  1  0  0  0
 34 53  1  0  0  0
 35 36  2  0  0  0
 35 54  1  0  0  0
 36 37  1  0  0  0
 36 55  1  0  0  0
 37 56  1  0  0  0
M  END
> <i_i_glide_confnum>
12

> <i_i_glide_lignum>
5069

> <i_i_glide_posenum>
92

> <i_i_glide_rotatable_bonds>
7

> <i_m_Source_File_Index>
221

> <b_m_subgroup_collapsed>
0

> <r_i_docking_score>
-3.13919

> <r_i_glide_ecoul>
1.04022

> <r_i_glide_eff_state_penalty>
0

> <r_i_glide_einternal>
8.15908

> <r_i_glide_emodel>
-40.9685

> <r_i_glide_energy>
-36.0975

> <r_i_glide_erotb>
0.431865

> <r_i_glide_esite>
0

> <r_i_glide_evdw>
-37.1377

> <r_i_glide_gscore>
-3.13919

> <r_i_glide_hbond>
0

> <r_i_glide_ligand_efficiency>
-0.0896912

> <r_i_glide_ligand_efficiency_ln>
-0.689122

> <r_i_glide_ligand_efficiency_sa>
-0.293386

> <r_i_glide_lipo>
-1.45912

> <r_i_glide_metal>
0

> <r_i_glide_rewards>
-0.411086

> <s_i_glide_gridfile>
wee1_glide-grid

> <s_m_Source_File>
wee1_decoys_glide_SP.sdf

> <s_m_Source_Path>
/Users/zhangxujun/Desktop

> <s_m_entry_id>
496

> <s_m_entry_name>
wee1_decoys_glide_SP.221

> <s_m_subgroup_title>
wee1_decoys_glide_SP

> <s_m_subgroupid>
wee1_decoys_glide_SP


$$$$
