ZINC03320340_1874
                    3D
 Schrodinger Suite 2024-2.
 40 41  0  0  1  0            999 V2000
   -2.5047   47.8312   22.4102 C   0  0  0  0  0  0
   -1.6678   48.8943   23.0946 C   0  0  0  0  0  0
   -0.4569   48.5484   23.7017 C   0  0  0  0  0  0
    0.3090   49.5225   24.3373 C   0  0  0  0  0  0
   -0.1319   50.8517   24.3843 C   0  0  0  0  0  0
   -1.3618   51.2028   23.7903 C   0  0  0  0  0  0
   -2.1160   50.2166   23.1468 C   0  0  0  0  0  0
   -1.9018   52.6251   23.8534 C   0  0  0  0  0  0
    0.6450   51.7935   25.1008 N   0  0  0  0  0  0
    0.6170   51.8797   26.4744 C   0  0  0  0  0  0
    1.3871   52.8535   27.0251 C   0  0  0  0  0  0
    2.2814   53.6360   25.7136 S   0  0  0  0  0  0
    1.5052   52.6654   24.4905 C   0  0  0  0  0  0
    1.8917   52.8962   22.8828 S   0  0  0  0  0  0
    1.5975   53.2403   28.4068 C   0  0  0  0  0  0
    2.5822   53.8883   28.7590 O   0  0  0  0  0  0
    0.6437   52.8354   29.2662 N   0  0  0  0  0  0
    0.6102   53.0081   30.7186 C   0  0  0  0  0  0
    1.8291   52.3703   31.4072 C   0  0  0  0  0  0
    0.4050   54.4750   31.1371 C   0  0  0  0  0  0
   -0.1567   50.9778   27.1839 N   0  0  0  0  0  0
   -3.5672   48.0799   22.4570 H   0  0  0  0  0  0
   -2.2116   47.7302   21.3633 H   0  0  0  0  0  0
   -2.3882   46.8652   22.9031 H   0  0  0  0  0  0
   -0.1019   47.5314   23.6847 H   0  0  0  0  0  0
    1.2385   49.2316   24.8081 H   0  0  0  0  0  0
   -3.0585   50.4736   22.6869 H   0  0  0  0  0  0
   -2.9187   52.7053   23.4656 H   0  0  0  0  0  0
   -1.9106   52.9794   24.8873 H   0  0  0  0  0  0
   -1.2616   53.2962   23.2832 H   0  0  0  0  0  0
   -0.1727   52.4120   28.8539 H   0  0  0  0  0  0
   -0.2655   52.4533   31.0628 H   0  0  0  0  0  0
    1.7426   52.4790   32.4817 H   0  0  0  0  0  0
    2.7681   52.8465   31.1237 H   0  0  0  0  0  0
    1.9039   51.3068   31.2001 H   0  0  0  0  0  0
    0.3064   54.5580   32.2200 H   0  0  0  0  0  0
    1.2534   55.0987   30.8510 H   0  0  0  0  0  0
   -0.4924   54.8963   30.6959 H   0  0  0  0  0  0
   -0.0513   50.8584   28.1810 H   0  0  0  0  0  0
   -0.6967   50.2641   26.7106 H   0  0  0  0  0  0
  1  2  1  0  0  0
  1 22  1  0  0  0
  1 23  1  0  0  0
  1 24  1  0  0  0
  2  7  2  0  0  0
  2  3  1  0  0  0
  3  4  2  0  0  0
  3 25  1  0  0  0
  4  5  1  0  0  0
  4 26  1  0  0  0
  5  6  2  0  0  0
  5  9  1  0  0  0
  6  7  1  0  0  0
  6  8  1  0  0  0
  7 27  1  0  0  0
  8 28  1  0  0  0
  8 29  1  0  0  0
  8 30  1  0  0  0
  9 13  1  0  0  0
  9 10  1  0  0  0
 10 11  2  0  0  0
 10 21  1  0  0  0
 11 12  1  0  0  0
 11 15  1  0  0  0
 12 13  1  0  0  0
 13 14  2  0  0  0
 15 16  2  0  0  0
 15 17  1  0  0  0
 17 18  1  0  0  0
 17 31  1  0  0  0
 18 19  1  0  0  0
 18 20  1  0  0  0
 18 32  1  0  0  0
 19 33  1  0  0  0
 19 34  1  0  0  0
 19 35  1  0  0  0
 20 36  1  0  0  0
 20 37  1  0  0  0
 20 38  1  0  0  0
 21 39  1  0  0  0
 21 40  1  0  0  0
M  END
> <i_i_glide_confnum>
11

> <i_i_glide_lignum>
1875

> <i_i_glide_posenum>
213

> <i_i_glide_rotatable_bonds>
4

> <i_m_Source_File_Index>
5942

> <b_m_subgroup_collapsed>
0

> <r_i_docking_score>
-4.02861

> <r_i_glide_ecoul>
-1.56596

> <r_i_glide_eff_state_penalty>
0

> <r_i_glide_einternal>
0.253938

> <r_i_glide_emodel>
-41.7696

> <r_i_glide_energy>
-33.2526

> <r_i_glide_erotb>
0.542497

> <r_i_glide_esite>
-0.0654947

> <r_i_glide_evdw>
-31.6867

> <r_i_glide_gscore>
-4.02861

> <r_i_glide_hbond>
0

> <r_i_glide_ligand_efficiency>
-0.191839

> <r_i_glide_ligand_efficiency_ln>
-0.996067

> <r_i_glide_ligand_efficiency_sa>
-0.529269

> <r_i_glide_lipo>
-0.958562

> <r_i_glide_metal>
0

> <r_i_glide_rewards>
-1.72783

> <s_i_glide_gridfile>
wee1_glide-grid

> <s_m_Source_File>
wee1_decoys_glide_SP.sdf

> <s_m_Source_Path>
/Users/zhangxujun/Desktop

> <s_m_entry_id>
6217

> <s_m_entry_name>
wee1_decoys_glide_SP.5942

> <s_m_subgroup_title>
wee1_decoys_glide_SP

> <s_m_subgroupid>
wee1_decoys_glide_SP


$$$$
