@<TRIPOS>MOLECULE
ZINC38740791_4858
75   79    1
SMALL
USER_CHARGES


@<TRIPOS>ATOM
      1 C1          0.4092   54.4651   31.1062 C.ar      1 UNK         0.0000 
      2 C2          0.3884   53.0840   30.9499 C.ar      1 UNK         0.0000 
      3 C3          1.0020   52.5086   29.8464 C.ar      1 UNK         0.0000 
      4 C4          1.6191   53.3152   28.8869 C.ar      1 UNK         0.0000 
      5 C5          1.6439   54.7060   29.0575 C.ar      1 UNK         0.0000 
      6 C6          1.0587   55.2803   30.1792 C.ar      1 UNK         0.0000 
      7 C7          2.2468   52.6569   27.6585 C.3       1 UNK         0.0000 
      8 C8          1.1852   52.3658   26.5549 C.3       1 UNK         0.0000 
      9 C9          0.0767   51.3674   26.9809 C.3       1 UNK         0.0000 
     10 N10        -0.7385   50.8762   25.8702 N.am      1 UNK         0.0000 
     11 C11        -0.3732   49.8725   25.0560 C.2       1 UNK         0.0000 
     12 O12         0.7068   49.2964   25.1573 O.2       1 UNK         0.0000 
     13 C13        -1.3504   49.4906   23.9137 C.3       1 UNK         0.0000 
     14 H14        -2.2742   50.0515   24.0731 H         1 UNK         0.0000 
     15 C15        -1.6494   47.9634   24.0371 C.3       1 UNK         0.0000 
     16 C16        -2.2441   47.3969   22.7539 C.2       1 UNK         0.0000 
     17 C17        -2.2502   48.0364   21.5710 C.2       1 UNK         0.0000 
     18 C18        -1.6073   49.3909   21.3199 C.3       1 UNK         0.0000 
     19 C19        -0.7123   49.8299   22.5143 C.3       1 UNK         0.0000 
     20 H20         0.2466   49.3139   22.4543 H         1 UNK         0.0000 
     21 C21        -0.4238   51.3557   22.3739 C.2       1 UNK         0.0000 
     22 O22        -1.2712   52.1437   22.8035 O.2       1 UNK         0.0000 
     23 N23         0.8103   51.7705   21.9870 N.am      1 UNK         0.0000 
     24 C24         1.6480   51.0189   21.0290 C.3       1 UNK         0.0000 
     25 C25         3.1208   51.0847   21.4937 C.3       1 UNK         0.0000 
     26 N26         3.5527   52.4859   21.7026 N.pl3     1 UNK         0.0000 
     27 C27         2.6902   53.1347   22.7098 C.3       1 UNK         0.0000 
     28 C28         1.2242   53.1607   22.2383 C.3       1 UNK         0.0000 
     29 C29         4.4645   53.2092   20.8637 C.ar      1 UNK         0.0000 
     30 C30         5.0199   54.4428   21.2444 C.ar      1 UNK         0.0000 
     31 C31         5.9055   55.1092   20.3926 C.ar      1 UNK         0.0000 
     32 C32         6.2467   54.5334   19.1675 C.ar      1 UNK         0.0000 
     33 C33         5.7006   53.2969   18.8254 C.ar      1 UNK         0.0000 
     34 N34         4.8551   52.6850   19.6817 N.pl3     1 UNK         0.0000 
     35 C35         3.5257   53.3737   27.1897 C.ar      1 UNK         0.0000 
     36 C36         4.6705   53.2980   27.9943 C.ar      1 UNK         0.0000 
     37 C37         5.8481   53.9362   27.6105 C.ar      1 UNK         0.0000 
     38 C38         5.8838   54.6452   26.4133 C.ar      1 UNK         0.0000 
     39 C39         4.7517   54.7344   25.6081 C.ar      1 UNK         0.0000 
     40 C40         3.5721   54.1075   25.9984 C.ar      1 UNK         0.0000 
     41 H41        -0.0572   54.8960   31.9768 H         1 UNK         0.0000 
     42 H42        -0.0961   52.4578   31.6837 H         1 UNK         0.0000 
     43 H43         0.9773   51.4356   29.7272 H         1 UNK         0.0000 
     44 H44         2.1183   55.3434   28.3264 H         1 UNK         0.0000 
     45 H45         1.0850   56.3511   30.3180 H         1 UNK         0.0000 
     46 H46         2.6086   51.6773   27.9801 H         1 UNK         0.0000 
     47 H47         0.7092   53.2945   26.2408 H         1 UNK         0.0000 
     48 H48         1.6825   51.9821   25.6663 H         1 UNK         0.0000 
     49 H49         0.5236   50.5137   27.4963 H         1 UNK         0.0000 
     50 H50        -0.5790   51.8204   27.7248 H         1 UNK         0.0000 
     51 H51        -1.6345   51.3184   25.7279 H         1 UNK         0.0000 
     52 H52        -0.7313   47.3913   24.1879 H         1 UNK         0.0000 
     53 H53        -2.2746   47.7579   24.9098 H         1 UNK         0.0000 
     54 H54        -2.7163   46.4262   22.7965 H         1 UNK         0.0000 
     55 H55        -2.7272   47.5401   20.7389 H         1 UNK         0.0000 
     56 H56        -2.4488   50.0776   21.2026 H         1 UNK         0.0000 
     57 H57        -1.0581   49.4207   20.3772 H         1 UNK         0.0000 
     58 H58         1.3317   49.9948   20.8195 H         1 UNK         0.0000 
     59 H59         1.5749   51.5653   20.0864 H         1 UNK         0.0000 
     60 H60         3.7720   50.5854   20.7782 H         1 UNK         0.0000 
     61 H61         3.2390   50.5469   22.4371 H         1 UNK         0.0000 
     62 H62         3.0158   54.1488   22.9275 H         1 UNK         0.0000 
     63 H63         2.7865   52.5764   23.6410 H         1 UNK         0.0000 
     64 H64         1.1608   53.6734   21.2817 H         1 UNK         0.0000 
     65 H65         0.6057   53.6962   22.9639 H         1 UNK         0.0000 
     66 H66         4.7872   54.8948   22.1945 H         1 UNK         0.0000 
     67 H67         6.3279   56.0605   20.6831 H         1 UNK         0.0000 
     68 H68         6.9328   55.0350   18.5008 H         1 UNK         0.0000 
     69 H69         5.9121   52.7532   17.9132 H         1 UNK         0.0000 
     70 H70         4.6485   52.7442   28.9201 H         1 UNK         0.0000 
     71 H71         6.7272   53.8788   28.2355 H         1 UNK         0.0000 
     72 H72         6.7941   55.1388   26.1096 H         1 UNK         0.0000 
     73 H73         4.7869   55.2965   24.6864 H         1 UNK         0.0000 
     74 H74         2.6976   54.2054   25.3739 H         1 UNK         0.0000 
     75 H75         4.5047   51.7757   19.4021 H         1 UNK         0.0000 
@<TRIPOS>BOND
     1    1    6 ar   
     2    1    2 ar   
     3    1   41 1    
     4    2    3 ar   
     5    2   42 1    
     6    3    4 ar   
     7    3   43 1    
     8    4    5 ar   
     9    4    7 1    
    10    5    6 ar   
    11    5   44 1    
    12    6   45 1    
    13    7    8 1    
    14    7   35 1    
    15    7   46 1    
    16    8    9 1    
    17    8   47 1    
    18    8   48 1    
    19    9   10 1    
    20    9   49 1    
    21    9   50 1    
    22   10   11 am   BACKBONE|DICT|INTERRES
    23   10   51 1    
    24   11   12 2    
    25   11   13 1    
    26   13   14 1    
    27   13   19 1    
    28   13   15 1    
    29   15   16 1    
    30   15   52 1    
    31   15   53 1    
    32   16   17 2    
    33   16   54 1    
    34   17   18 1    
    35   17   55 1    
    36   18   19 1    
    37   18   56 1    
    38   18   57 1    
    39   19   20 1    
    40   19   21 1    
    41   21   22 2    
    42   21   23 am   BACKBONE|DICT|INTERRES
    43   23   28 1    
    44   23   24 1    
    45   24   25 1    
    46   24   58 1    
    47   24   59 1    
    48   25   26 1    
    49   25   60 1    
    50   25   61 1    
    51   26   27 1    
    52   26   29 1    
    53   27   28 1    
    54   27   62 1    
    55   27   63 1    
    56   28   64 1    
    57   28   65 1    
    58   29   34 ar   
    59   29   30 ar   
    60   30   31 ar   
    61   30   66 1    
    62   31   32 ar   
    63   31   67 1    
    64   32   33 ar   
    65   32   68 1    
    66   33   34 ar   
    67   33   69 1    
    68   34   75 1    
    69   35   40 ar   
    70   35   36 ar   
    71   36   37 ar   
    72   36   70 1    
    73   37   38 ar   
    74   37   71 1    
    75   38   39 ar   
    76   38   72 1    
    77   39   40 ar   
    78   39   73 1    
    79   40   74 1    
@<TRIPOS>SUBSTRUCTURE
     1 UNK         1 GROUP             0       ****    0 ROOT    
