@<TRIPOS>MOLECULE
ZINC63280094_2221
59   62    1
SMALL
USER_CHARGES


@<TRIPOS>ATOM
      1 C1          1.6320   50.9667   22.9762 C.3       1 UNK         0.0000 
      2 C2          1.4136   52.4802   23.2176 C.3       1 UNK         0.0000 
      3 H3          0.7637   52.8422   22.4169 H         1 UNK         0.0000 
      4 C4          0.7280   52.8012   24.5771 C.3       1 UNK         0.0000 
      5 C5         -0.2778   51.8087   25.1554 C.2       1 UNK         0.0000 
      6 C6         -1.6236   51.8043   25.1211 C.2       1 UNK         0.0000 
      7 C7         -2.5724   52.6992   24.4402 C.2       1 UNK         0.0000 
      8 C8         -3.9029   52.5269   24.5771 C.2       1 UNK         0.0000 
      9 C9         -4.3689   51.4307   25.4158 C.2       1 UNK         0.0000 
     10 C10        -3.5070   50.5981   26.0567 C.2       1 UNK         0.0000 
     11 C11        -2.1243   50.7729   25.9247 C.2       1 UNK         0.0000 
     12 N12        -1.1493   50.0968   26.4817 N.pl3     1 UNK         0.0000 
     13 C13         0.1474   50.6577   26.0566 C.3       1 UNK         0.0000 
     14 N14         2.6589   53.2572   23.1571 N.am      1 UNK         0.0000 
     15 C15         3.6194   53.2603   22.2122 C.2       1 UNK         0.0000 
     16 O16         3.5180   52.6506   21.1531 O.2       1 UNK         0.0000 
     17 C17         4.8446   53.9615   22.5551 C.2       1 UNK         0.0000 
     18 C18         5.3721   54.1175   23.7961 C.2       1 UNK         0.0000 
     19 C19         6.6636   54.8278   24.1635 C.3       1 UNK         0.0000 
     20 S20         6.5018   55.2967   25.8939 S.3       1 UNK         0.0000 
     21 C21         5.4741   53.8788   26.2376 C.3       1 UNK         0.0000 
     22 H22         6.1210   53.0236   26.4396 H         1 UNK         0.0000 
     23 N23         4.7842   53.6967   24.9740 N.pl3     1 UNK         0.0000 
     24 C24         4.4636   54.0638   27.3714 C.ar      1 UNK         0.0000 
     25 C25         3.2692   54.7579   27.1535 C.ar      1 UNK         0.0000 
     26 C26         2.2947   54.8598   28.1444 C.ar      1 UNK         0.0000 
     27 C27         2.5094   54.2714   29.3947 C.ar      1 UNK         0.0000 
     28 C28         3.7186   53.6186   29.6324 C.ar      1 UNK         0.0000 
     29 C29         4.6939   53.5117   28.6323 C.ar      1 UNK         0.0000 
     30 O30         3.9043   53.0944   30.8817 O.3       1 UNK         0.0000 
     31 C31         4.0546   51.6966   30.9353 C.3       1 UNK         0.0000 
     32 O32         1.5990   54.2644   30.4340 O.3       1 UNK         0.0000 
     33 C33         0.3543   54.9165   30.2862 C.3       1 UNK         0.0000 
     34 H34         0.6927   50.4179   23.0439 H         1 UNK         0.0000 
     35 H35         2.0238   50.7608   21.9801 H         1 UNK         0.0000 
     36 H36         2.3042   50.5282   23.7104 H         1 UNK         0.0000 
     37 H37         1.4798   52.9369   25.3565 H         1 UNK         0.0000 
     38 H38         0.2383   53.7703   24.4817 H         1 UNK         0.0000 
     39 H39        -2.2304   53.5125   23.8162 H         1 UNK         0.0000 
     40 H40        -4.6069   53.1813   24.0832 H         1 UNK         0.0000 
     41 H41        -5.4327   51.2761   25.5313 H         1 UNK         0.0000 
     42 H42        -3.9040   49.8015   26.6714 H         1 UNK         0.0000 
     43 H43         0.7022   49.8665   25.5488 H         1 UNK         0.0000 
     44 H44         0.6854   50.9717   26.9525 H         1 UNK         0.0000 
     45 H45         2.7840   53.9301   23.8962 H         1 UNK         0.0000 
     46 H46         6.8699   55.7012   23.5453 H         1 UNK         0.0000 
     47 H47         5.3744   54.3482   21.6974 H         1 UNK         0.0000 
     48 H48         7.5042   54.1376   24.0796 H         1 UNK         0.0000 
     49 H49         4.0281   53.0285   24.9947 H         1 UNK         0.0000 
     50 H50         3.1054   55.2228   26.1949 H         1 UNK         0.0000 
     51 H51         1.3788   55.3872   27.9280 H         1 UNK         0.0000 
     52 H52         5.6169   52.9883   28.8346 H         1 UNK         0.0000 
     53 H53         3.6760   51.3264   31.8886 H         1 UNK         0.0000 
     54 H54         3.5073   51.2043   30.1297 H         1 UNK         0.0000 
     55 H55         5.1043   51.4257   30.8701 H         1 UNK         0.0000 
     56 H56        -0.2213   54.7986   31.2037 H         1 UNK         0.0000 
     57 H57        -0.2227   54.4861   29.4677 H         1 UNK         0.0000 
     58 H58         0.5003   55.9848   30.1209 H         1 UNK         0.0000 
     59 H59        -1.2727   49.3182   27.1495 H         1 UNK         0.0000 
@<TRIPOS>BOND
     1    1    2 1    
     2    1   34 1    
     3    1   35 1    
     4    1   36 1    
     5    2    3 1    
     6    2    4 1    
     7    2   14 1    
     8    4    5 1    
     9    4   37 1    
    10    4   38 1    
    11    5   13 1    
    12    5    6 2    
    13    6   11 1    
    14    6    7 1    
    15    7    8 2    
    16    7   39 1    
    17    8    9 1    
    18    8   40 1    
    19    9   10 2    
    20    9   41 1    
    21   10   11 1    
    22   10   42 1    
    23   11   12 2    
    24   12   13 1    
    25   12   59 1    
    26   13   43 1    
    27   13   44 1    
    28   14   45 1    
    29   14   15 am   BACKBONE|DICT|INTERRES
    30   15   16 2    
    31   15   17 1    
    32   17   47 1    
    33   17   18 2    
    34   18   19 1    
    35   18   23 1    
    36   19   20 1    
    37   19   48 1    
    38   19   46 1    
    39   20   21 1    
    40   21   22 1    
    41   21   24 1    
    42   21   23 1    
    43   23   49 1    
    44   24   29 ar   
    45   24   25 ar   
    46   25   26 ar   
    47   25   50 1    
    48   26   27 ar   
    49   26   51 1    
    50   27   28 ar   
    51   27   32 1    
    52   28   29 ar   
    53   28   30 1    
    54   29   52 1    
    55   30   31 1    
    56   31   53 1    
    57   31   54 1    
    58   31   55 1    
    59   32   33 1    
    60   33   56 1    
    61   33   57 1    
    62   33   58 1    
@<TRIPOS>SUBSTRUCTURE
     1 UNK         1 GROUP             0       ****    0 ROOT    
