@<TRIPOS>MOLECULE
ZINC13080573_2462
62   66    1
SMALL
USER_CHARGES


@<TRIPOS>ATOM
      1 C1         -0.5883   48.1712   25.1243 C.3       1 UNK         0.0000 
      2 C2         -0.2555   49.6473   25.1813 C.ar      1 UNK         0.0000 
      3 C3         -0.8132   50.4856   26.1518 C.ar      1 UNK         0.0000 
      4 C4         -0.4624   51.8329   26.1505 C.ar      1 UNK         0.0000 
      5 C5          0.4184   52.3122   25.1796 C.ar      1 UNK         0.0000 
      6 C6          0.9233   51.4130   24.2220 C.ar      1 UNK         0.0000 
      7 N7          0.5980   50.0958   24.2260 N.ar      1 UNK         0.0000 
      8 N8          1.8091   51.7660   23.1996 N.am      1 UNK         0.0000 
      9 C9          2.0388   52.9804   22.6634 C.2       1 UNK         0.0000 
     10 O10         1.4540   54.0081   23.0008 O.2       1 UNK         0.0000 
     11 C11         3.1016   53.0119   21.6758 C.2       1 UNK         0.0000 
     12 C12         3.1663   52.1258   20.6418 C.2       1 UNK         0.0000 
     13 N13         4.1269   52.2672   19.6812 N.pl3     1 UNK         0.0000 
     14 C14         5.0512   53.2761   19.6181 C.2       1 UNK         0.0000 
     15 C15         5.0967   54.2389   20.5771 C.2       1 UNK         0.0000 
     16 C16         4.1561   54.1523   21.8438 C.3       1 UNK         0.0000 
     17 H17         3.6381   55.1115   21.8496 H         1 UNK         0.0000 
     18 C18         4.8543   54.1620   23.2306 C.ar      1 UNK         0.0000 
     19 C19         4.1982   54.5518   24.4100 C.ar      1 UNK         0.0000 
     20 C20         4.8715   54.5926   25.6328 C.ar      1 UNK         0.0000 
     21 C21         6.2298   54.2584   25.6927 C.ar      1 UNK         0.0000 
     22 C22         6.8744   53.8870   24.5187 C.ar      1 UNK         0.0000 
     23 C23         6.1869   53.7949   23.3280 C.ar      1 UNK         0.0000 
     24 O24         6.9915   54.2504   26.8410 O.3       1 UNK         0.0000 
     25 C25         6.3287   54.3073   28.0971 C.3       1 UNK         0.0000 
     26 C26         6.0757   55.3564   20.4276 C.2       1 UNK         0.0000 
     27 O27         6.3044   56.1843   21.3025 O.2       1 UNK         0.0000 
     28 C28         6.9409   55.3969   19.1547 C.3       1 UNK         0.0000 
     29 C29         6.2564   54.7409   17.9422 C.3       1 UNK         0.0000 
     30 H30         7.0073   54.6620   17.1554 H         1 UNK         0.0000 
     31 C31         5.8600   53.2956   18.3205 C.3       1 UNK         0.0000 
     32 C32         5.1350   55.5963   17.3566 C.2       1 UNK         0.0000 
     33 C33         4.6891   56.8939   17.5830 C.2       1 UNK         0.0000 
     34 C34         3.6072   57.1198   16.7316 C.2       1 UNK         0.0000 
     35 C35         3.4425   55.9520   16.0076 C.2       1 UNK         0.0000 
     36 O36         4.3735   55.0353   16.3766 O.3       1 UNK         0.0000 
     37 C37         2.1951   50.9993   20.2978 C.3       1 UNK         0.0000 
     38 H38        -1.3446   47.9855   24.3597 H         1 UNK         0.0000 
     39 H39        -0.9690   47.8130   26.0816 H         1 UNK         0.0000 
     40 H40         0.2998   47.5858   24.8800 H         1 UNK         0.0000 
     41 H41        -1.4951   50.0969   26.8967 H         1 UNK         0.0000 
     42 H42        -0.8649   52.4968   26.9020 H         1 UNK         0.0000 
     43 H43         0.7026   53.3519   25.1961 H         1 UNK         0.0000 
     44 H44         2.2759   50.9864   22.7661 H         1 UNK         0.0000 
     45 H45         4.2856   51.4829   19.0514 H         1 UNK         0.0000 
     46 H46         3.1731   54.8787   24.3951 H         1 UNK         0.0000 
     47 H47         4.3292   54.9056   26.5127 H         1 UNK         0.0000 
     48 H48         7.9047   53.6033   24.4875 H         1 UNK         0.0000 
     49 H49         6.7190   53.4390   22.4817 H         1 UNK         0.0000 
     50 H50         7.0544   54.0971   28.8822 H         1 UNK         0.0000 
     51 H51         5.9046   55.2951   28.2816 H         1 UNK         0.0000 
     52 H52         5.5410   53.5575   28.1798 H         1 UNK         0.0000 
     53 H53         7.8381   54.8215   19.3883 H         1 UNK         0.0000 
     54 H54         7.2658   56.4193   18.9601 H         1 UNK         0.0000 
     55 H55         6.7039   52.6076   18.3884 H         1 UNK         0.0000 
     56 H56         5.2306   52.9384   17.5018 H         1 UNK         0.0000 
     57 H57         5.1030   57.6014   18.2865 H         1 UNK         0.0000 
     58 H58         3.0251   58.0265   16.6547 H         1 UNK         0.0000 
     59 H59         2.7526   55.6482   15.2330 H         1 UNK         0.0000 
     60 H60         2.6023   50.0388   20.6221 H         1 UNK         0.0000 
     61 H61         1.2099   51.1293   20.7468 H         1 UNK         0.0000 
     62 H62         2.0250   50.9365   19.2195 H         1 UNK         0.0000 
@<TRIPOS>BOND
     1    1    2 1    
     2    1   38 1    
     3    1   39 1    
     4    1   40 1    
     5    2    7 ar   
     6    2    3 ar   
     7    3    4 ar   
     8    3   41 1    
     9    4    5 ar   
    10    4   42 1    
    11    5    6 ar   
    12    5   43 1    
    13    6    7 ar   
    14    6    8 1    
    15    8    9 am   BACKBONE|DICT|INTERRES
    16    8   44 1    
    17    9   10 2    
    18    9   11 1    
    19   11   16 1    
    20   11   12 2    
    21   12   13 1    
    22   12   37 1    
    23   13   14 1    
    24   13   45 1    
    25   14   31 1    
    26   14   15 2    
    27   15   16 1    
    28   15   26 1    
    29   16   17 1    
    30   16   18 1    
    31   18   23 ar   
    32   18   19 ar   
    33   19   20 ar   
    34   19   46 1    
    35   20   21 ar   
    36   20   47 1    
    37   21   22 ar   
    38   21   24 1    
    39   22   23 ar   
    40   22   48 1    
    41   23   49 1    
    42   24   25 1    
    43   25   50 1    
    44   25   51 1    
    45   25   52 1    
    46   26   27 2    
    47   26   28 1    
    48   28   29 1    
    49   28   53 1    
    50   28   54 1    
    51   29   30 1    
    52   29   31 1    
    53   29   32 1    
    54   31   55 1    
    55   31   56 1    
    56   32   36 1    
    57   32   33 2    
    58   33   34 1    
    59   33   57 1    
    60   34   35 2    
    61   34   58 1    
    62   35   36 1    
    63   35   59 1    
    64   37   60 1    
    65   37   61 1    
    66   37   62 1    
@<TRIPOS>SUBSTRUCTURE
     1 UNK         1 GROUP             0       ****    0 ROOT    
