@<TRIPOS>MOLECULE
ZINC38550646_593
59   63    1
SMALL
USER_CHARGES


@<TRIPOS>ATOM
      1 C1          4.6883   54.1944   29.0288 C.3       1 UNK         0.0000 
      2 S2          3.0153   54.4672   29.6808 S.3       1 UNK         0.0000 
      3 C3          1.9426   53.3449   28.8396 C.ar      1 UNK         0.0000 
      4 C4          0.6886   53.7796   28.4298 C.ar      1 UNK         0.0000 
      5 C5         -0.1333   52.9240   27.7000 C.ar      1 UNK         0.0000 
      6 C6          0.2808   51.6326   27.3650 C.ar      1 UNK         0.0000 
      7 C7          1.5044   51.1881   27.8675 C.ar      1 UNK         0.0000 
      8 C8          2.3429   52.0389   28.5825 C.ar      1 UNK         0.0000 
      9 C9         -0.6159   50.7102   26.5152 C.3       1 UNK         0.0000 
     10 H10        -1.1357   50.1017   27.2544 H         1 UNK         0.0000 
     11 C11        -1.6368   51.4834   25.6562 C.2       1 UNK         0.0000 
     12 C12        -2.9723   51.7474   26.0441 C.2       1 UNK         0.0000 
     13 C13        -3.6978   52.4576   25.0727 C.2       1 UNK         0.0000 
     14 S14        -2.7442   52.8245   23.6821 S.3       1 UNK         0.0000 
     15 C15        -1.3911   52.0053   24.3734 C.2       1 UNK         0.0000 
     16 N16        -0.2652   51.8690   23.5831 N.am      1 UNK         0.0000 
     17 C17         0.7152   52.7871   23.4973 C.2       1 UNK         0.0000 
     18 O18         0.7153   53.8704   24.0816 O.2       1 UNK         0.0000 
     19 C19         1.7934   52.4205   22.6118 C.2       1 UNK         0.0000 
     20 C20         2.9117   53.1383   22.2015 C.2       1 UNK         0.0000 
     21 C21         3.6168   52.3248   21.3122 C.2       1 UNK         0.0000 
     22 C22         2.9121   51.1351   21.2303 C.2       1 UNK         0.0000 
     23 O23         1.8085   51.1903   22.0207 O.3       1 UNK         0.0000 
     24 C24        -5.1792   52.7966   25.1479 C.3       1 UNK         0.0000 
     25 C25        -5.6742   52.6140   26.5974 C.3       1 UNK         0.0000 
     26 C26        -5.1664   51.3037   27.2250 C.3       1 UNK         0.0000 
     27 C27        -3.6260   51.2568   27.3382 C.3       1 UNK         0.0000 
     28 N28         0.1259   49.7251   25.6967 N.pl3     1 UNK         0.0000 
     29 C29        -0.6257   48.7147   25.0348 C.ar      1 UNK         0.0000 
     30 C30        -0.4209   48.4367   23.6821 C.ar      1 UNK         0.0000 
     31 C31        -1.2967   47.5667   23.0196 C.ar      1 UNK         0.0000 
     32 C32        -2.3303   46.9504   23.7309 C.ar      1 UNK         0.0000 
     33 C33        -2.4711   47.2127   25.0953 C.ar      1 UNK         0.0000 
     34 N34        -1.6251   48.0806   25.6817 N.pl3     1 UNK         0.0000 
     35 H35         5.3807   54.9229   29.4519 H         1 UNK         0.0000 
     36 H36         5.0519   53.1982   29.2802 H         1 UNK         0.0000 
     37 H37         4.6968   54.3064   27.9444 H         1 UNK         0.0000 
     38 H38         0.3664   54.7870   28.6426 H         1 UNK         0.0000 
     39 H39        -1.0875   53.2968   27.3670 H         1 UNK         0.0000 
     40 H40         1.8435   50.1804   27.6816 H         1 UNK         0.0000 
     41 H41         3.3039   51.6842   28.9204 H         1 UNK         0.0000 
     42 H42        -0.1803   51.0351   23.0227 H         1 UNK         0.0000 
     43 H43         3.1705   54.1444   22.4967 H         1 UNK         0.0000 
     44 H44         4.5270   52.5733   20.7831 H         1 UNK         0.0000 
     45 H45         3.0631   50.2204   20.6728 H         1 UNK         0.0000 
     46 H46        -5.3754   53.8138   24.8057 H         1 UNK         0.0000 
     47 H47        -5.7402   52.1287   24.4920 H         1 UNK         0.0000 
     48 H48        -5.3466   53.4584   27.2021 H         1 UNK         0.0000 
     49 H49        -6.7649   52.6393   26.6172 H         1 UNK         0.0000 
     50 H50        -5.6076   51.1656   28.2136 H         1 UNK         0.0000 
     51 H51        -5.5130   50.4588   26.6258 H         1 UNK         0.0000 
     52 H52        -3.3184   50.2392   27.5827 H         1 UNK         0.0000 
     53 H53        -3.2938   51.8711   28.1733 H         1 UNK         0.0000 
     54 H54         0.9709   50.0618   25.2601 H         1 UNK         0.0000 
     55 H55         0.3771   48.9193   23.1358 H         1 UNK         0.0000 
     56 H56        -1.1696   47.3709   21.9650 H         1 UNK         0.0000 
     57 H57        -3.0121   46.2830   23.2251 H         1 UNK         0.0000 
     58 H58        -3.2264   46.7876   25.7425 H         1 UNK         0.0000 
     59 H59        -1.6955   48.2311   26.6915 H         1 UNK         0.0000 
@<TRIPOS>BOND
     1    1    2 1    
     2    1   35 1    
     3    1   36 1    
     4    1   37 1    
     5    2    3 1    
     6    3    8 ar   
     7    3    4 ar   
     8    4    5 ar   
     9    4   38 1    
    10    5    6 ar   
    11    5   39 1    
    12    6    7 ar   
    13    6    9 1    
    14    7    8 ar   
    15    7   40 1    
    16    8   41 1    
    17    9   10 1    
    18    9   11 1    
    19    9   28 1    
    20   11   15 2    
    21   11   12 1    
    22   12   27 1    
    23   12   13 2    
    24   13   14 1    
    25   13   24 1    
    26   14   15 1    
    27   15   16 am   BACKBONE|DICT|INTERRES
    28   16   17 am   BACKBONE|DICT|INTERRES
    29   16   42 1    
    30   17   18 2    
    31   17   19 1    
    32   19   23 1    
    33   19   20 2    
    34   20   21 1    
    35   20   43 1    
    36   21   22 2    
    37   21   44 1    
    38   22   23 1    
    39   22   45 1    
    40   24   25 1    
    41   24   46 1    
    42   24   47 1    
    43   25   26 1    
    44   25   48 1    
    45   25   49 1    
    46   26   27 1    
    47   26   50 1    
    48   26   51 1    
    49   27   52 1    
    50   27   53 1    
    51   28   29 1    
    52   28   54 1    
    53   29   34 ar   
    54   29   30 ar   
    55   30   31 ar   
    56   30   55 1    
    57   31   32 ar   
    58   31   56 1    
    59   32   33 ar   
    60   32   57 1    
    61   33   34 ar   
    62   33   58 1    
    63   34   59 1    
@<TRIPOS>SUBSTRUCTURE
     1 UNK         1 GROUP             0       ****    0 ROOT    
