@<TRIPOS>MOLECULE
ZINC53853446_2522
40   43    1
SMALL
USER_CHARGES


@<TRIPOS>ATOM
      1 C1          4.9096   55.4501   17.9402 C.3       1 UNK         0.0000 
      2 C2          6.1815   55.1975   18.7753 C.3       1 UNK         0.0000 
      3 H3          6.5202   54.1940   18.5074 H         1 UNK         0.0000 
      4 C4          7.3227   56.1609   18.4215 C.ar      1 UNK         0.0000 
      5 C5          8.6199   55.6463   18.2360 C.ar      1 UNK         0.0000 
      6 C6          9.6981   56.4977   17.9832 C.ar      1 UNK         0.0000 
      7 C7          9.4486   57.8618   17.9064 C.ar      1 UNK         0.0000 
      8 C8          8.1900   58.3690   18.0523 C.ar      1 UNK         0.0000 
      9 C9          7.0991   57.5445   18.3050 C.ar      1 UNK         0.0000 
     10 N10         8.3055   59.7310   17.9203 N.pl3     1 UNK         0.0000 
     11 H11         7.5260   60.3822   17.9066 H         1 UNK         0.0000 
     12 C12         9.5933   60.0982   17.7559 C.ar      1 UNK         0.0000 
     13 O13        10.0446   61.2380   17.6780 O.2       1 UNK         0.0000 
     14 N14        10.2792   58.9391   17.7204 N.pl3     1 UNK         0.0000 
     15 H15        11.2805   58.8859   17.6142 H         1 UNK         0.0000 
     16 N16         5.8362   55.1267   20.2036 N.am      1 UNK         0.0000 
     17 C17         6.6315   55.2907   21.2807 C.2       1 UNK         0.0000 
     18 O18         7.7929   55.6978   21.2495 O.2       1 UNK         0.0000 
     19 C19         6.0250   54.8966   22.5293 C.ar      1 UNK         0.0000 
     20 C20         4.7310   54.4649   22.8149 C.ar      1 UNK         0.0000 
     21 C21         4.6029   54.3746   24.2402 C.ar      1 UNK         0.0000 
     22 C22         3.5424   54.0900   25.1125 C.ar      1 UNK         0.0000 
     23 C23         3.7817   54.0970   26.4855 C.ar      1 UNK         0.0000 
     24 C24         5.0464   54.3745   26.9988 C.ar      1 UNK         0.0000 
     25 C25         6.1310   54.6560   26.1687 C.ar      1 UNK         0.0000 
     26 C26         5.8866   54.6699   24.7904 C.ar      1 UNK         0.0000 
     27 N27         6.7079   54.9589   23.7234 N.pl3     1 UNK         0.0000 
     28 H28         7.6874   55.2203   23.7425 H         1 UNK         0.0000 
     29 Br29        5.2970   54.3976   28.8825 Br        1 UNK         0.0000 
     30 H30         5.1321   55.4513   16.8733 H         1 UNK         0.0000 
     31 H31         4.1617   54.6759   18.1146 H         1 UNK         0.0000 
     32 H32         4.4446   56.4068   18.1837 H         1 UNK         0.0000 
     33 H33         8.8048   54.5858   18.3304 H         1 UNK         0.0000 
     34 H34        10.6932   56.0928   17.8815 H         1 UNK         0.0000 
     35 H35         6.1139   57.9605   18.4470 H         1 UNK         0.0000 
     36 H36         4.9120   54.7668   20.3876 H         1 UNK         0.0000 
     37 H37         3.9413   54.3065   22.0950 H         1 UNK         0.0000 
     38 H38         2.5577   53.8710   24.7280 H         1 UNK         0.0000 
     39 H39         2.9700   53.8825   27.1654 H         1 UNK         0.0000 
     40 H40         7.1018   54.8685   26.5885 H         1 UNK         0.0000 
@<TRIPOS>BOND
     1    1    2 1    
     2    1   30 1    
     3    1   31 1    
     4    1   32 1    
     5    2    3 1    
     6    2    4 1    
     7    2   16 1    
     8    4    9 ar   
     9    4    5 ar   
    10    5    6 ar   
    11    5   33 1    
    12    6    7 ar   
    13    6   34 1    
    14    7   14 ar   
    15    7    8 ar   
    16    8    9 ar   
    17    8   10 ar   
    18    9   35 1    
    19   10   11 1    
    20   10   12 ar   
    21   12   13 2    
    22   12   14 ar   
    23   14   15 1    
    24   16   17 am   BACKBONE|DICT|INTERRES
    25   16   36 1    
    26   17   18 2    
    27   17   19 1    
    28   19   27 ar   
    29   19   20 ar   
    30   20   21 ar   
    31   20   37 1    
    32   21   26 ar   
    33   21   22 ar   
    34   22   23 ar   
    35   22   38 1    
    36   23   24 ar   
    37   23   39 1    
    38   24   25 ar   
    39   24   29 1    
    40   25   26 ar   
    41   25   40 1    
    42   26   27 ar   
    43   27   28 1    
@<TRIPOS>SUBSTRUCTURE
     1 UNK         1 GROUP             0       ****    0 ROOT    
