@<TRIPOS>MOLECULE
ZINC50323145_1701
42   44    1
SMALL
USER_CHARGES


@<TRIPOS>ATOM
      1 C1          4.0854   51.8206   21.1945 C.3       1 UNK         0.0000 
      2 C2          5.0085   53.0113   21.4988 C.3       1 UNK         0.0000 
      3 C3          4.2841   54.2515   22.0603 C.3       1 UNK         0.0000 
      4 C4          3.8548   54.0966   23.5091 C.ar      1 UNK         0.0000 
      5 C5          2.7043   53.6094   24.1169 C.ar      1 UNK         0.0000 
      6 C6          2.9381   53.6966   25.5233 C.ar      1 UNK         0.0000 
      7 N7          4.0994   54.2876   25.7455 N.2       1 UNK         0.0000 
      8 N8          4.6475   54.4865   24.5493 N.pl3     1 UNK         0.0000 
      9 H9          5.5607   54.9033   24.4440 H         1 UNK         0.0000 
     10 C10         1.9941   53.2637   26.5643 C.2       1 UNK         0.0000 
     11 O11         0.8643   52.8963   26.2313 O.2       1 UNK         0.0000 
     12 N12         2.3547   53.2966   27.8840 N.am      1 UNK         0.0000 
     13 C13         3.7490   53.0295   28.3238 C.3       1 UNK         0.0000 
     14 C14         3.7358   52.1092   29.5628 C.3       1 UNK         0.0000 
     15 O15         2.8776   52.6358   30.5575 O.3       1 UNK         0.0000 
     16 C16         1.5213   52.6147   30.1343 C.3       1 UNK         0.0000 
     17 H17         1.1840   51.5925   29.9543 H         1 UNK         0.0000 
     18 C18         1.2962   53.5180   28.9081 C.3       1 UNK         0.0000 
     19 H19         0.3160   53.2439   28.5122 H         1 UNK         0.0000 
     20 C20         1.2375   54.9333   29.4897 C.3       1 UNK         0.0000 
     21 C21         0.5567   54.7665   30.8559 C.3       1 UNK         0.0000 
     22 C22         0.6712   53.2770   31.2305 C.3       1 UNK         0.0000 
     23 N23         1.6050   53.1342   23.4554 N.pl3     1 UNK         0.0000 
     24 H24         3.5612   51.4689   22.0816 H         1 UNK         0.0000 
     25 H25         3.3325   52.0879   20.4511 H         1 UNK         0.0000 
     26 H26         4.6552   50.9827   20.7911 H         1 UNK         0.0000 
     27 H27         5.8005   52.6998   22.1810 H         1 UNK         0.0000 
     28 H28         5.5048   53.2927   20.5689 H         1 UNK         0.0000 
     29 H29         4.9433   55.1133   21.9503 H         1 UNK         0.0000 
     30 H30         3.4206   54.4803   21.4331 H         1 UNK         0.0000 
     31 H31         4.3134   52.4959   27.5577 H         1 UNK         0.0000 
     32 H32         4.1865   53.9936   28.5860 H         1 UNK         0.0000 
     33 H33         3.4114   51.1062   29.2819 H         1 UNK         0.0000 
     34 H34         4.7400   52.0034   29.9713 H         1 UNK         0.0000 
     35 H35         2.2454   55.3288   29.6293 H         1 UNK         0.0000 
     36 H36         0.7097   55.6207   28.8285 H         1 UNK         0.0000 
     37 H37         1.0096   55.4194   31.6031 H         1 UNK         0.0000 
     38 H38        -0.4938   55.0372   30.8003 H         1 UNK         0.0000 
     39 H39        -0.3141   52.8089   31.2777 H         1 UNK         0.0000 
     40 H40         1.1080   53.1634   32.2224 H         1 UNK         0.0000 
     41 H41         1.5535   53.1135   22.4467 H         1 UNK         0.0000 
     42 H42         0.8127   52.7754   23.9734 H         1 UNK         0.0000 
@<TRIPOS>BOND
     1    1    2 1    
     2    1   24 1    
     3    1   25 1    
     4    1   26 1    
     5    2    3 1    
     6    2   27 1    
     7    2   28 1    
     8    3    4 1    
     9    3   29 1    
    10    3   30 1    
    11    4    8 ar   
    12    4    5 ar   
    13    5    6 ar   
    14    5   23 1    
    15    6    7 ar   
    16    6   10 1    
    17    7    8 ar   
    18    8    9 1    
    19   10   11 2    
    20   10   12 am   BACKBONE|DICT|INTERRES
    21   12   18 1    
    22   12   13 1    
    23   13   14 1    
    24   13   31 1    
    25   13   32 1    
    26   14   15 1    
    27   14   33 1    
    28   14   34 1    
    29   15   16 1    
    30   16   17 1    
    31   16   22 1    
    32   16   18 1    
    33   18   19 1    
    34   18   20 1    
    35   20   21 1    
    36   20   35 1    
    37   20   36 1    
    38   21   22 1    
    39   21   37 1    
    40   21   38 1    
    41   22   39 1    
    42   22   40 1    
    43   23   41 1    
    44   23   42 1    
@<TRIPOS>SUBSTRUCTURE
     1 UNK         1 GROUP             0       ****    0 ROOT    
