@<TRIPOS>MOLECULE
ZINC44161632_4298
51   54    1
SMALL
USER_CHARGES


@<TRIPOS>ATOM
      1 C1          5.2151   54.2753   27.8593 C.3       1 UNK         0.0000 
      2 C2          4.4845   54.1982   26.5228 C.ar      1 UNK         0.0000 
      3 C3          5.0023   54.3865   25.2350 C.ar      1 UNK         0.0000 
      4 C4          3.9614   54.0967   24.3524 C.ar      1 UNK         0.0000 
      5 C5          2.8531   53.6536   25.0590 C.ar      1 UNK         0.0000 
      6 N6          3.1286   53.8781   26.4080 N.pl3     1 UNK         0.0000 
      7 C7          2.1508   53.7582   27.5141 C.3       1 UNK         0.0000 
      8 C8          2.2986   52.4944   28.3901 C.3       1 UNK         0.0000 
      9 C9          2.0172   52.9490   29.8333 C.3       1 UNK         0.0000 
     10 C10         1.4040   54.3492   29.7158 C.3       1 UNK         0.0000 
     11 C11         2.0831   54.9522   28.4863 C.3       1 UNK         0.0000 
     12 C12         1.6530   53.0208   24.4403 C.2       1 UNK         0.0000 
     13 C13         0.6283   52.2984   25.0642 C.2       1 UNK         0.0000 
     14 S14        -0.4856   51.6761   23.8930 S.3       1 UNK         0.0000 
     15 C15         0.5388   52.3279   22.6537 C.2       1 UNK         0.0000 
     16 N16         1.5559   53.0096   23.1169 N.2       1 UNK         0.0000 
     17 N17         0.3082   52.1898   21.3003 N.pl3     1 UNK         0.0000 
     18 C18        -0.7105   51.5110   20.6083 C.ar      1 UNK         0.0000 
     19 C19        -1.3324   50.3481   21.0802 C.ar      1 UNK         0.0000 
     20 C20        -2.3650   49.7535   20.3562 C.ar      1 UNK         0.0000 
     21 C21        -2.7849   50.3119   19.1503 C.ar      1 UNK         0.0000 
     22 C22        -2.1559   51.4560   18.6452 C.ar      1 UNK         0.0000 
     23 C23        -1.1035   52.0272   19.3704 C.ar      1 UNK         0.0000 
     24 C24        -2.6078   52.0975   17.3342 C.3       1 UNK         0.0000 
     25 F25        -3.7823   51.6193   16.9199 F         1 UNK         0.0000 
     26 F26        -2.7330   53.4172   17.4935 F         1 UNK         0.0000 
     27 F27        -1.6989   51.8622   16.3889 F         1 UNK         0.0000 
     28 C28         6.3365   54.8243   24.8848 C.2       1 UNK         0.0000 
     29 O29         7.1042   55.3210   25.7011 O.2       1 UNK         0.0000 
     30 N30         6.7044   54.6491   23.6149 N.am      1 UNK         0.0000 
     31 H31         5.3242   55.2967   28.2102 H         1 UNK         0.0000 
     32 H32         4.7510   53.7068   28.6610 H         1 UNK         0.0000 
     33 H33         6.2267   53.8773   27.7747 H         1 UNK         0.0000 
     34 H34         4.0284   54.1189   23.2740 H         1 UNK         0.0000 
     35 H35         1.1641   53.7673   27.0624 H         1 UNK         0.0000 
     36 H36         3.2952   52.0572   28.3284 H         1 UNK         0.0000 
     37 H37         1.5905   51.7224   28.0873 H         1 UNK         0.0000 
     38 H38         2.9509   52.9963   30.3962 H         1 UNK         0.0000 
     39 H39         1.3562   52.2598   30.3620 H         1 UNK         0.0000 
     40 H40         1.5459   54.9543   30.6114 H         1 UNK         0.0000 
     41 H41         0.3278   54.2717   29.5489 H         1 UNK         0.0000 
     42 H42         1.5182   55.7930   28.0823 H         1 UNK         0.0000 
     43 H43         3.0607   55.3230   28.7845 H         1 UNK         0.0000 
     44 H44         0.4681   52.0593   26.1021 H         1 UNK         0.0000 
     45 H45         0.8426   52.7910   20.6876 H         1 UNK         0.0000 
     46 H46        -1.0141   49.8789   21.9971 H         1 UNK         0.0000 
     47 H47        -2.8405   48.8591   20.7316 H         1 UNK         0.0000 
     48 H48        -3.5935   49.8429   18.6077 H         1 UNK         0.0000 
     49 H49        -0.6026   52.8967   18.9707 H         1 UNK         0.0000 
     50 H50         6.0830   54.2224   22.9474 H         1 UNK         0.0000 
     51 H51         7.6501   54.8975   23.3510 H         1 UNK         0.0000 
@<TRIPOS>BOND
     1    1    2 1    
     2    1   31 1    
     3    1   32 1    
     4    1   33 1    
     5    2    6 ar   
     6    2    3 ar   
     7    3    4 ar   
     8    3   28 1    
     9    4    5 ar   
    10    4   34 1    
    11    5    6 ar   
    12    5   12 1    
    13    6    7 1    
    14    7   11 1    
    15    7    8 1    
    16    7   35 1    
    17    8    9 1    
    18    8   36 1    
    19    8   37 1    
    20    9   10 1    
    21    9   38 1    
    22    9   39 1    
    23   10   11 1    
    24   10   40 1    
    25   10   41 1    
    26   11   42 1    
    27   11   43 1    
    28   12   16 1    
    29   12   13 2    
    30   13   14 1    
    31   13   44 1    
    32   14   15 1    
    33   15   16 2    
    34   15   17 1    
    35   17   18 1    
    36   17   45 1    
    37   18   23 ar   
    38   18   19 ar   
    39   19   20 ar   
    40   19   46 1    
    41   20   21 ar   
    42   20   47 1    
    43   21   22 ar   
    44   21   48 1    
    45   22   23 ar   
    46   22   24 1    
    47   23   49 1    
    48   24   25 1    
    49   24   26 1    
    50   24   27 1    
    51   28   29 2    
    52   28   30 am   BACKBONE|DICT|INTERRES
    53   30   50 1    
    54   30   51 1    
@<TRIPOS>SUBSTRUCTURE
     1 UNK         1 GROUP             0       ****    0 ROOT    
