@<TRIPOS>MOLECULE
ZINC21237098_831
54   57    1
SMALL
USER_CHARGES


@<TRIPOS>ATOM
      1 C1         -1.1647   48.8936   18.5845 C.3       1 UNK         0.0000 
      2 C2         -0.3457   50.0595   17.9856 C.3       1 UNK         0.0000 
      3 C3          0.5903   50.8601   18.9504 C.3       1 UNK         0.0000 
      4 C4         -0.1867   51.3555   20.1697 C.2       1 UNK         0.0000 
      5 O5         -1.1756   52.0964   20.1538 O.2       1 UNK         0.0000 
      6 N6          0.3898   50.7722   21.2451 N.am      1 UNK         0.0000 
      7 C7          1.4492   49.9774   20.9484 C.2       1 UNK         0.0000 
      8 O8          2.3116   49.5632   21.7191 O.2       1 UNK         0.0000 
      9 N9          1.5101   49.9648   19.6143 N.am      1 UNK         0.0000 
     10 C10        -0.0587   51.0138   22.6348 C.3       1 UNK         0.0000 
     11 C11         0.4837   52.3412   23.2091 C.2       1 UNK         0.0000 
     12 O12        -0.1146   52.8615   24.1502 O.2       1 UNK         0.0000 
     13 N13         1.5852   52.8933   22.6594 N.am      1 UNK         0.0000 
     14 C14         2.1591   54.1814   23.0367 C.3       1 UNK         0.0000 
     15 C15         3.0637   54.0961   24.2493 C.2       1 UNK         0.0000 
     16 C16         4.4077   54.3473   24.4774 C.2       1 UNK         0.0000 
     17 C17         4.6399   54.0995   25.8320 C.2       1 UNK         0.0000 
     18 C18         3.4300   53.7042   26.3867 C.2       1 UNK         0.0000 
     19 O19         2.4805   53.7059   25.4118 O.3       1 UNK         0.0000 
     20 C20         3.0043   53.2965   27.7555 C.ar      1 UNK         0.0000 
     21 C21         3.9505   53.2222   28.7829 C.ar      1 UNK         0.0000 
     22 C22         3.5625   52.8322   30.0633 C.ar      1 UNK         0.0000 
     23 C23         2.2255   52.5264   30.3140 C.ar      1 UNK         0.0000 
     24 C24         1.2798   52.5856   29.2940 C.ar      1 UNK         0.0000 
     25 C25         1.6687   52.9697   28.0141 C.ar      1 UNK         0.0000 
     26 Cl26        1.7310   52.0906   31.9056 Cl        1 UNK         0.0000 
     27 C27         1.3032   52.0252   18.2149 C.ar      1 UNK         0.0000 
     28 C28         2.7042   52.0975   18.1216 C.ar      1 UNK         0.0000 
     29 C29         3.3188   53.1592   17.4637 C.ar      1 UNK         0.0000 
     30 C30         2.5444   54.1613   16.8898 C.ar      1 UNK         0.0000 
     31 C31         1.1564   54.1056   16.9639 C.ar      1 UNK         0.0000 
     32 C32         0.5414   53.0454   17.6257 C.ar      1 UNK         0.0000 
     33 F33         3.1414   55.1943   16.2570 F         1 UNK         0.0000 
     34 H34        -1.7416   48.3889   17.8058 H         1 UNK         0.0000 
     35 H35        -0.5230   48.1437   19.0492 H         1 UNK         0.0000 
     36 H36        -1.8766   49.2393   19.3371 H         1 UNK         0.0000 
     37 H37        -1.0391   50.7408   17.4903 H         1 UNK         0.0000 
     38 H38         0.2673   49.6456   17.1828 H         1 UNK         0.0000 
     39 H39         1.9810   49.2336   19.0996 H         1 UNK         0.0000 
     40 H40        -1.1468   51.0855   22.6259 H         1 UNK         0.0000 
     41 H41         0.2013   50.1901   23.3008 H         1 UNK         0.0000 
     42 H42         2.0271   52.4123   21.8868 H         1 UNK         0.0000 
     43 H43         2.7077   54.5628   22.1735 H         1 UNK         0.0000 
     44 H44         1.3551   54.8972   23.2064 H         1 UNK         0.0000 
     45 H45         5.1336   54.6698   23.7462 H         1 UNK         0.0000 
     46 H46         5.5827   54.1902   26.3501 H         1 UNK         0.0000 
     47 H47         4.9874   53.4613   28.5982 H         1 UNK         0.0000 
     48 H48         4.3008   52.7718   30.8507 H         1 UNK         0.0000 
     49 H49         0.2464   52.3365   29.4926 H         1 UNK         0.0000 
     50 H50         0.9293   53.0106   27.2274 H         1 UNK         0.0000 
     51 H51         3.3406   51.3283   18.5406 H         1 UNK         0.0000 
     52 H52         4.3961   53.1972   17.3955 H         1 UNK         0.0000 
     53 H53         0.5618   54.8879   16.5193 H         1 UNK         0.0000 
     54 H54        -0.5387   53.0258   17.6827 H         1 UNK         0.0000 
@<TRIPOS>BOND
     1    1    2 1    
     2    1   34 1    
     3    1   35 1    
     4    1   36 1    
     5    2    3 1    
     6    2   37 1    
     7    2   38 1    
     8    3    9 1    
     9    3    4 1    
    10    3   27 1    
    11    4    5 2    
    12    4    6 am   BACKBONE|DICT|INTERRES
    13    6    7 am   BACKBONE|DICT|INTERRES
    14    6   10 1    
    15    7    8 2    
    16    7    9 am   BACKBONE|DICT|INTERRES
    17    9   39 1    
    18   10   11 1    
    19   10   40 1    
    20   10   41 1    
    21   11   12 2    
    22   11   13 am   BACKBONE|DICT|INTERRES
    23   13   14 1    
    24   13   42 1    
    25   14   15 1    
    26   14   43 1    
    27   14   44 1    
    28   15   19 1    
    29   15   16 2    
    30   16   17 1    
    31   16   45 1    
    32   17   18 2    
    33   17   46 1    
    34   18   19 1    
    35   18   20 1    
    36   20   25 ar   
    37   20   21 ar   
    38   21   22 ar   
    39   21   47 1    
    40   22   23 ar   
    41   22   48 1    
    42   23   24 ar   
    43   23   26 1    
    44   24   25 ar   
    45   24   49 1    
    46   25   50 1    
    47   27   32 ar   
    48   27   28 ar   
    49   28   29 ar   
    50   28   51 1    
    51   29   30 ar   
    52   29   52 1    
    53   30   31 ar   
    54   30   33 1    
    55   31   32 ar   
    56   31   53 1    
    57   32   54 1    
@<TRIPOS>SUBSTRUCTURE
     1 UNK         1 GROUP             0       ****    0 ROOT    
