@<TRIPOS>MOLECULE
ZINC13349230_4929
58   61    1
SMALL
USER_CHARGES


@<TRIPOS>ATOM
      1 C1          9.6527   50.4896   16.1339 C.3       1 UNK         0.0000 
      2 C2          9.3821   51.9219   16.5564 C.ar      1 UNK         0.0000 
      3 C3          8.0704   52.3923   16.6172 C.ar      1 UNK         0.0000 
      4 C4          7.8193   53.7043   17.0074 C.ar      1 UNK         0.0000 
      5 C5          8.8827   54.5446   17.3465 C.ar      1 UNK         0.0000 
      6 C6         10.1968   54.0765   17.2829 C.ar      1 UNK         0.0000 
      7 C7         10.4451   52.7663   16.8812 C.ar      1 UNK         0.0000 
      8 S8          8.5649   56.2135   17.9091 S.o2      1 UNK         0.0000 
      9 O9          7.2610   56.6354   17.3896 O.2       1 UNK         0.0000 
     10 O10         9.7734   57.0075   17.6578 O.2       1 UNK         0.0000 
     11 N11         8.4384   56.0753   19.6695 N.pl3     1 UNK         0.0000 
     12 C12         7.3775   55.5864   20.3867 C.2       1 UNK         0.0000 
     13 N13         7.4438   55.4323   21.6765 N.2       1 UNK         0.0000 
     14 C14         6.3004   54.8972   22.1876 C.ar      1 UNK         0.0000 
     15 C15         6.0720   54.6097   23.5469 C.ar      1 UNK         0.0000 
     16 C16         4.8234   54.0961   23.8999 C.ar      1 UNK         0.0000 
     17 C17         3.8232   53.8370   22.9511 C.ar      1 UNK         0.0000 
     18 C18         4.0505   54.0909   21.5991 C.ar      1 UNK         0.0000 
     19 C19         5.2872   54.6319   21.2279 C.ar      1 UNK         0.0000 
     20 S20         5.8704   55.0896   19.6383 S.3       1 UNK         0.0000 
     21 N21         2.5923   53.2514   23.2937 N.am      1 UNK         0.0000 
     22 C22         1.9611   53.3184   24.4830 C.2       1 UNK         0.0000 
     23 O23         2.2675   54.0964   25.3878 O.2       1 UNK         0.0000 
     24 N24         0.9652   52.4169   24.5535 N.am      1 UNK         0.0000 
     25 C25         0.0867   52.2018   25.6322 C.ar      1 UNK         0.0000 
     26 C26        -1.2673   52.0991   25.2969 C.ar      1 UNK         0.0000 
     27 C27        -2.2283   51.8573   26.2770 C.ar      1 UNK         0.0000 
     28 C28        -1.8242   51.6857   27.6004 C.ar      1 UNK         0.0000 
     29 C29        -0.4801   51.7736   27.9453 C.ar      1 UNK         0.0000 
     30 C30         0.5014   52.0341   26.9751 C.ar      1 UNK         0.0000 
     31 O31         1.8502   52.0976   27.2795 O.3       1 UNK         0.0000 
     32 C32         2.2874   51.9334   28.6230 C.3       1 UNK         0.0000 
     33 C33        -3.6949   51.7484   25.9043 C.3       1 UNK         0.0000 
     34 C34         7.1018   54.8213   24.6354 C.3       1 UNK         0.0000 
     35 H35         8.9393   50.1659   15.3769 H         1 UNK         0.0000 
     36 H36        10.6453   50.3856   15.6935 H         1 UNK         0.0000 
     37 H37         9.5754   49.8180   16.9907 H         1 UNK         0.0000 
     38 H38         7.2436   51.7404   16.3736 H         1 UNK         0.0000 
     39 H39         6.8003   54.0606   17.0519 H         1 UNK         0.0000 
     40 H40        11.0226   54.7209   17.5524 H         1 UNK         0.0000 
     41 H41        11.4619   52.4068   16.8416 H         1 UNK         0.0000 
     42 H42         9.3219   56.2439   20.1238 H         1 UNK         0.0000 
     43 H43         4.6499   53.8554   24.9386 H         1 UNK         0.0000 
     44 H44         3.2924   53.8914   20.8523 H         1 UNK         0.0000 
     45 H45         2.1183   52.7689   22.5447 H         1 UNK         0.0000 
     46 H46         0.7108   51.9512   23.6953 H         1 UNK         0.0000 
     47 H47        -1.5823   52.2178   24.2698 H         1 UNK         0.0000 
     48 H48        -2.5513   51.4634   28.3696 H         1 UNK         0.0000 
     49 H49        -0.2179   51.6154   28.9817 H         1 UNK         0.0000 
     50 H50         3.3714   52.0472   28.6612 H         1 UNK         0.0000 
     51 H51         1.8502   52.6872   29.2796 H         1 UNK         0.0000 
     52 H52         2.0421   50.9383   28.9963 H         1 UNK         0.0000 
     53 H53        -4.2306   51.1062   26.6054 H         1 UNK         0.0000 
     54 H54        -3.8107   51.2993   24.9174 H         1 UNK         0.0000 
     55 H55        -4.1617   52.7317   25.8961 H         1 UNK         0.0000 
     56 H56         7.9042   54.1017   24.4822 H         1 UNK         0.0000 
     57 H57         7.5045   55.8298   24.5627 H         1 UNK         0.0000 
     58 H58         6.6949   54.6922   25.6377 H         1 UNK         0.0000 
@<TRIPOS>BOND
     1    1    2 1    
     2    1   35 1    
     3    1   36 1    
     4    1   37 1    
     5    2    7 ar   
     6    2    3 ar   
     7    3    4 ar   
     8    3   38 1    
     9    4    5 ar   
    10    4   39 1    
    11    5    6 ar   
    12    5    8 1    
    13    6    7 ar   
    14    6   40 1    
    15    7   41 1    
    16    8    9 2    
    17    8   10 2    
    18    8   11 1    
    19   11   12 1    
    20   11   42 1    
    21   12   20 1    
    22   12   13 2    
    23   13   14 1    
    24   14   19 ar   
    25   14   15 ar   
    26   15   16 ar   
    27   15   34 1    
    28   16   17 ar   
    29   16   43 1    
    30   17   18 ar   
    31   17   21 1    
    32   18   19 ar   
    33   18   44 1    
    34   19   20 1    
    35   21   22 am   BACKBONE|DICT|INTERRES
    36   21   45 1    
    37   22   23 2    
    38   22   24 am   BACKBONE|DICT|INTERRES
    39   24   25 1    
    40   24   46 1    
    41   25   30 ar   
    42   25   26 ar   
    43   26   27 ar   
    44   26   47 1    
    45   27   28 ar   
    46   27   33 1    
    47   28   29 ar   
    48   28   48 1    
    49   29   30 ar   
    50   29   49 1    
    51   30   31 1    
    52   31   32 1    
    53   32   50 1    
    54   32   51 1    
    55   32   52 1    
    56   33   53 1    
    57   33   54 1    
    58   33   55 1    
    59   34   56 1    
    60   34   57 1    
    61   34   58 1    
@<TRIPOS>SUBSTRUCTURE
     1 UNK         1 GROUP             0       ****    0 ROOT    
