ZINC02399267_1963
                    3D
 Schrodinger Suite 2024-2.
 41 43  0  0  1  0            999 V2000
    6.0783   54.3734   26.3758 C   0  0  0  0  0  0
    6.7155   55.0809   25.3178 O   0  0  0  0  0  0
    6.3190   54.8428   24.0147 C   0  0  0  0  0  0
    6.9867   55.5445   23.0219 C   0  0  0  0  0  0
    6.6540   55.4013   21.6815 C   0  0  0  0  0  0
    5.6658   54.4883   21.2662 C   0  0  0  0  0  0
    5.0108   53.7630   22.2861 C   0  0  0  0  0  0
    5.3116   53.9545   23.6333 C   0  0  0  0  0  0
    5.3931   54.2660   19.8604 N   0  0  0  0  0  0
    6.1984   54.6229   18.8355 C   0  0  0  0  0  0
    7.3191   55.1408   18.8479 O   0  0  0  0  0  0
    5.4189   54.2245   17.5914 C   0  0  2  0  0  0
    4.3569   53.3987   18.0099 N   0  5  0  0  0  0
    4.3353   53.5862   19.3120 C   0  0  0  0  0  0
    3.4102   53.1358   19.9825 O   0  0  0  0  0  0
    6.4074   53.4804   16.6140 C   0  0  0  0  0  0
    7.3032   54.3141   16.0739 F   0  0  0  0  0  0
    7.1038   52.4968   17.1913 F   0  0  0  0  0  0
    5.7608   52.9357   15.5775 F   0  0  0  0  0  0
    4.8021   55.3348   16.8218 N   0  0  0  0  0  0
    4.6829   56.6641   17.0240 C   0  0  0  0  0  0
    5.1034   57.2580   18.0173 O   0  0  0  0  0  0
    3.9272   57.4003   15.9416 C   0  0  0  0  0  0
    3.9459   56.9580   14.6074 C   0  0  0  0  0  0
    3.2379   57.6481   13.6266 C   0  0  0  0  0  0
    2.5109   58.7845   13.9680 C   0  0  0  0  0  0
    2.4883   59.2370   15.2827 C   0  0  0  0  0  0
    3.1952   58.5499   16.2658 C   0  0  0  0  0  0
    1.8229   59.4520   13.0140 F   0  0  0  0  0  0
    6.5131   54.6817   27.3272 H   0  0  0  0  0  0
    5.0095   54.5894   26.4152 H   0  0  0  0  0  0
    6.2228   53.2962   26.2812 H   0  0  0  0  0  0
    7.7881   56.2060   23.3010 H   0  0  0  0  0  0
    7.2063   56.0113   20.9862 H   0  0  0  0  0  0
    4.2654   53.0136   22.0813 H   0  0  0  0  0  0
    4.7719   53.3756   24.3666 H   0  0  0  0  0  0
    4.2593   54.9841   16.0492 H   0  0  0  0  0  0
    4.5142   56.0863   14.3128 H   0  0  0  0  0  0
    3.2547   57.3074   12.6019 H   0  0  0  0  0  0
    1.9360   60.1270   15.5443 H   0  0  0  0  0  0
    3.1671   58.9282   17.2784 H   0  0  0  0  0  0
  1  2  1  0  0  0
  1 30  1  0  0  0
  1 31  1  0  0  0
  1 32  1  0  0  0
  2  3  1  0  0  0
  3  8  2  0  0  0
  3  4  1  0  0  0
  4  5  2  0  0  0
  4 33  1  0  0  0
  5  6  1  0  0  0
  5 34  1  0  0  0
  6  7  2  0  0  0
  6  9  1  0  0  0
  7  8  1  0  0  0
  7 35  1  0  0  0
  8 36  1  0  0  0
  9 14  1  0  0  0
  9 10  1  0  0  0
 10 11  2  0  0  0
 10 12  1  0  0  0
 12 13  1  0  0  0
 12 16  1  0  0  0
 12 20  1  0  0  0
 13 14  1  0  0  0
 14 15  2  0  0  0
 16 17  1  0  0  0
 16 18  1  0  0  0
 16 19  1  0  0  0
 20 21  1  0  0  0
 20 37  1  0  0  0
 21 22  2  0  0  0
 21 23  1  0  0  0
 23 28  2  0  0  0
 23 24  1  0  0  0
 24 25  2  0  0  0
 24 38  1  0  0  0
 25 26  1  0  0  0
 25 39  1  0  0  0
 26 27  2  0  0  0
 26 29  1  0  0  0
 27 28  1  0  0  0
 27 40  1  0  0  0
 28 41  1  0  0  0
M  CHG  1  13  -1
M  END
> <i_i_glide_confnum>
21

> <i_i_glide_lignum>
1964

> <i_i_glide_posenum>
316

> <i_i_glide_rotatable_bonds>
6

> <i_m_Source_File_Index>
1821

> <b_m_subgroup_collapsed>
0

> <r_i_docking_score>
-3.51561

> <r_i_glide_ecoul>
-0.798961

> <r_i_glide_eff_state_penalty>
0

> <r_i_glide_einternal>
7.51194

> <r_i_glide_emodel>
-29.5109

> <r_i_glide_energy>
-26.9237

> <r_i_glide_erotb>
0.468059

> <r_i_glide_esite>
-0.119686

> <r_i_glide_evdw>
-26.1247

> <r_i_glide_gscore>
-3.51561

> <r_i_glide_hbond>
-0.184607

> <r_i_glide_ligand_efficiency>
-0.121228

> <r_i_glide_ligand_efficiency_ln>
-0.804985

> <r_i_glide_ligand_efficiency_sa>
-0.37245

> <r_i_glide_lipo>
-1.53784

> <r_i_glide_metal>
0

> <r_i_glide_rewards>
-0.71545

> <s_i_glide_gridfile>
wee1_glide-grid

> <s_m_Source_File>
wee1_decoys_glide_SP.sdf

> <s_m_Source_Path>
/Users/zhangxujun/Desktop

> <s_m_entry_id>
2096

> <s_m_entry_name>
wee1_decoys_glide_SP.1821

> <s_m_subgroup_title>
wee1_decoys_glide_SP

> <s_m_subgroupid>
wee1_decoys_glide_SP


$$$$
