@<TRIPOS>MOLECULE
ZINC35664213_1079
74   77    1
SMALL
USER_CHARGES


@<TRIPOS>ATOM
      1 C1         -0.4486   48.0822   23.6394 C.3       1 UNK         0.0000 
      2 C2         -1.0382   48.1833   25.0541 C.3       1 UNK         0.0000 
      3 N3         -2.4160   48.7390   25.0586 N.am      1 UNK         0.0000 
      4 C4         -2.7071   50.1100   25.0657 C.2       1 UNK         0.0000 
      5 C5         -3.9987   50.5632   25.0119 C.2       1 UNK         0.0000 
      6 C6         -5.1237   49.5390   24.7413 C.3       1 UNK         0.0000 
      7 H7         -6.0170   49.7731   25.3232 H         1 UNK         0.0000 
      8 N8         -4.6583   48.2109   25.1849 N.am      1 UNK         0.0000 
      9 C9         -3.3891   47.7609   25.0777 C.2       1 UNK         0.0000 
     10 O10        -3.2292   46.5500   24.9011 O.2       1 UNK         0.0000 
     11 C11        -5.6103   49.5669   23.2838 C.ar      1 UNK         0.0000 
     12 C12        -6.8999   50.0217   22.9745 C.ar      1 UNK         0.0000 
     13 C13        -7.3331   50.0898   21.6516 C.ar      1 UNK         0.0000 
     14 C14        -6.4816   49.6971   20.6191 C.ar      1 UNK         0.0000 
     15 C15        -5.1972   49.2418   20.9103 C.ar      1 UNK         0.0000 
     16 C16        -4.7630   49.1779   22.2352 C.ar      1 UNK         0.0000 
     17 F17        -4.3691   48.8681   19.9112 F         1 UNK         0.0000 
     18 C18        -4.4104   52.0056   25.0492 C.2       1 UNK         0.0000 
     19 O19        -3.6392   52.9540   25.2078 O.2       1 UNK         0.0000 
     20 O20        -5.7460   52.1956   24.9137 O.3       1 UNK         0.0000 
     21 C21        -6.3107   53.5016   24.9085 C.3       1 UNK         0.0000 
     22 C22        -7.8284   53.3925   24.7391 C.3       1 UNK         0.0000 
     23 C23        -1.4587   51.0250   25.1525 C.3       1 UNK         0.0000 
     24 N24        -0.8032   51.0829   26.5541 N.4       1 UNK         0.0000 
     25 C25        -1.7585   51.6889   27.5973 C.3       1 UNK         0.0000 
     26 C26        -1.2266   51.5867   29.0293 C.3       1 UNK         0.0000 
     27 C27        -0.2397   52.6780   29.4913 C.3       1 UNK         0.0000 
     28 N28         1.0295   52.7957   28.7469 N.am      1 UNK         0.0000 
     29 C29         1.3738   51.7245   27.7898 C.3       1 UNK         0.0000 
     30 C30         0.5718   51.7788   26.4755 C.3       1 UNK         0.0000 
     31 C31         1.8546   53.8461   29.0348 C.2       1 UNK         0.0000 
     32 O32         1.6299   54.6313   29.9637 O.2       1 UNK         0.0000 
     33 C33         3.1011   54.0687   28.2113 C.ar      1 UNK         0.0000 
     34 C34         3.0389   54.1368   26.8121 C.ar      1 UNK         0.0000 
     35 C35         4.1890   54.3536   26.0627 C.ar      1 UNK         0.0000 
     36 C36         5.4115   54.5175   26.7072 C.ar      1 UNK         0.0000 
     37 C37         5.4825   54.4851   28.1002 C.ar      1 UNK         0.0000 
     38 C38         4.3286   54.2651   28.8505 C.ar      1 UNK         0.0000 
     39 C39         6.6637   54.7305   25.8875 C.3       1 UNK         0.0000 
     40 H40         0.6235   47.9051   23.7015 H         1 UNK         0.0000 
     41 H41        -0.8957   47.2520   23.0900 H         1 UNK         0.0000 
     42 H42        -0.6031   48.9821   23.0473 H         1 UNK         0.0000 
     43 H43        -0.3775   48.7436   25.7129 H         1 UNK         0.0000 
     44 H44        -1.0108   47.1794   25.4875 H         1 UNK         0.0000 
     45 H45        -5.3431   47.4728   25.1894 H         1 UNK         0.0000 
     46 H46        -7.5709   50.3384   23.7599 H         1 UNK         0.0000 
     47 H47        -8.3256   50.4496   21.4267 H         1 UNK         0.0000 
     48 H48        -6.8142   49.7472   19.5935 H         1 UNK         0.0000 
     49 H49        -3.7604   48.8363   22.4363 H         1 UNK         0.0000 
     50 H50        -6.0739   54.0140   25.8433 H         1 UNK         0.0000 
     51 H51        -5.8869   54.0885   24.0916 H         1 UNK         0.0000 
     52 H52        -8.2880   54.3814   24.7146 H         1 UNK         0.0000 
     53 H53        -8.0839   52.8861   23.8065 H         1 UNK         0.0000 
     54 H54        -8.2773   52.8320   25.5610 H         1 UNK         0.0000 
     55 H55        -1.5836   52.0533   24.8281 H         1 UNK         0.0000 
     56 H56        -0.6923   50.6410   24.4864 H         1 UNK         0.0000 
     57 H57        -2.6634   51.0840   27.5247 H         1 UNK         0.0000 
     58 H58        -1.9768   52.7049   27.2657 H         1 UNK         0.0000 
     59 H59        -0.7715   50.6111   29.1794 H         1 UNK         0.0000 
     60 H60        -2.0930   51.5828   29.6840 H         1 UNK         0.0000 
     61 H61        -0.0028   52.4842   30.5409 H         1 UNK         0.0000 
     62 H62        -0.7410   53.6458   29.4605 H         1 UNK         0.0000 
     63 H63         2.4402   51.7450   27.5633 H         1 UNK         0.0000 
     64 H64         1.2423   50.7547   28.2661 H         1 UNK         0.0000 
     65 H65         0.3757   52.7907   26.1216 H         1 UNK         0.0000 
     66 H66         1.1045   51.2431   25.6918 H         1 UNK         0.0000 
     67 H67         2.1004   54.0551   26.2928 H         1 UNK         0.0000 
     68 H68         4.1277   54.4005   24.9858 H         1 UNK         0.0000 
     69 H69         6.4278   54.6072   28.6050 H         1 UNK         0.0000 
     70 H70         4.3998   54.2402   29.9276 H         1 UNK         0.0000 
     71 H71         6.6582   54.1021   24.9958 H         1 UNK         0.0000 
     72 H72         6.7553   55.7730   25.5789 H         1 UNK         0.0000 
     73 H73         7.5307   54.4422   26.4727 H         1 UNK         0.0000 
     74 H74        -0.6533   50.1256   26.8517 H         1 UNK         0.0000 
@<TRIPOS>BOND
     1    1    2 1    
     2    1   40 1    
     3    1   41 1    
     4    1   42 1    
     5    2    3 1    
     6    2   43 1    
     7    2   44 1    
     8    3    9 am   BACKBONE|DICT|INTERRES
     9    3    4 1    
    10    4    5 2    
    11    4   23 1    
    12    5    6 1    
    13    5   18 1    
    14    6    7 1    
    15    6    8 1    
    16    6   11 1    
    17    8    9 am   BACKBONE|DICT|INTERRES
    18    8   45 1    
    19    9   10 2    
    20   11   16 ar   
    21   11   12 ar   
    22   12   13 ar   
    23   12   46 1    
    24   13   14 ar   
    25   13   47 1    
    26   14   15 ar   
    27   14   48 1    
    28   15   16 ar   
    29   15   17 1    
    30   16   49 1    
    31   18   19 2    
    32   18   20 1    
    33   20   21 1    
    34   21   22 1    
    35   21   50 1    
    36   21   51 1    
    37   22   52 1    
    38   22   53 1    
    39   22   54 1    
    40   23   24 1    
    41   23   55 1    
    42   23   56 1    
    43   24   30 1    
    44   24   25 1    
    45   24   74 1    
    46   25   26 1    
    47   25   57 1    
    48   25   58 1    
    49   26   27 1    
    50   26   59 1    
    51   26   60 1    
    52   27   28 1    
    53   27   61 1    
    54   27   62 1    
    55   28   29 1    
    56   28   31 am   BACKBONE|DICT|INTERRES
    57   29   30 1    
    58   29   63 1    
    59   29   64 1    
    60   30   65 1    
    61   30   66 1    
    62   31   32 2    
    63   31   33 1    
    64   33   38 ar   
    65   33   34 ar   
    66   34   35 ar   
    67   34   67 1    
    68   35   36 ar   
    69   35   68 1    
    70   36   37 ar   
    71   36   39 1    
    72   37   38 ar   
    73   37   69 1    
    74   38   70 1    
    75   39   71 1    
    76   39   72 1    
    77   39   73 1    
@<TRIPOS>SUBSTRUCTURE
     1 UNK         1 GROUP             0       ****    0 ROOT    
