@<TRIPOS>MOLECULE
ZINC61079799_3903
41   43    1
SMALL
USER_CHARGES


@<TRIPOS>ATOM
      1 C1          3.4225   54.2986   25.2740 C.ar      1 UNK         0.0000 
      2 C2          3.7100   54.2610   26.6509 C.ar      1 UNK         0.0000 
      3 C3          5.0623   54.1600   27.0464 C.ar      1 UNK         0.0000 
      4 C4          6.0735   54.0963   26.0861 C.ar      1 UNK         0.0000 
      5 C5          5.7650   54.0972   24.7279 C.ar      1 UNK         0.0000 
      6 C6          4.4324   54.1743   24.3202 C.ar      1 UNK         0.0000 
      7 N7          4.0972   54.1197   22.9645 N.pl3     1 UNK         0.0000 
      8 F8          6.7634   54.0017   23.8162 F         1 UNK         0.0000 
      9 Br9         5.6028   54.0977   28.8800 Br        1 UNK         0.0000 
     10 C10         2.5959   54.3704   27.6813 C.2       1 UNK         0.0000 
     11 O11         2.7139   55.2378   28.5531 O.2       1 UNK         0.0000 
     12 N12         1.5007   53.5495   27.6137 N.am      1 UNK         0.0000 
     13 C13         0.4060   53.7691   28.5978 C.3       1 UNK         0.0000 
     14 C14        -0.0321   52.4073   29.1615 C.3       1 UNK         0.0000 
     15 C15        -0.4830   51.4572   28.0470 C.3       1 UNK         0.0000 
     16 H16        -0.7040   50.4973   28.5072 H         1 UNK         0.0000 
     17 C17        -1.7583   51.8785   27.2771 C.3       1 UNK         0.0000 
     18 C18        -2.1475   50.8599   26.1913 C.3       1 UNK         0.0000 
     19 C19        -0.9715   50.5828   25.2377 C.3       1 UNK         0.0000 
     20 C20         0.3026   50.1901   26.0086 C.3       1 UNK         0.0000 
     21 C21         0.7029   51.2297   27.0924 C.3       1 UNK         0.0000 
     22 H22         1.4976   50.7786   27.6893 H         1 UNK         0.0000 
     23 C23         1.2724   52.5561   26.5256 C.3       1 UNK         0.0000 
     24 H24         2.4057   54.4258   24.9290 H         1 UNK         0.0000 
     25 H25         7.1040   54.0155   26.4037 H         1 UNK         0.0000 
     26 H26         4.8414   54.0526   22.2821 H         1 UNK         0.0000 
     27 H27         3.1314   54.1765   22.6734 H         1 UNK         0.0000 
     28 H28         0.7077   54.3743   29.4542 H         1 UNK         0.0000 
     29 H29        -0.4263   54.2522   28.0890 H         1 UNK         0.0000 
     30 H30         0.7763   51.9683   29.7486 H         1 UNK         0.0000 
     31 H31        -0.8563   52.5726   29.8550 H         1 UNK         0.0000 
     32 H32        -2.5820   52.0033   27.9764 H         1 UNK         0.0000 
     33 H33        -1.6216   52.8576   26.8194 H         1 UNK         0.0000 
     34 H34        -3.0116   51.2220   25.6332 H         1 UNK         0.0000 
     35 H35        -2.4566   49.9277   26.6671 H         1 UNK         0.0000 
     36 H36        -0.7726   51.4652   24.6292 H         1 UNK         0.0000 
     37 H37        -1.2421   49.7888   24.5408 H         1 UNK         0.0000 
     38 H38         1.1044   50.0384   25.2903 H         1 UNK         0.0000 
     39 H39         0.1371   49.2220   26.4812 H         1 UNK         0.0000 
     40 H40         0.5758   52.9753   25.7979 H         1 UNK         0.0000 
     41 H41         2.2060   52.2604   26.0495 H         1 UNK         0.0000 
@<TRIPOS>BOND
     1    1    6 ar   
     2    1    2 ar   
     3    1   24 1    
     4    2    3 ar   
     5    2   10 1    
     6    3    4 ar   
     7    3    9 1    
     8    4    5 ar   
     9    4   25 1    
    10    5    6 ar   
    11    5    8 1    
    12    6    7 1    
    13    7   26 1    
    14    7   27 1    
    15   10   11 2    
    16   10   12 am   BACKBONE|DICT|INTERRES
    17   12   23 1    
    18   12   13 1    
    19   13   14 1    
    20   13   28 1    
    21   13   29 1    
    22   14   15 1    
    23   14   30 1    
    24   14   31 1    
    25   15   16 1    
    26   15   21 1    
    27   15   17 1    
    28   17   18 1    
    29   17   32 1    
    30   17   33 1    
    31   18   19 1    
    32   18   34 1    
    33   18   35 1    
    34   19   20 1    
    35   19   36 1    
    36   19   37 1    
    37   20   21 1    
    38   20   38 1    
    39   20   39 1    
    40   21   22 1    
    41   21   23 1    
    42   23   40 1    
    43   23   41 1    
@<TRIPOS>SUBSTRUCTURE
     1 UNK         1 GROUP             0       ****    0 ROOT    
