@<TRIPOS>MOLECULE
ZINC08566471_5068
56   60    1
SMALL
USER_CHARGES


@<TRIPOS>ATOM
      1 C1          3.7393   54.0874   21.3843 C.3       1 UNK         0.0000 
      2 O2          2.9797   52.8970   21.2199 O.3       1 UNK         0.0000 
      3 C3          2.3258   52.3519   22.3094 C.ar      1 UNK         0.0000 
      4 C4          2.1936   53.0112   23.5426 C.ar      1 UNK         0.0000 
      5 C5          1.6004   52.3894   24.6473 C.ar      1 UNK         0.0000 
      6 C6          1.1023   51.0924   24.4816 C.ar      1 UNK         0.0000 
      7 C7          1.1853   50.4423   23.2557 C.ar      1 UNK         0.0000 
      8 C8          1.7817   51.0699   22.1540 C.ar      1 UNK         0.0000 
      9 O9          1.8882   50.4844   20.9047 O.3       1 UNK         0.0000 
     10 C10         1.1169   49.3308   20.5644 C.3       1 UNK         0.0000 
     11 C11        -0.3878   49.6186   20.5723 C.ar      1 UNK         0.0000 
     12 C12        -1.2292   48.8375   21.3748 C.ar      1 UNK         0.0000 
     13 C13        -2.6006   49.0834   21.4142 C.ar      1 UNK         0.0000 
     14 C14        -3.1481   50.1059   20.6430 C.ar      1 UNK         0.0000 
     15 C15        -2.3226   50.8834   19.8326 C.ar      1 UNK         0.0000 
     16 C16        -0.9473   50.6460   19.7919 C.ar      1 UNK         0.0000 
     17 Cl17        0.0221   51.6402   18.7611 Cl        1 UNK         0.0000 
     18 C18         1.5256   53.1361   25.9943 C.3       1 UNK         0.0000 
     19 H19         1.1125   54.0939   25.6898 H         1 UNK         0.0000 
     20 C20         0.6063   52.5601   27.0995 C.ar      1 UNK         0.0000 
     21 C21        -0.7054   52.0062   27.1993 C.ar      1 UNK         0.0000 
     22 N22        -0.9963   51.6752   28.4506 N.2       1 UNK         0.0000 
     23 N23         0.0903   51.9335   29.1726 N.pl3     1 UNK         0.0000 
     24 H24         0.1429   51.7563   30.1658 H         1 UNK         0.0000 
     25 C25         1.0792   52.4398   28.3946 C.ar      1 UNK         0.0000 
     26 O26         2.3096   52.7672   28.8969 O.3       1 UNK         0.0000 
     27 C27         3.1526   53.2927   27.9674 C.2       1 UNK         0.0000 
     28 C28         2.8929   53.4852   26.6471 C.2       1 UNK         0.0000 
     29 C29         3.9125   54.0916   25.8494 C.1       1 UNK         0.0000 
     30 N30         4.7601   54.5977   25.2451 N.1       1 UNK         0.0000 
     31 N31         4.3271   53.5759   28.6111 N.pl3     1 UNK         0.0000 
     32 C32        -1.7230   51.7408   26.1238 C.ar      1 UNK         0.0000 
     33 C33        -1.7368   52.5003   24.9510 C.ar      1 UNK         0.0000 
     34 C34        -2.6726   52.2529   23.9504 C.ar      1 UNK         0.0000 
     35 C35        -3.6094   51.2373   24.1227 C.ar      1 UNK         0.0000 
     36 C36        -3.6102   50.4663   25.2819 C.ar      1 UNK         0.0000 
     37 C37        -2.6700   50.7179   26.2779 C.ar      1 UNK         0.0000 
     38 H38         4.2058   54.3521   20.4356 H         1 UNK         0.0000 
     39 H39         3.1100   54.9222   21.6861 H         1 UNK         0.0000 
     40 H40         4.5326   53.9553   22.1210 H         1 UNK         0.0000 
     41 H41         2.5693   54.0146   23.6565 H         1 UNK         0.0000 
     42 H42         0.6602   50.5609   25.3105 H         1 UNK         0.0000 
     43 H43         0.7957   49.4394   23.1884 H         1 UNK         0.0000 
     44 H44         1.4033   49.0247   19.5575 H         1 UNK         0.0000 
     45 H45         1.3812   48.4971   21.2148 H         1 UNK         0.0000 
     46 H46        -0.8238   48.0406   21.9814 H         1 UNK         0.0000 
     47 H47        -3.2385   48.4821   22.0451 H         1 UNK         0.0000 
     48 H48        -4.2113   50.2932   20.6718 H         1 UNK         0.0000 
     49 H49        -2.7500   51.6685   19.2284 H         1 UNK         0.0000 
     50 H50         5.0855   54.0180   28.1110 H         1 UNK         0.0000 
     51 H51         4.5609   53.0933   29.4649 H         1 UNK         0.0000 
     52 H52        -1.0218   53.2972   24.8154 H         1 UNK         0.0000 
     53 H53        -2.6715   52.8452   23.0475 H         1 UNK         0.0000 
     54 H54        -4.3398   51.0431   23.3508 H         1 UNK         0.0000 
     55 H55        -4.3329   49.6741   25.4101 H         1 UNK         0.0000 
     56 H56        -2.6700   50.1004   27.1664 H         1 UNK         0.0000 
@<TRIPOS>BOND
     1    1    2 1    
     2    1   38 1    
     3    1   39 1    
     4    1   40 1    
     5    2    3 1    
     6    3    8 ar   
     7    3    4 ar   
     8    4    5 ar   
     9    4   41 1    
    10    5    6 ar   
    11    5   18 1    
    12    6    7 ar   
    13    6   42 1    
    14    7    8 ar   
    15    7   43 1    
    16    8    9 1    
    17    9   10 1    
    18   10   11 1    
    19   10   44 1    
    20   10   45 1    
    21   11   16 ar   
    22   11   12 ar   
    23   12   13 ar   
    24   12   46 1    
    25   13   14 ar   
    26   13   47 1    
    27   14   15 ar   
    28   14   48 1    
    29   15   16 ar   
    30   15   49 1    
    31   16   17 1    
    32   18   19 1    
    33   18   28 1    
    34   18   20 1    
    35   20   25 ar   
    36   20   21 ar   
    37   21   22 ar   
    38   21   32 1    
    39   22   23 ar   
    40   23   24 1    
    41   23   25 ar   
    42   25   26 1    
    43   26   27 1    
    44   27   28 2    
    45   27   31 1    
    46   28   29 1    
    47   29   30 3    
    48   31   50 1    
    49   31   51 1    
    50   32   37 ar   
    51   32   33 ar   
    52   33   34 ar   
    53   33   52 1    
    54   34   35 ar   
    55   34   53 1    
    56   35   36 ar   
    57   35   54 1    
    58   36   37 ar   
    59   36   55 1    
    60   37   56 1    
@<TRIPOS>SUBSTRUCTURE
     1 UNK         1 GROUP             0       ****    0 ROOT    
