@<TRIPOS>MOLECULE
ZINC02188618_5276
60   63    1
SMALL
USER_CHARGES


@<TRIPOS>ATOM
      1 C1          0.1844   49.2305   25.3704 C.3       1 UNK         0.0000 
      2 C2         -0.1325   50.7006   25.7696 C.3       1 UNK         0.0000 
      3 C3          0.4130   51.7087   24.7132 C.3       1 UNK         0.0000 
      4 C4         -0.3183   51.6101   23.3461 C.2       1 UNK         0.0000 
      5 C5         -1.5867   51.0983   23.2795 C.2       1 UNK         0.0000 
      6 C6         -2.2813   50.7845   21.9333 C.3       1 UNK         0.0000 
      7 H7         -3.2970   51.1890   21.9306 H         1 UNK         0.0000 
      8 C8         -1.5036   51.4138   20.7659 C.2       1 UNK         0.0000 
      9 C9         -0.2489   51.9152   20.9066 C.2       1 UNK         0.0000 
     10 N10         0.3847   51.9529   22.1669 N.pl3     1 UNK         0.0000 
     11 C11         1.7044   52.4783   22.2650 C.ar      1 UNK         0.0000 
     12 C12         1.9302   53.6956   22.9194 C.ar      1 UNK         0.0000 
     13 C13         3.2136   54.2246   22.9916 C.ar      1 UNK         0.0000 
     14 C14         4.2706   53.5676   22.3698 C.ar      1 UNK         0.0000 
     15 C15         4.0562   52.3738   21.6818 C.ar      1 UNK         0.0000 
     16 C16         2.7790   51.8170   21.6522 C.ar      1 UNK         0.0000 
     17 Br17        6.0209   54.3088   22.4813 Br        1 UNK         0.0000 
     18 N18         0.4472   52.4934   19.8573 N.pl3     1 UNK         0.0000 
     19 C19        -2.1993   51.3863   19.4665 C.2       1 UNK         0.0000 
     20 O20        -3.2950   51.9268   19.2939 O.2       1 UNK         0.0000 
     21 O21        -1.5238   50.6926   18.5229 O.3       1 UNK         0.0000 
     22 C22        -2.0571   50.5454   17.2148 C.3       1 UNK         0.0000 
     23 C23        -2.5379   49.2721   21.7636 C.ar      1 UNK         0.0000 
     24 C24        -1.4904   48.4285   21.3787 C.ar      1 UNK         0.0000 
     25 C25        -1.6949   47.0563   21.2728 C.ar      1 UNK         0.0000 
     26 C26        -2.9507   46.5025   21.5619 C.ar      1 UNK         0.0000 
     27 C27        -3.9955   47.3459   21.9380 C.ar      1 UNK         0.0000 
     28 C28        -3.7960   48.7214   22.0325 C.ar      1 UNK         0.0000 
     29 O29        -3.2346   45.1507   21.5080 O.3       1 UNK         0.0000 
     30 C30        -2.2393   44.2566   21.0269 C.3       1 UNK         0.0000 
     31 C31        -2.3796   50.8089   24.5017 C.2       1 UNK         0.0000 
     32 O32        -3.6033   50.6900   24.4690 O.2       1 UNK         0.0000 
     33 C33        -1.6618   50.9169   25.8524 C.3       1 UNK         0.0000 
     34 C34         0.4349   51.0756   27.1577 C.3       1 UNK         0.0000 
     35 H35        -0.2491   48.5207   26.0802 H         1 UNK         0.0000 
     36 H36        -0.1907   48.9630   24.3830 H         1 UNK         0.0000 
     37 H37         1.2583   49.0443   25.3596 H         1 UNK         0.0000 
     38 H38         1.4662   51.4437   24.6090 H         1 UNK         0.0000 
     39 H39         0.3475   52.7425   25.0518 H         1 UNK         0.0000 
     40 H40         1.1089   54.2314   23.3718 H         1 UNK         0.0000 
     41 H41         3.3833   55.1511   23.5180 H         1 UNK         0.0000 
     42 H42         4.8773   51.8715   21.1909 H         1 UNK         0.0000 
     43 H43         2.6155   50.8857   21.1264 H         1 UNK         0.0000 
     44 H44         0.1052   52.4300   18.9100 H         1 UNK         0.0000 
     45 H45         1.2626   53.0689   20.0232 H         1 UNK         0.0000 
     46 H46        -1.3724   49.9605   16.5993 H         1 UNK         0.0000 
     47 H47        -3.0172   50.0283   17.2399 H         1 UNK         0.0000 
     48 H48        -2.1996   51.5162   16.7385 H         1 UNK         0.0000 
     49 H49        -0.5104   48.8377   21.1732 H         1 UNK         0.0000 
     50 H50        -0.8618   46.4376   20.9786 H         1 UNK         0.0000 
     51 H51        -4.9661   46.9302   22.1622 H         1 UNK         0.0000 
     52 H52        -4.6178   49.3545   22.3372 H         1 UNK         0.0000 
     53 H53        -2.6547   43.2503   20.9957 H         1 UNK         0.0000 
     54 H54        -1.3666   44.2359   21.6822 H         1 UNK         0.0000 
     55 H55        -1.9203   44.5137   20.0146 H         1 UNK         0.0000 
     56 H56        -2.1383   50.2443   26.5677 H         1 UNK         0.0000 
     57 H57        -1.8512   51.9337   26.1987 H         1 UNK         0.0000 
     58 H58        -0.0492   50.4970   27.9447 H         1 UNK         0.0000 
     59 H59         1.5041   50.8814   27.2338 H         1 UNK         0.0000 
     60 H60         0.2770   52.1282   27.3952 H         1 UNK         0.0000 
@<TRIPOS>BOND
     1    1    2 1    
     2    1   35 1    
     3    1   36 1    
     4    1   37 1    
     5    2   33 1    
     6    2    3 1    
     7    2   34 1    
     8    3    4 1    
     9    3   38 1    
    10    3   39 1    
    11    4   10 1    
    12    4    5 2    
    13    5    6 1    
    14    5   31 1    
    15    6    7 1    
    16    6    8 1    
    17    6   23 1    
    18    8    9 2    
    19    8   19 1    
    20    9   10 1    
    21    9   18 1    
    22   10   11 1    
    23   11   16 ar   
    24   11   12 ar   
    25   12   13 ar   
    26   12   40 1    
    27   13   14 ar   
    28   13   41 1    
    29   14   15 ar   
    30   14   17 1    
    31   15   16 ar   
    32   15   42 1    
    33   16   43 1    
    34   18   44 1    
    35   18   45 1    
    36   19   20 2    
    37   19   21 1    
    38   21   22 1    
    39   22   46 1    
    40   22   47 1    
    41   22   48 1    
    42   23   28 ar   
    43   23   24 ar   
    44   24   25 ar   
    45   24   49 1    
    46   25   26 ar   
    47   25   50 1    
    48   26   27 ar   
    49   26   29 1    
    50   27   28 ar   
    51   27   51 1    
    52   28   52 1    
    53   29   30 1    
    54   30   53 1    
    55   30   54 1    
    56   30   55 1    
    57   31   32 2    
    58   31   33 1    
    59   33   56 1    
    60   33   57 1    
    61   34   58 1    
    62   34   59 1    
    63   34   60 1    
@<TRIPOS>SUBSTRUCTURE
     1 UNK         1 GROUP             0       ****    0 ROOT    
