ZINC39673137_3074
                    3D
 Schrodinger Suite 2024-2.
 69 72  0  0  1  0            999 V2000
    6.9632   54.0347   27.7634 C   0  0  0  0  0  0
    5.9455   54.2287   26.6515 C   0  0  0  0  0  0
    6.3980   54.3599   25.3346 C   0  0  0  0  0  0
    5.4907   54.4963   24.2849 C   0  0  0  0  0  0
    4.1162   54.4973   24.5375 C   0  0  0  0  0  0
    3.6694   54.4353   25.8580 C   0  0  0  0  0  0
    4.5671   54.2852   26.9179 C   0  0  0  0  0  0
    4.0215   54.1696   28.3342 C   0  0  0  0  0  0
    3.1100   54.6712   23.4016 C   0  0  0  0  0  0
    2.6318   53.4208   22.8213 N   0  0  0  0  0  0
    3.3626   52.5686   22.0815 C   0  0  0  0  0  0
    4.5368   52.7805   21.7773 O   0  0  0  0  0  0
    2.6870   51.2634   21.5897 C   0  0  1  0  0  0
    3.4606   50.4966   21.6559 H   0  0  0  0  0  0
    1.4853   50.8063   22.4424 C   0  0  0  0  0  0
    0.3417   51.4486   21.7812 N   0  0  0  0  0  0
    0.6701   51.8300   20.3949 C   0  0  0  0  0  0
    2.1299   51.3724   20.1420 C   0  0  0  0  0  0
    2.1925   49.9503   19.5020 C   0  0  0  0  0  0
    1.5353   49.8819   18.1079 C   0  0  0  0  0  0
    2.2502   50.8968   17.1904 N   0  3  0  0  0  0
    2.2859   52.3324   17.7547 C   0  0  0  0  0  0
    2.9225   52.2798   19.1518 C   0  0  0  0  0  0
   -0.8966   51.6973   22.2929 C   0  0  0  0  0  0
   -1.8108   52.0963   21.5654 O   0  0  0  0  0  0
   -1.2000   51.5153   23.7690 C   0  0  0  0  0  0
   -2.4531   51.0200   24.1486 C   0  0  0  0  0  0
   -2.8133   50.9274   25.4908 C   0  0  0  0  0  0
   -1.9266   51.3283   26.5011 C   0  0  0  0  0  0
   -0.6645   51.8239   26.1406 C   0  0  0  0  0  0
   -0.3224   51.9318   24.7825 C   0  0  0  0  0  0
    0.3375   52.2222   27.2304 C   0  0  0  0  0  0
    0.5072   51.2320   28.1024 F   0  0  0  0  0  0
    1.5358   52.4940   26.7199 F   0  0  0  0  0  0
   -0.0918   53.2959   27.8948 F   0  0  0  0  0  0
   -2.2450   51.2969   27.8453 O   0  0  0  0  0  0
   -3.3382   50.4969   28.2839 C   0  0  0  0  0  0
    6.6411   54.4962   28.6951 H   0  0  0  0  0  0
    7.1358   52.9728   27.9414 H   0  0  0  0  0  0
    7.9042   54.5109   27.5076 H   0  0  0  0  0  0
    7.4527   54.3354   25.1075 H   0  0  0  0  0  0
    5.8602   54.5809   23.2726 H   0  0  0  0  0  0
    2.6118   54.4958   26.0596 H   0  0  0  0  0  0
    2.9314   54.1529   28.3608 H   0  0  0  0  0  0
    4.3776   53.2493   28.7992 H   0  0  0  0  0  0
    4.3652   55.0047   28.9452 H   0  0  0  0  0  0
    2.2487   55.2204   23.7841 H   0  0  0  0  0  0
    3.5272   55.2962   22.6100 H   0  0  0  0  0  0
    1.6576   53.2026   22.9576 H   0  0  0  0  0  0
    1.3848   49.7232   22.3616 H   0  0  0  0  0  0
    1.6541   51.0169   23.4951 H   0  0  0  0  0  0
    0.6744   52.9204   20.3738 H   0  0  0  0  0  0
   -0.0340   51.4983   19.6326 H   0  0  0  0  0  0
    3.2221   49.5944   19.4443 H   0  0  0  0  0  0
    1.6780   49.2270   20.1356 H   0  0  0  0  0  0
    1.6871   48.9072   17.6377 H   0  0  0  0  0  0
    0.4713   50.1215   18.0939 H   0  0  0  0  0  0
    3.2036   50.5443   17.0587 H   0  0  0  0  0  0
    2.8796   52.9209   17.0534 H   0  0  0  0  0  0
    1.2602   52.7043   17.7597 H   0  0  0  0  0  0
    2.9553   53.3046   19.5238 H   0  0  0  0  0  0
    3.9651   51.9663   19.0895 H   0  0  0  0  0  0
   -3.1706   50.7158   23.3993 H   0  0  0  0  0  0
   -3.7959   50.5509   25.7329 H   0  0  0  0  0  0
    0.6189   52.3910   24.5268 H   0  0  0  0  0  0
   -3.2872   50.3838   29.3674 H   0  0  0  0  0  0
   -4.2927   50.9642   28.0377 H   0  0  0  0  0  0
   -3.3061   49.4977   27.8518 H   0  0  0  0  0  0
    1.8342   50.8862   16.2693 H   0  0  0  0  0  0
  1  2  1  0  0  0
  1 38  1  0  0  0
  1 39  1  0  0  0
  1 40  1  0  0  0
  2  7  2  0  0  0
  2  3  1  0  0  0
  3  4  2  0  0  0
  3 41  1  0  0  0
  4  5  1  0  0  0
  4 42  1  0  0  0
  5  6  2  0  0  0
  5  9  1  0  0  0
  6  7  1  0  0  0
  6 43  1  0  0  0
  7  8  1  0  0  0
  8 44  1  0  0  0
  8 45  1  0  0  0
  8 46  1  0  0  0
  9 10  1  0  0  0
  9 47  1  0  0  0
  9 48  1  0  0  0
 10 11  1  0  0  0
 10 49  1  0  0  0
 11 12  2  0  0  0
 11 13  1  0  0  0
 13 14  1  0  0  0
 13 18  1  0  0  0
 13 15  1  0  0  0
 15 16  1  0  0  0
 15 50  1  0  0  0
 15 51  1  0  0  0
 16 17  1  0  0  0
 16 24  1  0  0  0
 17 18  1  0  0  0
 17 52  1  0  0  0
 17 53  1  0  0  0
 18 23  1  0  0  0
 18 19  1  0  0  0
 19 20  1  0  0  0
 19 54  1  0  0  0
 19 55  1  0  0  0
 20 21  1  0  0  0
 20 56  1  0  0  0
 20 57  1  0  0  0
 21 22  1  0  0  0
 21 58  1  0  0  0
 21 69  1  0  0  0
 22 23  1  0  0  0
 22 59  1  0  0  0
 22 60  1  0  0  0
 23 61  1  0  0  0
 23 62  1  0  0  0
 24 25  2  0  0  0
 24 26  1  0  0  0
 26 31  2  0  0  0
 26 27  1  0  0  0
 27 28  2  0  0  0
 27 63  1  0  0  0
 28 29  1  0  0  0
 28 64  1  0  0  0
 29 30  2  0  0  0
 29 36  1  0  0  0
 30 31  1  0  0  0
 30 32  1  0  0  0
 31 65  1  0  0  0
 32 33  1  0  0  0
 32 34  1  0  0  0
 32 35  1  0  0  0
 36 37  1  0  0  0
 37 66  1  0  0  0
 37 67  1  0  0  0
 37 68  1  0  0  0
M  CHG  1  21   1
M  END
> <i_i_glide_confnum>
266

> <i_i_glide_lignum>
3075

> <i_i_glide_posenum>
327

> <i_i_glide_rotatable_bonds>
8

> <i_m_Source_File_Index>
649

> <b_m_subgroup_collapsed>
0

> <r_i_docking_score>
-5.93282

> <r_i_glide_ecoul>
-7.47566

> <r_i_glide_eff_state_penalty>
0

> <r_i_glide_einternal>
7.31184

> <r_i_glide_emodel>
-64.9096

> <r_i_glide_energy>
-47.6954

> <r_i_glide_erotb>
0.481901

> <r_i_glide_esite>
-0.127206

> <r_i_glide_evdw>
-40.2197

> <r_i_glide_gscore>
-5.93282

> <r_i_glide_hbond>
-0.201226

> <r_i_glide_ligand_efficiency>
-0.164801

> <r_i_glide_ligand_efficiency_ln>
-1.29438

> <r_i_glide_ligand_efficiency_sa>
-0.54416

> <r_i_glide_lipo>
-2.43702

> <r_i_glide_metal>
0

> <r_i_glide_rewards>
-0.516935

> <s_i_glide_gridfile>
wee1_glide-grid

> <s_m_Source_File>
wee1_decoys_glide_SP.sdf

> <s_m_Source_Path>
/Users/zhangxujun/Desktop

> <s_m_entry_id>
924

> <s_m_entry_name>
wee1_decoys_glide_SP.649

> <s_m_subgroup_title>
wee1_decoys_glide_SP

> <s_m_subgroupid>
wee1_decoys_glide_SP


$$$$
