@<TRIPOS>MOLECULE
ZINC36899244_3899
39   41    1
SMALL
USER_CHARGES


@<TRIPOS>ATOM
      1 C1         -1.1508   48.6466   22.7627 C.3       1 UNK         0.0000 
      2 C2         -1.0906   50.1879   22.8161 C.3       1 UNK         0.0000 
      3 H3         -0.9970   50.5492   21.7890 H         1 UNK         0.0000 
      4 C4         -2.4061   50.7554   23.3928 C.3       1 UNK         0.0000 
      5 C5         -2.4430   52.2872   23.3065 C.3       1 UNK         0.0000 
      6 C6         -1.2629   52.8965   24.0814 C.3       1 UNK         0.0000 
      7 C7          0.1062   52.3026   23.6635 C.3       1 UNK         0.0000 
      8 H8          0.3213   52.6818   22.6643 H         1 UNK         0.0000 
      9 C9          0.1281   50.7366   23.6216 C.3       1 UNK         0.0000 
     10 H10         0.0192   50.3622   24.6401 H         1 UNK         0.0000 
     11 C11         1.4759   50.1939   23.0960 C.3       1 UNK         0.0000 
     12 N12         1.1514   52.8276   24.5707 N.pl3     1 UNK         0.0000 
     13 C13         1.2823   52.6070   25.9379 C.ar      1 UNK         0.0000 
     14 C14         0.5504   51.8787   26.8879 C.ar      1 UNK         0.0000 
     15 C15         1.0345   51.8773   28.2004 C.ar      1 UNK         0.0000 
     16 C16         2.1888   52.5699   28.5642 C.ar      1 UNK         0.0000 
     17 C17         2.9065   53.3107   27.6275 C.ar      1 UNK         0.0000 
     18 C18         2.4521   53.3263   26.3007 C.ar      1 UNK         0.0000 
     19 N19         2.9991   53.9651   25.2234 N.2       1 UNK         0.0000 
     20 C20         2.2177   53.6498   24.2279 C.ar      1 UNK         0.0000 
     21 N21         2.4523   54.0967   22.9616 N.pl3     1 UNK         0.0000 
     22 Br22        2.8027   52.4936   30.3648 Br        1 UNK         0.0000 
     23 H23        -1.1422   48.2075   23.7627 H         1 UNK         0.0000 
     24 H24        -2.0571   48.3040   22.2591 H         1 UNK         0.0000 
     25 H25        -0.3143   48.2278   22.2039 H         1 UNK         0.0000 
     26 H26        -3.2555   50.3470   22.8421 H         1 UNK         0.0000 
     27 H27        -2.5500   50.4104   24.4199 H         1 UNK         0.0000 
     28 H28        -2.4052   52.5966   22.2604 H         1 UNK         0.0000 
     29 H29        -3.3881   52.6619   23.7043 H         1 UNK         0.0000 
     30 H30        -1.2578   53.9651   23.8475 H         1 UNK         0.0000 
     31 H31        -1.4285   52.8416   25.1577 H         1 UNK         0.0000 
     32 H32         1.6432   50.4697   22.0536 H         1 UNK         0.0000 
     33 H33         1.5371   49.1073   23.1702 H         1 UNK         0.0000 
     34 H34         2.3078   50.5817   23.6800 H         1 UNK         0.0000 
     35 H35        -0.3421   51.3243   26.6376 H         1 UNK         0.0000 
     36 H36         0.4992   51.3134   28.9516 H         1 UNK         0.0000 
     37 H37         3.8018   53.8455   27.9105 H         1 UNK         0.0000 
     38 H38         3.2617   54.6708   22.7722 H         1 UNK         0.0000 
     39 H39         1.8750   53.8475   22.1709 H         1 UNK         0.0000 
@<TRIPOS>BOND
     1    1    2 1    
     2    1   23 1    
     3    1   24 1    
     4    1   25 1    
     5    2    3 1    
     6    2    9 1    
     7    2    4 1    
     8    4    5 1    
     9    4   26 1    
    10    4   27 1    
    11    5    6 1    
    12    5   28 1    
    13    5   29 1    
    14    6    7 1    
    15    6   30 1    
    16    6   31 1    
    17    7    8 1    
    18    7    9 1    
    19    7   12 1    
    20    9   10 1    
    21    9   11 1    
    22   11   32 1    
    23   11   33 1    
    24   11   34 1    
    25   12   20 ar   
    26   12   13 ar   
    27   13   18 ar   
    28   13   14 ar   
    29   14   15 ar   
    30   14   35 1    
    31   15   16 ar   
    32   15   36 1    
    33   16   17 ar   
    34   16   22 1    
    35   17   18 ar   
    36   17   37 1    
    37   18   19 ar   
    38   19   20 ar   
    39   20   21 1    
    40   21   38 1    
    41   21   39 1    
@<TRIPOS>SUBSTRUCTURE
     1 UNK         1 GROUP             0       ****    0 ROOT    
