@<TRIPOS>MOLECULE
ZINC39992136_137
55   58    1
SMALL
USER_CHARGES


@<TRIPOS>ATOM
      1 C1          1.9388   48.1393   19.6336 C.3       1 UNK         0.0000 
      2 C2          2.1839   49.6439   19.4601 C.3       1 UNK         0.0000 
      3 N3          2.2925   50.3433   20.7402 N.am      1 UNK         0.0000 
      4 C4          1.2522   50.7039   21.5124 C.2       1 UNK         0.0000 
      5 O5          0.0812   50.4844   21.2016 O.2       1 UNK         0.0000 
      6 C6          1.5816   51.4523   22.8229 C.3       1 UNK         0.0000 
      7 H7          2.6030   51.1756   23.0842 H         1 UNK         0.0000 
      8 C8          1.4596   52.9800   22.5989 C.3       1 UNK         0.0000 
      9 H9          0.6952   53.1837   21.8480 H         1 UNK         0.0000 
     10 S10         0.7050   53.6966   24.0778 S.3       1 UNK         0.0000 
     11 C11         0.3007   52.1237   24.7617 C.2       1 UNK         0.0000 
     12 C12         0.7205   51.0709   24.0253 C.2       1 UNK         0.0000 
     13 C13         0.5485   49.6289   24.5038 C.3       1 UNK         0.0000 
     14 C14        -0.5314   49.5032   25.6030 C.3       1 UNK         0.0000 
     15 C15        -0.3937   50.6066   26.6669 C.3       1 UNK         0.0000 
     16 C16        -0.4970   52.0164   26.0548 C.3       1 UNK         0.0000 
     17 N17         2.7124   53.5850   22.1195 N.am      1 UNK         0.0000 
     18 C18         3.7954   53.8662   22.8775 C.2       1 UNK         0.0000 
     19 O19         3.7925   53.6963   24.0972 O.2       1 UNK         0.0000 
     20 C20         4.9946   54.3449   22.2074 C.2       1 UNK         0.0000 
     21 C21         5.1968   54.2304   20.8675 C.2       1 UNK         0.0000 
     22 C22         6.3794   54.6771   20.1355 C.2       1 UNK         0.0000 
     23 C23         6.7380   54.3075   18.8870 C.2       1 UNK         0.0000 
     24 C24         6.0871   53.3853   17.9389 C.2       1 UNK         0.0000 
     25 C25         6.6419   53.1113   16.7424 C.2       1 UNK         0.0000 
     26 C26         7.9030   53.7571   16.4100 C.2       1 UNK         0.0000 
     27 C27         8.5199   54.6129   17.2662 C.2       1 UNK         0.0000 
     28 C28         7.9539   54.8966   18.5158 C.2       1 UNK         0.0000 
     29 N29         8.4057   55.6625   19.4738 N.pl3     1 UNK         0.0000 
     30 C30         7.4698   55.6290   20.6063 C.3       1 UNK         0.0000 
     31 C31         5.9676   54.8841   23.1054 C.1       1 UNK         0.0000 
     32 N32         6.7044   55.3000   23.8929 N.1       1 UNK         0.0000 
     33 H33         1.9672   47.6298   18.6699 H         1 UNK         0.0000 
     34 H34         2.7045   47.6969   20.2693 H         1 UNK         0.0000 
     35 H35         0.9627   47.9427   20.0791 H         1 UNK         0.0000 
     36 H36         1.3891   50.0841   18.8532 H         1 UNK         0.0000 
     37 H37         3.1043   49.8000   18.8959 H         1 UNK         0.0000 
     38 H38         3.2266   50.5574   21.0527 H         1 UNK         0.0000 
     39 H39         1.5042   49.2893   24.8970 H         1 UNK         0.0000 
     40 H40         0.3502   48.9389   23.6833 H         1 UNK         0.0000 
     41 H41        -1.5222   49.5562   25.1529 H         1 UNK         0.0000 
     42 H42        -0.4678   48.5228   26.0793 H         1 UNK         0.0000 
     43 H43        -1.1541   50.4965   27.4407 H         1 UNK         0.0000 
     44 H44         0.5662   50.4953   27.1734 H         1 UNK         0.0000 
     45 H45        -1.5434   52.2570   25.8629 H         1 UNK         0.0000 
     46 H46        -0.1681   52.7484   26.7936 H         1 UNK         0.0000 
     47 H47         2.6752   53.9386   21.1738 H         1 UNK         0.0000 
     48 H48         4.4351   53.7616   20.2598 H         1 UNK         0.0000 
     49 H49         5.1518   52.8967   18.1710 H         1 UNK         0.0000 
     50 H50         6.1657   52.4244   16.0546 H         1 UNK         0.0000 
     51 H51         8.3588   53.5484   15.4531 H         1 UNK         0.0000 
     52 H52         9.4553   55.0618   16.9649 H         1 UNK         0.0000 
     53 H53         7.0953   56.6377   20.7669 H         1 UNK         0.0000 
     54 H54         8.0283   55.2955   21.4819 H         1 UNK         0.0000 
     55 H55         9.2811   56.1830   19.4576 H         1 UNK         0.0000 
@<TRIPOS>BOND
     1    1    2 1    
     2    1   33 1    
     3    1   34 1    
     4    1   35 1    
     5    2    3 1    
     6    2   36 1    
     7    2   37 1    
     8    3    4 am   BACKBONE|DICT|INTERRES
     9    3   38 1    
    10    4    5 2    
    11    4    6 1    
    12    6    7 1    
    13    6   12 1    
    14    6    8 1    
    15    8    9 1    
    16    8   10 1    
    17    8   17 1    
    18   10   11 1    
    19   11   16 1    
    20   11   12 2    
    21   12   13 1    
    22   13   14 1    
    23   13   39 1    
    24   13   40 1    
    25   14   15 1    
    26   14   41 1    
    27   14   42 1    
    28   15   16 1    
    29   15   43 1    
    30   15   44 1    
    31   16   45 1    
    32   16   46 1    
    33   17   18 am   BACKBONE|DICT|INTERRES
    34   17   47 1    
    35   18   19 2    
    36   18   20 1    
    37   20   21 2    
    38   20   31 1    
    39   21   22 1    
    40   21   48 1    
    41   22   30 1    
    42   22   23 2    
    43   23   28 1    
    44   23   24 1    
    45   24   25 2    
    46   24   49 1    
    47   25   26 1    
    48   25   50 1    
    49   26   27 2    
    50   26   51 1    
    51   27   28 1    
    52   27   52 1    
    53   28   29 2    
    54   29   30 1    
    55   29   55 1    
    56   30   53 1    
    57   30   54 1    
    58   31   32 3    
@<TRIPOS>SUBSTRUCTURE
     1 UNK         1 GROUP             0       ****    0 ROOT    
