@<TRIPOS>MOLECULE
ZINC17244463_2815
54   57    1
SMALL
USER_CHARGES


@<TRIPOS>ATOM
      1 C1         -3.4005   52.5948   24.6939 C.3       1 UNK         0.0000 
      2 C2         -1.9513   52.2013   25.0230 C.3       1 UNK         0.0000 
      3 H3         -1.2815   52.8856   24.4983 H         1 UNK         0.0000 
      4 C4         -1.6161   50.7620   24.5608 C.3       1 UNK         0.0000 
      5 C5         -0.1353   50.4266   24.8586 C.3       1 UNK         0.0000 
      6 H6          0.4913   51.1738   24.3668 H         1 UNK         0.0000 
      7 C7          0.0886   50.5359   26.3829 C.3       1 UNK         0.0000 
      8 N8         -0.2585   51.9048   26.8289 N.pl3     1 UNK         0.0000 
      9 C9         -1.6541   52.3316   26.5382 C.3       1 UNK         0.0000 
     10 S10         0.6794   52.6554   28.1410 S.o2      1 UNK         0.0000 
     11 O11         1.1366   51.6083   29.0604 O.2       1 UNK         0.0000 
     12 O12        -0.0569   53.8227   28.6365 O.2       1 UNK         0.0000 
     13 C13         2.1511   53.2992   27.3489 C.ar      1 UNK         0.0000 
     14 C14         3.3453   53.4056   28.0657 C.ar      1 UNK         0.0000 
     15 C15         4.5059   53.8367   27.4231 C.ar      1 UNK         0.0000 
     16 C16         4.4783   54.1591   26.0598 C.ar      1 UNK         0.0000 
     17 C17         3.2573   54.0970   25.3672 C.ar      1 UNK         0.0000 
     18 C18         2.1039   53.6655   26.0057 C.ar      1 UNK         0.0000 
     19 C19         5.7515   54.5318   25.3359 C.2       1 UNK         0.0000 
     20 O20         6.6831   55.1124   25.9046 O.2       1 UNK         0.0000 
     21 N21         5.7687   54.1426   24.0475 N.am      1 UNK         0.0000 
     22 N22         6.7113   54.6501   23.1532 N.pl3     1 UNK         0.0000 
     23 C23         6.2823   54.8967   21.8694 C.2       1 UNK         0.0000 
     24 N24         6.7041   55.9135   21.1797 N.2       1 UNK         0.0000 
     25 C25         6.1106   55.9558   19.9550 C.ar      1 UNK         0.0000 
     26 C26         6.3192   56.9578   18.9925 C.ar      1 UNK         0.0000 
     27 C27         5.6207   56.8774   17.7864 C.ar      1 UNK         0.0000 
     28 C28         4.7362   55.8302   17.5264 C.ar      1 UNK         0.0000 
     29 C29         4.5107   54.8231   18.4650 C.ar      1 UNK         0.0000 
     30 C30         5.1969   54.8972   19.6853 C.ar      1 UNK         0.0000 
     31 S31         5.1044   53.8469   21.0890 S.3       1 UNK         0.0000 
     32 F32         4.0787   55.7938   16.3462 F         1 UNK         0.0000 
     33 F33         7.1589   57.9936   19.2265 F         1 UNK         0.0000 
     34 C34         0.2738   49.0469   24.3378 C.3       1 UNK         0.0000 
     35 H35        -4.1148   51.9396   25.1944 H         1 UNK         0.0000 
     36 H36        -3.6140   53.6174   25.0067 H         1 UNK         0.0000 
     37 H37        -3.5921   52.5349   23.6223 H         1 UNK         0.0000 
     38 H38        -1.8240   50.6486   23.4957 H         1 UNK         0.0000 
     39 H39        -2.2800   50.0324   25.0294 H         1 UNK         0.0000 
     40 H40         1.1039   50.2875   26.6873 H         1 UNK         0.0000 
     41 H41        -0.5884   49.8408   26.8818 H         1 UNK         0.0000 
     42 H42        -2.3150   51.6528   27.0806 H         1 UNK         0.0000 
     43 H43        -1.8175   53.3498   26.8820 H         1 UNK         0.0000 
     44 H44         3.3815   53.1265   29.1090 H         1 UNK         0.0000 
     45 H45         5.4312   53.8851   27.9813 H         1 UNK         0.0000 
     46 H46         3.1834   54.3659   24.3232 H         1 UNK         0.0000 
     47 H47         1.1821   53.6075   25.4449 H         1 UNK         0.0000 
     48 H48         4.8929   53.9341   23.5916 H         1 UNK         0.0000 
     49 H49         7.2146   55.4024   23.6083 H         1 UNK         0.0000 
     50 H50         5.7628   57.6460   17.0400 H         1 UNK         0.0000 
     51 H51         3.8155   54.0215   18.2572 H         1 UNK         0.0000 
     52 H52        -0.2718   48.2447   24.8368 H         1 UNK         0.0000 
     53 H53         0.1081   48.9556   23.2641 H         1 UNK         0.0000 
     54 H54         1.3355   48.8967   24.5210 H         1 UNK         0.0000 
@<TRIPOS>BOND
     1    1    2 1    
     2    1   35 1    
     3    1   36 1    
     4    1   37 1    
     5    2    3 1    
     6    2    9 1    
     7    2    4 1    
     8    4    5 1    
     9    4   38 1    
    10    4   39 1    
    11    5    6 1    
    12    5    7 1    
    13    5   34 1    
    14    7    8 1    
    15    7   40 1    
    16    7   41 1    
    17    8    9 1    
    18    8   10 1    
    19    9   42 1    
    20    9   43 1    
    21   10   11 2    
    22   10   12 2    
    23   10   13 1    
    24   13   18 ar   
    25   13   14 ar   
    26   14   15 ar   
    27   14   44 1    
    28   15   16 ar   
    29   15   45 1    
    30   16   17 ar   
    31   16   19 1    
    32   17   18 ar   
    33   17   46 1    
    34   18   47 1    
    35   19   20 2    
    36   19   21 am   BACKBONE|DICT|INTERRES
    37   21   22 1    
    38   21   48 1    
    39   22   23 1    
    40   22   49 1    
    41   23   31 1    
    42   23   24 2    
    43   24   25 1    
    44   25   30 ar   
    45   25   26 ar   
    46   26   27 ar   
    47   26   33 1    
    48   27   28 ar   
    49   27   50 1    
    50   28   29 ar   
    51   28   32 1    
    52   29   30 ar   
    53   29   51 1    
    54   30   31 1    
    55   34   52 1    
    56   34   53 1    
    57   34   54 1    
@<TRIPOS>SUBSTRUCTURE
     1 UNK         1 GROUP             0       ****    0 ROOT    
