@<TRIPOS>MOLECULE
ZINC39676749_179
72   75    1
SMALL
USER_CHARGES


@<TRIPOS>ATOM
      1 C1         -3.4627   47.9390   26.0753 C.3       1 UNK         0.0000 
      2 C2         -3.1497   48.0717   24.5725 C.3       1 UNK         0.0000 
      3 C3         -1.6553   48.3868   24.2547 C.3       1 UNK         0.0000 
      4 H4         -1.0903   47.5709   24.7099 H         1 UNK         0.0000 
      5 C5         -1.2015   49.6862   24.9449 C.ar      1 UNK         0.0000 
      6 C6         -1.7308   50.9247   24.5621 C.ar      1 UNK         0.0000 
      7 C7         -1.2787   52.0933   25.1706 C.ar      1 UNK         0.0000 
      8 C8         -0.3068   52.0213   26.1673 C.ar      1 UNK         0.0000 
      9 C9          0.2120   50.7953   26.5682 C.ar      1 UNK         0.0000 
     10 C10        -0.2412   49.6287   25.9638 C.ar      1 UNK         0.0000 
     11 C11        -1.2967   48.2272   22.7324 C.2       1 UNK         0.0000 
     12 O12        -1.9683   47.4262   22.0772 O.2       1 UNK         0.0000 
     13 N13        -0.2719   48.8952   22.1264 N.am      1 UNK         0.0000 
     14 C14         0.7195   49.7126   22.8046 C.3       1 UNK         0.0000 
     15 C15         1.9479   49.7471   21.8772 C.3       1 UNK         0.0000 
     16 H16         2.6192   48.9624   22.2301 H         1 UNK         0.0000 
     17 C17         1.3872   49.4647   20.4440 C.3       1 UNK         0.0000 
     18 C18         0.1007   48.6446   20.7296 C.3       1 UNK         0.0000 
     19 C19         1.0502   50.7532   19.6209 C.3       1 UNK         0.0000 
     20 C20         0.5076   50.4463   18.2036 C.3       1 UNK         0.0000 
     21 N21         1.5046   49.5257   17.4573 N.4       1 UNK         0.0000 
     22 C22         1.8664   48.2480   18.2389 C.3       1 UNK         0.0000 
     23 C23         2.4302   48.7020   19.5932 C.3       1 UNK         0.0000 
     24 C24         2.7030   51.0976   22.0822 C.2       1 UNK         0.0000 
     25 O25         3.6641   51.3442   21.3560 O.2       1 UNK         0.0000 
     26 N26         2.3044   51.9366   23.0755 N.am      1 UNK         0.0000 
     27 C27         2.6814   53.3425   23.3050 C.3       1 UNK         0.0000 
     28 H28         2.0228   53.6776   24.1084 H         1 UNK         0.0000 
     29 C29         2.2772   54.1462   22.0867 C.3       1 UNK         0.0000 
     30 C30         4.1099   53.6966   23.7582 C.ar      1 UNK         0.0000 
     31 C31         5.1701   53.7396   22.8431 C.ar      1 UNK         0.0000 
     32 C32         6.4390   54.1490   23.2473 C.ar      1 UNK         0.0000 
     33 C33         6.6627   54.5195   24.5696 C.ar      1 UNK         0.0000 
     34 C34         5.6318   54.4867   25.5055 C.ar      1 UNK         0.0000 
     35 C35         4.3483   54.0947   25.0848 C.ar      1 UNK         0.0000 
     36 O36         5.9682   54.8474   26.7950 O.3       1 UNK         0.0000 
     37 C37         5.0222   54.6442   27.8378 C.3       1 UNK         0.0000 
     38 H38        -4.5027   47.6568   26.2396 H         1 UNK         0.0000 
     39 H39        -2.8376   47.1777   26.5447 H         1 UNK         0.0000 
     40 H40        -3.2922   48.8744   26.6103 H         1 UNK         0.0000 
     41 H41        -3.7904   48.8401   24.1353 H         1 UNK         0.0000 
     42 H42        -3.4506   47.1369   24.0976 H         1 UNK         0.0000 
     43 H43        -2.4819   50.9787   23.7884 H         1 UNK         0.0000 
     44 H44        -1.6845   53.0499   24.8776 H         1 UNK         0.0000 
     45 H45         0.0453   52.9160   26.6508 H         1 UNK         0.0000 
     46 H46         0.9480   50.7440   27.3580 H         1 UNK         0.0000 
     47 H47         0.1479   48.6761   26.3033 H         1 UNK         0.0000 
     48 H48         0.2521   50.6963   22.8474 H         1 UNK         0.0000 
     49 H49         1.0329   49.3059   23.7665 H         1 UNK         0.0000 
     50 H50         0.3789   47.5912   20.6988 H         1 UNK         0.0000 
     51 H51        -0.7014   48.7633   20.0018 H         1 UNK         0.0000 
     52 H52         0.3163   51.3533   20.1603 H         1 UNK         0.0000 
     53 H53         1.9225   51.3989   19.5102 H         1 UNK         0.0000 
     54 H54        -0.4510   49.9278   18.2059 H         1 UNK         0.0000 
     55 H55         0.4131   51.3483   17.5962 H         1 UNK         0.0000 
     56 H56         1.1532   49.2834   16.5411 H         1 UNK         0.0000 
     57 H57         0.9658   47.6363   18.3092 H         1 UNK         0.0000 
     58 H58         2.6151   47.7254   17.6396 H         1 UNK         0.0000 
     59 H59         3.3402   49.2914   19.4574 H         1 UNK         0.0000 
     60 H60         2.7261   47.8018   20.1319 H         1 UNK         0.0000 
     61 H61         1.6626   51.5588   23.7557 H         1 UNK         0.0000 
     62 H62         2.5913   55.1848   22.1583 H         1 UNK         0.0000 
     63 H63         2.7104   53.7451   21.1707 H         1 UNK         0.0000 
     64 H64         1.1921   54.0974   21.9984 H         1 UNK         0.0000 
     65 H65         5.0124   53.4677   21.8097 H         1 UNK         0.0000 
     66 H66         7.2528   54.1869   22.5386 H         1 UNK         0.0000 
     67 H67         7.6489   54.8296   24.8766 H         1 UNK         0.0000 
     68 H68         3.5307   54.0785   25.7886 H         1 UNK         0.0000 
     69 H69         5.4816   54.9077   28.7910 H         1 UNK         0.0000 
     70 H70         4.1414   55.2755   27.7112 H         1 UNK         0.0000 
     71 H71         4.7114   53.5995   27.8981 H         1 UNK         0.0000 
     72 H72         2.3862   50.0063   17.2869 H         1 UNK         0.0000 
@<TRIPOS>BOND
     1    1    2 1    
     2    1   38 1    
     3    1   39 1    
     4    1   40 1    
     5    2    3 1    
     6    2   41 1    
     7    2   42 1    
     8    3    4 1    
     9    3    5 1    
    10    3   11 1    
    11    5   10 ar   
    12    5    6 ar   
    13    6    7 ar   
    14    6   43 1    
    15    7    8 ar   
    16    7   44 1    
    17    8    9 ar   
    18    8   45 1    
    19    9   10 ar   
    20    9   46 1    
    21   10   47 1    
    22   11   12 2    
    23   11   13 am   BACKBONE|DICT|INTERRES
    24   13   18 1    
    25   13   14 1    
    26   14   15 1    
    27   14   48 1    
    28   14   49 1    
    29   15   16 1    
    30   15   17 1    
    31   15   24 1    
    32   17   23 1    
    33   17   18 1    
    34   17   19 1    
    35   18   50 1    
    36   18   51 1    
    37   19   20 1    
    38   19   52 1    
    39   19   53 1    
    40   20   21 1    
    41   20   54 1    
    42   20   55 1    
    43   21   22 1    
    44   21   56 1    
    45   21   72 1    
    46   22   23 1    
    47   22   57 1    
    48   22   58 1    
    49   23   59 1    
    50   23   60 1    
    51   24   25 2    
    52   24   26 am   BACKBONE|DICT|INTERRES
    53   26   27 1    
    54   26   61 1    
    55   27   28 1    
    56   27   29 1    
    57   27   30 1    
    58   29   62 1    
    59   29   63 1    
    60   29   64 1    
    61   30   35 ar   
    62   30   31 ar   
    63   31   32 ar   
    64   31   65 1    
    65   32   33 ar   
    66   32   66 1    
    67   33   34 ar   
    68   33   67 1    
    69   34   35 ar   
    70   34   36 1    
    71   35   68 1    
    72   36   37 1    
    73   37   69 1    
    74   37   70 1    
    75   37   71 1    
@<TRIPOS>SUBSTRUCTURE
     1 UNK         1 GROUP             0       ****    0 ROOT    
