@<TRIPOS>MOLECULE
ZINC24827087_5152
52   55    1
SMALL
USER_CHARGES


@<TRIPOS>ATOM
      1 C1         -0.7933   48.9538   21.4090 C.3       1 UNK         0.0000 
      2 C2          0.2987   49.9956   21.2002 C.ar      1 UNK         0.0000 
      3 C3          1.5386   49.7846   21.8116 C.ar      1 UNK         0.0000 
      4 C4          2.5677   50.7121   21.6740 C.ar      1 UNK         0.0000 
      5 C5          2.3720   51.8793   20.9247 C.ar      1 UNK         0.0000 
      6 C6          1.1396   52.0779   20.2983 C.ar      1 UNK         0.0000 
      7 C7          0.0892   51.1579   20.4280 C.ar      1 UNK         0.0000 
      8 C8         -1.2467   51.4377   19.7216 C.3       1 UNK         0.0000 
      9 F9         -1.6262   50.3885   18.9924 F         1 UNK         0.0000 
     10 F10        -2.1872   51.6918   20.6322 F         1 UNK         0.0000 
     11 F11        -1.1884   52.4925   18.9023 F         1 UNK         0.0000 
     12 N12         3.3291   52.8964   20.7450 N.am      1 UNK         0.0000 
     13 C13         4.5599   53.0429   21.2882 C.2       1 UNK         0.0000 
     14 O14         5.0716   52.2500   22.0740 O.2       1 UNK         0.0000 
     15 C15         5.3106   54.2901   20.8678 C.ar      1 UNK         0.0000 
     16 C16         5.1002   54.8251   19.5822 C.ar      1 UNK         0.0000 
     17 C17         5.8241   55.9299   19.1447 C.ar      1 UNK         0.0000 
     18 C18         6.7519   56.4947   20.0096 C.ar      1 UNK         0.0000 
     19 N19         6.9757   56.0227   21.2606 N.ar      1 UNK         0.0000 
     20 C20         6.2768   54.9355   21.6842 C.ar      1 UNK         0.0000 
     21 S21         6.7043   54.3937   23.3290 S.3       1 UNK         0.0000 
     22 C22         5.6266   55.2896   24.4849 C.3       1 UNK         0.0000 
     23 C23         5.5886   54.6953   25.8972 C.2       1 UNK         0.0000 
     24 O24         6.6426   54.5060   26.5059 O.2       1 UNK         0.0000 
     25 N25         4.3501   54.4682   26.3895 N.am      1 UNK         0.0000 
     26 C26         3.9552   53.9001   27.6146 C.ar      1 UNK         0.0000 
     27 C27         4.7964   53.1058   28.4275 C.ar      1 UNK         0.0000 
     28 C28         4.3043   52.4963   29.5910 C.ar      1 UNK         0.0000 
     29 C29         2.9717   52.7055   29.9197 C.ar      1 UNK         0.0000 
     30 C30         2.1586   53.4893   29.1535 C.ar      1 UNK         0.0000 
     31 C31         2.6151   54.1015   27.9909 C.ar      1 UNK         0.0000 
     32 O32         0.9284   53.5555   29.7291 O.3       1 UNK         0.0000 
     33 C33         0.9329   52.5750   30.7334 C.3       1 UNK         0.0000 
     34 O34         2.2730   52.2373   30.9873 O.3       1 UNK         0.0000 
     35 H35        -0.9476   48.3737   20.4991 H         1 UNK         0.0000 
     36 H36        -0.5553   48.2699   22.2243 H         1 UNK         0.0000 
     37 H37        -1.7383   49.4285   21.6711 H         1 UNK         0.0000 
     38 H38         1.7153   48.8976   22.4034 H         1 UNK         0.0000 
     39 H39         3.5042   50.4962   22.1576 H         1 UNK         0.0000 
     40 H40         0.9939   52.9669   19.7035 H         1 UNK         0.0000 
     41 H41         3.0144   53.6511   20.1529 H         1 UNK         0.0000 
     42 H42         4.4029   54.3740   18.8899 H         1 UNK         0.0000 
     43 H43         5.6776   56.3291   18.1513 H         1 UNK         0.0000 
     44 H44         7.3444   57.3357   19.6817 H         1 UNK         0.0000 
     45 H45         4.6217   55.2963   24.0651 H         1 UNK         0.0000 
     46 H46         5.9699   56.3206   24.5559 H         1 UNK         0.0000 
     47 H47         3.5825   54.7564   25.8036 H         1 UNK         0.0000 
     48 H48         5.8229   52.9170   28.1511 H         1 UNK         0.0000 
     49 H49         4.9454   51.8760   30.1983 H         1 UNK         0.0000 
     50 H50         1.9481   54.7046   27.3937 H         1 UNK         0.0000 
     51 H51         0.4348   52.9251   31.6401 H         1 UNK         0.0000 
     52 H52         0.3956   51.6967   30.3680 H         1 UNK         0.0000 
@<TRIPOS>BOND
     1    1    2 1    
     2    1   35 1    
     3    1   36 1    
     4    1   37 1    
     5    2    7 ar   
     6    2    3 ar   
     7    3    4 ar   
     8    3   38 1    
     9    4    5 ar   
    10    4   39 1    
    11    5    6 ar   
    12    5   12 1    
    13    6    7 ar   
    14    6   40 1    
    15    7    8 1    
    16    8    9 1    
    17    8   10 1    
    18    8   11 1    
    19   12   13 am   BACKBONE|DICT|INTERRES
    20   12   41 1    
    21   13   14 2    
    22   13   15 1    
    23   15   20 ar   
    24   15   16 ar   
    25   16   17 ar   
    26   16   42 1    
    27   17   18 ar   
    28   17   43 1    
    29   18   19 ar   
    30   18   44 1    
    31   19   20 ar   
    32   20   21 1    
    33   21   22 1    
    34   22   23 1    
    35   22   45 1    
    36   22   46 1    
    37   23   24 2    
    38   23   25 am   BACKBONE|DICT|INTERRES
    39   25   26 1    
    40   25   47 1    
    41   26   31 ar   
    42   26   27 ar   
    43   27   28 ar   
    44   27   48 1    
    45   28   29 ar   
    46   28   49 1    
    47   29   34 1    
    48   29   30 ar   
    49   30   31 ar   
    50   30   32 1    
    51   31   50 1    
    52   32   33 1    
    53   33   34 1    
    54   33   51 1    
    55   33   52 1    
@<TRIPOS>SUBSTRUCTURE
     1 UNK         1 GROUP             0       ****    0 ROOT    
