@<TRIPOS>MOLECULE
ZINC14585737_5141
54   57    1
SMALL
USER_CHARGES


@<TRIPOS>ATOM
      1 C1          3.6748   52.4961   31.2218 C.3       1 UNK         0.0000 
      2 O2          2.7371   53.0000   30.2746 O.3       1 UNK         0.0000 
      3 C3          3.2014   53.3998   29.0367 C.ar      1 UNK         0.0000 
      4 C4          4.4756   53.9444   28.8436 C.ar      1 UNK         0.0000 
      5 C5          4.9238   54.2852   27.5712 C.ar      1 UNK         0.0000 
      6 C6          4.0990   54.1053   26.4510 C.ar      1 UNK         0.0000 
      7 C7          2.7952   53.6187   26.6549 C.ar      1 UNK         0.0000 
      8 C8          2.3513   53.2651   27.9331 C.ar      1 UNK         0.0000 
      9 S9          0.7224   52.5599   28.1727 S.o2      1 UNK         0.0000 
     10 O10        -0.0956   53.6224   28.7660 O.2       1 UNK         0.0000 
     11 O11         0.9390   51.2968   28.8827 O.2       1 UNK         0.0000 
     12 N12         0.0613   52.1960   26.5795 N.pl3     1 UNK         0.0000 
     13 C13        -0.5092   50.8508   26.3351 C.3       1 UNK         0.0000 
     14 C14        -1.6792   50.8595   25.3518 C.3       1 UNK         0.0000 
     15 C15        -1.8061   49.4040   24.8909 C.3       1 UNK         0.0000 
     16 C16        -0.4148   48.7739   25.0610 C.3       1 UNK         0.0000 
     17 C17         0.4661   49.8336   25.7380 C.3       1 UNK         0.0000 
     18 C18         4.6389   54.4048   25.0675 C.2       1 UNK         0.0000 
     19 O19         5.6484   55.0986   24.9255 O.2       1 UNK         0.0000 
     20 N20         3.9675   53.8151   24.0523 N.am      1 UNK         0.0000 
     21 C21         4.2767   53.8411   22.7029 C.2       1 UNK         0.0000 
     22 N22         5.2455   54.4966   22.1058 N.2       1 UNK         0.0000 
     23 C23         5.2769   54.2944   20.7959 C.2       1 UNK         0.0000 
     24 C24         4.2980   53.4037   20.3397 C.2       1 UNK         0.0000 
     25 S25         3.3074   52.8644   21.6574 S.3       1 UNK         0.0000 
     26 C26         6.3070   54.9715   19.9403 C.ar      1 UNK         0.0000 
     27 C27         7.4774   55.5125   20.4959 C.ar      1 UNK         0.0000 
     28 C28         8.4458   56.0960   19.6807 C.ar      1 UNK         0.0000 
     29 C29         8.2506   56.1723   18.3035 C.ar      1 UNK         0.0000 
     30 C30         7.0888   55.6481   17.7389 C.ar      1 UNK         0.0000 
     31 C31         6.1255   55.0513   18.5524 C.ar      1 UNK         0.0000 
     32 F32         6.8930   55.7108   16.4024 F         1 UNK         0.0000 
     33 F33         9.1920   56.7491   17.5206 F         1 UNK         0.0000 
     34 H34         3.1340   52.0670   32.0659 H         1 UNK         0.0000 
     35 H35         4.3024   51.7056   30.8015 H         1 UNK         0.0000 
     36 H36         4.3043   53.2950   31.6117 H         1 UNK         0.0000 
     37 H37         5.1290   54.1105   29.6816 H         1 UNK         0.0000 
     38 H38         5.9262   54.6778   27.4647 H         1 UNK         0.0000 
     39 H39         2.1217   53.4917   25.8201 H         1 UNK         0.0000 
     40 H40        -0.5882   52.9252   26.2731 H         1 UNK         0.0000 
     41 H41        -0.8798   50.5340   27.3145 H         1 UNK         0.0000 
     42 H42        -1.4617   51.4989   24.4955 H         1 UNK         0.0000 
     43 H43        -2.6002   51.2138   25.8153 H         1 UNK         0.0000 
     44 H44        -2.1691   49.3339   23.8638 H         1 UNK         0.0000 
     45 H45        -2.5250   48.8778   25.5218 H         1 UNK         0.0000 
     46 H46         0.0095   48.4613   24.1063 H         1 UNK         0.0000 
     47 H47        -0.4919   47.8794   25.6812 H         1 UNK         0.0000 
     48 H48         1.1040   49.3893   26.5007 H         1 UNK         0.0000 
     49 H49         1.1025   50.3097   24.9905 H         1 UNK         0.0000 
     50 H50         3.1870   53.2310   24.3036 H         1 UNK         0.0000 
     51 H51         4.1172   53.0418   19.3373 H         1 UNK         0.0000 
     52 H52         7.6539   55.4587   21.5603 H         1 UNK         0.0000 
     53 H53         9.3523   56.4968   20.1131 H         1 UNK         0.0000 
     54 H54         5.2388   54.6487   18.0868 H         1 UNK         0.0000 
@<TRIPOS>BOND
     1    1    2 1    
     2    1   34 1    
     3    1   35 1    
     4    1   36 1    
     5    2    3 1    
     6    3    8 ar   
     7    3    4 ar   
     8    4    5 ar   
     9    4   37 1    
    10    5    6 ar   
    11    5   38 1    
    12    6    7 ar   
    13    6   18 1    
    14    7    8 ar   
    15    7   39 1    
    16    8    9 1    
    17    9   10 2    
    18    9   11 2    
    19    9   12 1    
    20   12   13 1    
    21   12   40 1    
    22   13   17 1    
    23   13   14 1    
    24   13   41 1    
    25   14   15 1    
    26   14   42 1    
    27   14   43 1    
    28   15   16 1    
    29   15   44 1    
    30   15   45 1    
    31   16   17 1    
    32   16   46 1    
    33   16   47 1    
    34   17   48 1    
    35   17   49 1    
    36   18   19 2    
    37   18   20 am   BACKBONE|DICT|INTERRES
    38   20   21 am   BACKBONE|DICT|INTERRES
    39   20   50 1    
    40   21   25 1    
    41   21   22 2    
    42   22   23 1    
    43   23   24 2    
    44   23   26 1    
    45   24   25 1    
    46   24   51 1    
    47   26   31 ar   
    48   26   27 ar   
    49   27   28 ar   
    50   27   52 1    
    51   28   29 ar   
    52   28   53 1    
    53   29   30 ar   
    54   29   33 1    
    55   30   31 ar   
    56   30   32 1    
    57   31   54 1    
@<TRIPOS>SUBSTRUCTURE
     1 UNK         1 GROUP             0       ****    0 ROOT    
