@<TRIPOS>MOLECULE
ZINC35723431_4135
51   54    1
SMALL
USER_CHARGES


@<TRIPOS>ATOM
      1 C1          6.8694   57.4956   18.5005 C.ar      1 UNK         0.0000 
      2 C2          5.8678   57.3680   17.5450 C.ar      1 UNK         0.0000 
      3 C3          5.4223   56.1114   17.1593 C.ar      1 UNK         0.0000 
      4 C4          5.9962   54.9495   17.7247 C.ar      1 UNK         0.0000 
      5 C5          6.9907   55.0986   18.7181 C.ar      1 UNK         0.0000 
      6 C6          7.4304   56.3634   19.0839 C.ar      1 UNK         0.0000 
      7 C7          5.4280   53.5665   17.4008 C.3       1 UNK         0.0000 
      8 C8          4.1706   53.1207   18.2054 C.3       1 UNK         0.0000 
      9 H9          3.9131   52.0986   17.9090 H         1 UNK         0.0000 
     10 C10         4.4382   53.0581   19.7325 C.2       1 UNK         0.0000 
     11 O11         5.4710   52.4975   20.0981 O.2       1 UNK         0.0000 
     12 N12         3.5292   53.6093   20.5687 N.am      1 UNK         0.0000 
     13 C13         3.6371   53.7673   21.9433 C.2       1 UNK         0.0000 
     14 N14         2.5987   54.0947   22.6701 N.2       1 UNK         0.0000 
     15 N15         2.9116   54.2675   24.0110 N.2       1 UNK         0.0000 
     16 C16         4.1878   54.0976   24.2714 C.2       1 UNK         0.0000 
     17 S17         5.1298   53.6968   22.8530 S.3       1 UNK         0.0000 
     18 C18         4.7864   54.1819   25.6440 C.ar      1 UNK         0.0000 
     19 C19         3.9525   54.0979   26.7672 C.ar      1 UNK         0.0000 
     20 C20         4.4894   54.1529   28.0503 C.ar      1 UNK         0.0000 
     21 C21         5.8636   54.2975   28.2132 C.ar      1 UNK         0.0000 
     22 C22         6.7043   54.3858   27.1090 C.ar      1 UNK         0.0000 
     23 C23         6.1678   54.3310   25.8236 C.ar      1 UNK         0.0000 
     24 N24         3.0539   53.9973   17.8256 N.am      1 UNK         0.0000 
     25 C25         1.8997   53.6307   17.2406 C.2       1 UNK         0.0000 
     26 O26         1.6043   52.4621   16.9923 O.2       1 UNK         0.0000 
     27 C27         0.9394   54.7543   16.9217 C.ar      1 UNK         0.0000 
     28 C28        -0.4340   54.4828   16.8204 C.ar      1 UNK         0.0000 
     29 C29        -1.3391   55.5075   16.5573 C.ar      1 UNK         0.0000 
     30 C30        -0.8727   56.8080   16.3856 C.ar      1 UNK         0.0000 
     31 C31         0.4858   57.0926   16.4749 C.ar      1 UNK         0.0000 
     32 C32         1.3909   56.0711   16.7383 C.ar      1 UNK         0.0000 
     33 Br33       -2.0969   58.2095   16.0099 Br        1 UNK         0.0000 
     34 H34         7.2083   58.4806   18.7887 H         1 UNK         0.0000 
     35 H35         5.4324   58.2559   17.1064 H         1 UNK         0.0000 
     36 H36         4.6427   56.0262   16.4169 H         1 UNK         0.0000 
     37 H37         7.4186   54.2273   19.1949 H         1 UNK         0.0000 
     38 H38         8.2073   56.4697   19.8262 H         1 UNK         0.0000 
     39 H39         6.2215   52.8283   17.5351 H         1 UNK         0.0000 
     40 H40         5.1974   53.5367   16.3334 H         1 UNK         0.0000 
     41 H41         2.6635   53.9510   20.1646 H         1 UNK         0.0000 
     42 H42         2.8852   53.9740   26.6512 H         1 UNK         0.0000 
     43 H43         3.8423   54.0805   28.9102 H         1 UNK         0.0000 
     44 H44         6.2856   54.3547   29.2062 H         1 UNK         0.0000 
     45 H45         7.7663   54.4959   27.2577 H         1 UNK         0.0000 
     46 H46         6.8339   54.4008   24.9764 H         1 UNK         0.0000 
     47 H47         3.1893   54.9715   18.0431 H         1 UNK         0.0000 
     48 H48        -0.8079   53.4767   16.9530 H         1 UNK         0.0000 
     49 H49        -2.3943   55.2929   16.4724 H         1 UNK         0.0000 
     50 H50         0.8362   58.1070   16.3415 H         1 UNK         0.0000 
     51 H51         2.4394   56.3248   16.7957 H         1 UNK         0.0000 
@<TRIPOS>BOND
     1    1    6 ar   
     2    1    2 ar   
     3    1   34 1    
     4    2    3 ar   
     5    2   35 1    
     6    3    4 ar   
     7    3   36 1    
     8    4    5 ar   
     9    4    7 1    
    10    5    6 ar   
    11    5   37 1    
    12    6   38 1    
    13    7    8 1    
    14    7   39 1    
    15    7   40 1    
    16    8    9 1    
    17    8   10 1    
    18    8   24 1    
    19   10   11 2    
    20   10   12 am   BACKBONE|DICT|INTERRES
    21   12   13 am   BACKBONE|DICT|INTERRES
    22   12   41 1    
    23   13   17 1    
    24   13   14 2    
    25   14   15 1    
    26   15   16 2    
    27   16   17 1    
    28   16   18 1    
    29   18   23 ar   
    30   18   19 ar   
    31   19   20 ar   
    32   19   42 1    
    33   20   21 ar   
    34   20   43 1    
    35   21   22 ar   
    36   21   44 1    
    37   22   23 ar   
    38   22   45 1    
    39   23   46 1    
    40   24   25 am   BACKBONE|DICT|INTERRES
    41   24   47 1    
    42   25   26 2    
    43   25   27 1    
    44   27   32 ar   
    45   27   28 ar   
    46   28   29 ar   
    47   28   48 1    
    48   29   30 ar   
    49   29   49 1    
    50   30   31 ar   
    51   30   33 1    
    52   31   32 ar   
    53   31   50 1    
    54   32   51 1    
@<TRIPOS>SUBSTRUCTURE
     1 UNK         1 GROUP             0       ****    0 ROOT    
