ZINC54643818_6021
                    3D
 Schrodinger Suite 2024-2.
 62 66  0  0  1  0            999 V2000
   -5.5214   47.2922   18.8185 C   0  0  0  0  0  0
   -4.2125   48.0112   19.0918 C   0  0  0  0  0  0
   -4.1696   49.4066   19.1007 C   0  0  0  0  0  0
   -2.9744   50.0715   19.3686 C   0  0  0  0  0  0
   -1.8003   49.3493   19.6428 C   0  0  0  0  0  0
   -1.8444   47.9402   19.6283 C   0  0  0  0  0  0
   -3.0506   47.2862   19.3590 C   0  0  0  0  0  0
   -0.6037   47.0972   19.9085 C   0  0  0  0  0  0
   -0.5600   49.9656   19.9137 N   0  0  0  0  0  0
   -0.2730   51.2361   20.2746 C   0  0  0  0  0  0
   -1.1294   52.0968   20.4824 O   0  0  0  0  0  0
    1.1482   51.5034   20.5015 C   0  0  0  0  0  0
    2.1615   51.0247   19.7118 C   0  0  0  0  0  0
    3.4999   51.2961   19.9624 N   0  0  0  0  0  0
    3.8586   52.0836   21.0331 C   0  0  0  0  0  0
    5.0379   52.5095   21.4009 N   0  0  0  0  0  0
    4.7594   53.2969   22.4331 C   0  0  0  0  0  0
    3.4764   53.4138   22.7283 N   0  0  0  0  0  0
    2.8827   52.6233   21.8293 N   0  0  0  0  0  0
    1.4342   52.3868   21.7469 C   0  0  2  0  0  0
    0.9751   53.3562   21.5588 H   0  0  0  0  0  0
    0.9028   51.8146   23.0630 C   0  0  0  0  0  0
    0.9397   50.5092   23.5840 C   0  0  0  0  0  0
    0.3039   50.4206   24.8316 C   0  0  0  0  0  0
   -0.1633   51.6252   25.3107 C   0  0  0  0  0  0
    0.1439   52.8970   24.1948 S   0  0  0  0  0  0
    1.5163   49.3052   22.8849 C   0  0  0  0  0  0
    6.0572   54.0963   23.3389 S   0  0  0  0  0  0
    5.1395   55.0590   24.5868 C   0  0  0  0  0  0
    5.0546   54.3875   25.9457 C   0  0  0  0  0  0
    3.8400   53.8442   26.3771 C   0  0  0  0  0  0
    3.7389   53.2975   27.6534 C   0  0  0  0  0  0
    4.8523   53.2967   28.4910 C   0  0  0  0  0  0
    6.0672   53.8345   28.0675 C   0  0  0  0  0  0
    6.1671   54.3820   26.7916 C   0  0  0  0  0  0
    2.0112   50.2000   18.4354 C   0  0  0  0  0  0
   -5.6562   47.1364   17.7481 H   0  0  0  0  0  0
   -6.3674   47.8686   19.1963 H   0  0  0  0  0  0
   -5.5503   46.3250   19.3235 H   0  0  0  0  0  0
   -5.0626   49.9796   18.8935 H   0  0  0  0  0  0
   -2.9872   51.1504   19.3433 H   0  0  0  0  0  0
   -3.0870   46.2061   19.3498 H   0  0  0  0  0  0
   -0.1883   47.3629   20.8797 H   0  0  0  0  0  0
   -0.8190   46.0286   19.9188 H   0  0  0  0  0  0
    0.1631   47.2883   19.1571 H   0  0  0  0  0  0
    0.2303   49.3421   19.8753 H   0  0  0  0  0  0
    4.1917   51.0178   19.2618 H   0  0  0  0  0  0
    0.2074   49.4939   25.3793 H   0  0  0  0  0  0
   -0.6682   51.8151   26.2455 H   0  0  0  0  0  0
    1.1099   48.3896   23.3072 H   0  0  0  0  0  0
    1.2809   49.2571   21.8270 H   0  0  0  0  0  0
    2.6037   49.2968   22.9536 H   0  0  0  0  0  0
    5.6455   56.0176   24.7016 H   0  0  0  0  0  0
    4.1378   55.2965   24.2335 H   0  0  0  0  0  0
    2.9734   53.8508   25.7303 H   0  0  0  0  0  0
    2.8033   52.8743   27.9894 H   0  0  0  0  0  0
    4.7726   52.8687   29.4787 H   0  0  0  0  0  0
    6.9233   53.8338   28.7280 H   0  0  0  0  0  0
    7.1036   54.8090   26.4617 H   0  0  0  0  0  0
    2.2380   49.1512   18.6283 H   0  0  0  0  0  0
    1.0254   50.2759   17.9784 H   0  0  0  0  0  0
    2.7045   50.5427   17.6700 H   0  0  0  0  0  0
  1  2  1  0  0  0
  1 37  1  0  0  0
  1 38  1  0  0  0
  1 39  1  0  0  0
  2  7  2  0  0  0
  2  3  1  0  0  0
  3  4  2  0  0  0
  3 40  1  0  0  0
  4  5  1  0  0  0
  4 41  1  0  0  0
  5  6  2  0  0  0
  5  9  1  0  0  0
  6  7  1  0  0  0
  6  8  1  0  0  0
  7 42  1  0  0  0
  8 43  1  0  0  0
  8 44  1  0  0  0
  8 45  1  0  0  0
  9 10  1  0  0  0
  9 46  1  0  0  0
 10 11  2  0  0  0
 10 12  1  0  0  0
 12 20  1  0  0  0
 12 13  2  0  0  0
 13 14  1  0  0  0
 13 36  1  0  0  0
 14 15  1  0  0  0
 14 47  1  0  0  0
 15 19  1  0  0  0
 15 16  2  0  0  0
 16 17  1  0  0  0
 17 18  2  0  0  0
 17 28  1  0  0  0
 18 19  1  0  0  0
 19 20  1  0  0  0
 20 21  1  0  0  0
 20 22  1  0  0  0
 22 26  1  0  0  0
 22 23  2  0  0  0
 23 24  1  0  0  0
 23 27  1  0  0  0
 24 25  2  0  0  0
 24 48  1  0  0  0
 25 26  1  0  0  0
 25 49  1  0  0  0
 27 50  1  0  0  0
 27 51  1  0  0  0
 27 52  1  0  0  0
 28 29  1  0  0  0
 29 30  1  0  0  0
 29 53  1  0  0  0
 29 54  1  0  0  0
 30 35  2  0  0  0
 30 31  1  0  0  0
 31 32  2  0  0  0
 31 55  1  0  0  0
 32 33  1  0  0  0
 32 56  1  0  0  0
 33 34  2  0  0  0
 33 57  1  0  0  0
 34 35  1  0  0  0
 34 58  1  0  0  0
 35 59  1  0  0  0
 36 60  1  0  0  0
 36 61  1  0  0  0
 36 62  1  0  0  0
M  END
> <i_i_glide_confnum>
166

> <i_i_glide_lignum>
6022

> <i_i_glide_posenum>
340

> <i_i_glide_rotatable_bonds>
7

> <i_m_Source_File_Index>
4943

> <b_m_subgroup_collapsed>
0

> <r_i_docking_score>
-5.4334

> <r_i_glide_ecoul>
-5.62538

> <r_i_glide_eff_state_penalty>
0

> <r_i_glide_einternal>
6.86453

> <r_i_glide_emodel>
-61.7481

> <r_i_glide_energy>
-47.7976

> <r_i_glide_erotb>
0.568186

> <r_i_glide_esite>
-0.0890744

> <r_i_glide_evdw>
-42.1722

> <r_i_glide_gscore>
-5.4334

> <r_i_glide_hbond>
-0.16

> <r_i_glide_ligand_efficiency>
-0.15524

> <r_i_glide_ligand_efficiency_ln>
-1.19275

> <r_i_glide_ligand_efficiency_sa>
-0.5078

> <r_i_glide_lipo>
-2.39886

> <r_i_glide_metal>
0

> <r_i_glide_rewards>
-0.401229

> <s_i_glide_gridfile>
wee1_glide-grid

> <s_m_Source_File>
wee1_decoys_glide_SP.sdf

> <s_m_Source_Path>
/Users/zhangxujun/Desktop

> <s_m_entry_id>
5218

> <s_m_entry_name>
wee1_decoys_glide_SP.4943

> <s_m_subgroup_title>
wee1_decoys_glide_SP

> <s_m_subgroupid>
wee1_decoys_glide_SP


$$$$
