@<TRIPOS>MOLECULE
ZINC59017594_3752
65   67    1
SMALL
USER_CHARGES


@<TRIPOS>ATOM
      1 C1          5.4004   54.8492   25.8146 C.3       1 UNK         0.0000 
      2 C2          4.0248   54.2600   25.5585 C.ar      1 UNK         0.0000 
      3 C3          3.2143   53.8584   26.6214 C.ar      1 UNK         0.0000 
      4 C4          1.9614   53.2982   26.3746 C.ar      1 UNK         0.0000 
      5 C5          1.5000   53.1201   25.0634 C.ar      1 UNK         0.0000 
      6 C6          2.3099   53.5388   23.9879 C.ar      1 UNK         0.0000 
      7 C7          3.5659   54.0999   24.2509 C.ar      1 UNK         0.0000 
      8 C8          1.8909   53.3847   22.5340 C.3       1 UNK         0.0000 
      9 S9         -0.1480   52.4036   24.8500 S.o2      1 UNK         0.0000 
     10 O10        -0.7664   53.0391   23.6819 O.2       1 UNK         0.0000 
     11 O11        -0.8120   52.4793   26.1571 O.2       1 UNK         0.0000 
     12 N12         0.1602   50.6999   24.4813 N.pl3     1 UNK         0.0000 
     13 C13        -0.0155   50.1194   23.1275 C.3       1 UNK         0.0000 
     14 C14        -1.1389   49.0496   23.1178 C.3       1 UNK         0.0000 
     15 C15        -0.9961   48.0689   24.3194 C.3       1 UNK         0.0000 
     16 C16        -0.7735   48.7790   25.6854 C.3       1 UNK         0.0000 
     17 C17         0.4160   49.7443   25.5710 C.3       1 UNK         0.0000 
     18 C18        -2.1370   47.0253   24.3232 C.2       1 UNK         0.0000 
     19 O19        -2.0958   46.1052   23.5054 O.2       1 UNK         0.0000 
     20 N20        -3.1662   47.2040   25.1838 N.am      1 UNK         0.0000 
     21 C21        -4.2795   46.3488   25.3834 C.ar      1 UNK         0.0000 
     22 C22        -4.8290   45.5954   24.3277 C.ar      1 UNK         0.0000 
     23 C23        -5.9107   44.7417   24.5395 C.ar      1 UNK         0.0000 
     24 C24        -6.4799   44.6414   25.8047 C.ar      1 UNK         0.0000 
     25 C25        -5.9795   45.4116   26.8517 C.ar      1 UNK         0.0000 
     26 C26        -4.8941   46.2798   26.6537 C.ar      1 UNK         0.0000 
     27 N27        -4.4363   47.0951   27.7096 N.am      1 UNK         0.0000 
     28 C28        -5.2253   47.8534   28.4922 C.2       1 UNK         0.0000 
     29 O29        -6.4560   47.8295   28.5018 O.2       1 UNK         0.0000 
     30 N30        -4.4942   48.6975   29.2302 N.am      1 UNK         0.0000 
     31 C31        -4.9866   49.8983   29.8976 C.3       1 UNK         0.0000 
     32 C32        -3.9812   50.2944   30.9785 C.3       1 UNK         0.0000 
     33 C33        -5.2401   51.0547   28.9131 C.3       1 UNK         0.0000 
     34 H34         6.1425   54.3427   25.1964 H         1 UNK         0.0000 
     35 H35         5.4142   55.9069   25.5496 H         1 UNK         0.0000 
     36 H36         5.7073   54.7357   26.8555 H         1 UNK         0.0000 
     37 H37         3.5549   53.9745   27.6399 H         1 UNK         0.0000 
     38 H38         1.3566   52.9980   27.2174 H         1 UNK         0.0000 
     39 H39         4.1961   54.4141   23.4314 H         1 UNK         0.0000 
     40 H40         2.7228   53.5407   21.8439 H         1 UNK         0.0000 
     41 H41         1.5155   52.3806   22.3459 H         1 UNK         0.0000 
     42 H42         1.1050   54.0956   22.2884 H         1 UNK         0.0000 
     43 H43         0.9418   49.7047   22.8106 H         1 UNK         0.0000 
     44 H44        -0.2543   50.9156   22.4231 H         1 UNK         0.0000 
     45 H45        -1.0790   48.5281   22.1622 H         1 UNK         0.0000 
     46 H46        -2.0731   49.6083   23.1918 H         1 UNK         0.0000 
     47 H47        -0.1071   47.4528   24.1598 H         1 UNK         0.0000 
     48 H48        -1.6325   49.3865   25.9785 H         1 UNK         0.0000 
     49 H49        -0.4958   48.0949   26.4817 H         1 UNK         0.0000 
     50 H50         1.3497   49.2164   25.3677 H         1 UNK         0.0000 
     51 H51         0.5469   50.2901   26.5059 H         1 UNK         0.0000 
     52 H52        -2.9860   47.8618   25.9286 H         1 UNK         0.0000 
     53 H53        -4.4376   45.6658   23.3259 H         1 UNK         0.0000 
     54 H54        -6.3154   44.1700   23.7182 H         1 UNK         0.0000 
     55 H55        -7.3203   43.9827   25.9706 H         1 UNK         0.0000 
     56 H56        -6.4575   45.3408   27.8190 H         1 UNK         0.0000 
     57 H57        -3.4795   47.4183   27.6525 H         1 UNK         0.0000 
     58 H58        -3.5093   48.4967   29.3648 H         1 UNK         0.0000 
     59 H59        -5.9280   49.6558   30.3994 H         1 UNK         0.0000 
     60 H60        -4.3047   51.1737   31.5365 H         1 UNK         0.0000 
     61 H61        -2.9997   50.5014   30.5527 H         1 UNK         0.0000 
     62 H62        -3.8475   49.4831   31.6848 H         1 UNK         0.0000 
     63 H63        -5.5869   51.9428   29.4439 H         1 UNK         0.0000 
     64 H64        -4.3270   51.3368   28.3884 H         1 UNK         0.0000 
     65 H65        -6.0035   50.7994   28.1771 H         1 UNK         0.0000 
@<TRIPOS>BOND
     1    1    2 1    
     2    1   34 1    
     3    1   35 1    
     4    1   36 1    
     5    2    7 ar   
     6    2    3 ar   
     7    3    4 ar   
     8    3   37 1    
     9    4    5 ar   
    10    4   38 1    
    11    5    6 ar   
    12    5    9 1    
    13    6    7 ar   
    14    6    8 1    
    15    7   39 1    
    16    8   40 1    
    17    8   41 1    
    18    8   42 1    
    19    9   10 2    
    20    9   11 2    
    21    9   12 1    
    22   12   17 1    
    23   12   13 1    
    24   13   14 1    
    25   13   43 1    
    26   13   44 1    
    27   14   15 1    
    28   14   45 1    
    29   14   46 1    
    30   15   16 1    
    31   15   18 1    
    32   15   47 1    
    33   16   17 1    
    34   16   48 1    
    35   16   49 1    
    36   17   50 1    
    37   17   51 1    
    38   18   19 2    
    39   18   20 am   BACKBONE|DICT|INTERRES
    40   20   21 1    
    41   20   52 1    
    42   21   26 ar   
    43   21   22 ar   
    44   22   23 ar   
    45   22   53 1    
    46   23   24 ar   
    47   23   54 1    
    48   24   25 ar   
    49   24   55 1    
    50   25   26 ar   
    51   25   56 1    
    52   26   27 1    
    53   27   28 am   BACKBONE|DICT|INTERRES
    54   27   57 1    
    55   28   29 2    
    56   28   30 am   BACKBONE|DICT|INTERRES
    57   30   31 1    
    58   30   58 1    
    59   31   32 1    
    60   31   33 1    
    61   31   59 1    
    62   32   60 1    
    63   32   61 1    
    64   32   62 1    
    65   33   63 1    
    66   33   64 1    
    67   33   65 1    
@<TRIPOS>SUBSTRUCTURE
     1 UNK         1 GROUP             0       ****    0 ROOT    
