@<TRIPOS>MOLECULE
ZINC13060272_5780
51   53    1
SMALL
USER_CHARGES


@<TRIPOS>ATOM
      1 C1          3.3185   54.8412   28.4360 C.3       1 UNK         0.0000 
      2 C2          3.6428   54.0647   27.1489 C.3       1 UNK         0.0000 
      3 O3          2.4667   53.7315   26.4137 O.3       1 UNK         0.0000 
      4 C4          1.6226   52.7360   26.8032 C.2       1 UNK         0.0000 
      5 O5          1.8131   52.0833   27.8307 O.2       1 UNK         0.0000 
      6 C6          0.4965   52.4964   25.8517 C.2       1 UNK         0.0000 
      7 C7         -0.4639   51.5404   26.0148 C.2       1 UNK         0.0000 
      8 N8         -1.4367   51.3248   25.0292 N.am      1 UNK         0.0000 
      9 C9         -1.6708   52.2246   24.0093 C.2       1 UNK         0.0000 
     10 O10        -2.5058   52.1466   23.1061 O.2       1 UNK         0.0000 
     11 N11        -0.8477   53.2948   23.9893 N.am      1 UNK         0.0000 
     12 C12         0.5211   53.2971   24.5307 C.3       1 UNK         0.0000 
     13 H13         0.7837   54.3380   24.7204 H         1 UNK         0.0000 
     14 C14         1.5709   52.8600   23.5084 C.ar      1 UNK         0.0000 
     15 C15         2.5018   53.7832   23.0241 C.ar      1 UNK         0.0000 
     16 C16         3.4378   53.4074   22.0673 C.ar      1 UNK         0.0000 
     17 C17         3.4780   52.0892   21.5855 C.ar      1 UNK         0.0000 
     18 C18         2.5475   51.1639   22.0792 C.ar      1 UNK         0.0000 
     19 C19         1.6074   51.5465   23.0338 C.ar      1 UNK         0.0000 
     20 Br20        2.5199   49.3616   21.4602 Br        1 UNK         0.0000 
     21 O21         4.3902   51.6485   20.6472 O.3       1 UNK         0.0000 
     22 C22         5.1585   52.6080   19.9271 C.3       1 UNK         0.0000 
     23 C23        -2.1475   50.0905   24.9859 C.ar      1 UNK         0.0000 
     24 C24        -3.5482   50.0848   25.0062 C.ar      1 UNK         0.0000 
     25 C25        -4.2462   48.8826   25.0195 C.ar      1 UNK         0.0000 
     26 C26        -3.5644   47.6586   25.0312 C.ar      1 UNK         0.0000 
     27 C27        -2.1611   47.6687   25.0007 C.ar      1 UNK         0.0000 
     28 C28        -1.4575   48.8715   24.9690 C.ar      1 UNK         0.0000 
     29 C29        -4.3319   46.3687   25.0837 C.2       1 UNK         0.0000 
     30 O30        -5.5705   46.4104   24.9096 O.co2     1 UNK         0.0000 
     31 C31        -0.6724   50.7553   27.3192 C.3       1 UNK         0.0000 
     32 H32         4.2282   55.2135   28.9069 H         1 UNK         0.0000 
     33 H33         2.6732   55.6956   28.2272 H         1 UNK         0.0000 
     34 H34         2.8072   54.2082   29.1608 H         1 UNK         0.0000 
     35 H35         4.2170   53.1637   27.3747 H         1 UNK         0.0000 
     36 H36         4.2773   54.6797   26.5083 H         1 UNK         0.0000 
     37 H37        -1.0041   53.8860   23.1902 H         1 UNK         0.0000 
     38 H38         2.5005   54.8048   23.3731 H         1 UNK         0.0000 
     39 H39         4.1213   54.1624   21.7136 H         1 UNK         0.0000 
     40 H40         0.9000   50.8154   23.3946 H         1 UNK         0.0000 
     41 H41         5.8881   52.1003   19.2982 H         1 UNK         0.0000 
     42 H42         4.5207   53.2135   19.2827 H         1 UNK         0.0000 
     43 H43         5.7235   53.2674   20.5831 H         1 UNK         0.0000 
     44 H44        -4.1002   51.0137   25.0135 H         1 UNK         0.0000 
     45 H45        -5.3275   48.9126   25.0359 H         1 UNK         0.0000 
     46 H46        -1.6041   46.7442   25.0154 H         1 UNK         0.0000 
     47 H47        -0.3766   48.8483   24.9664 H         1 UNK         0.0000 
     48 H48        -0.3826   51.3004   28.2144 H         1 UNK         0.0000 
     49 H49        -1.7188   50.5067   27.4923 H         1 UNK         0.0000 
     50 H50        -0.1067   49.8249   27.2817 H         1 UNK         0.0000 
     51 O51        -3.6958   45.3047   25.2812 O.co2     1 UNK         0.0000 
@<TRIPOS>BOND
     1    1    2 1    
     2    1   32 1    
     3    1   33 1    
     4    1   34 1    
     5    2    3 1    
     6    2   35 1    
     7    2   36 1    
     8    3    4 1    
     9    4    5 2    
    10    4    6 1    
    11    6   12 1    
    12    6    7 2    
    13    7    8 1    
    14    7   31 1    
    15    8    9 am   BACKBONE|DICT|INTERRES
    16    8   23 1    
    17    9   10 2    
    18    9   11 am   BACKBONE|DICT|INTERRES
    19   11   12 1    
    20   11   37 1    
    21   12   13 1    
    22   12   14 1    
    23   14   19 ar   
    24   14   15 ar   
    25   15   16 ar   
    26   15   38 1    
    27   16   17 ar   
    28   16   39 1    
    29   17   18 ar   
    30   17   21 1    
    31   18   19 ar   
    32   18   20 1    
    33   19   40 1    
    34   21   22 1    
    35   22   41 1    
    36   22   42 1    
    37   22   43 1    
    38   23   28 ar   
    39   23   24 ar   
    40   24   25 ar   
    41   24   44 1    
    42   25   26 ar   
    43   25   45 1    
    44   26   27 ar   
    45   26   29 1    
    46   27   28 ar   
    47   27   46 1    
    48   28   47 1    
    49   29   30 2    
    50   29   51 1    
    51   31   48 1    
    52   31   49 1    
    53   31   50 1    
@<TRIPOS>SUBSTRUCTURE
     1 UNK         1 GROUP             0       ****    0 ROOT    
