ZINC59474803_4005
                    3D
 Schrodinger Suite 2024-2.
 48 51  0  0  1  0            999 V2000
    3.1067   58.5054   16.0032 C   0  0  0  0  0  0
    1.8945   57.9104   15.6816 C   0  0  0  0  0  0
    1.6319   56.6087   16.0989 C   0  0  0  0  0  0
    2.5687   55.8665   16.8421 C   0  0  0  0  0  0
    3.8061   56.4844   17.1693 C   0  0  0  0  0  0
    4.0562   57.7987   16.7322 C   0  0  0  0  0  0
    4.7653   55.7565   17.9032 N   0  0  0  0  0  0
    5.8115   56.1954   18.6336 C   0  0  0  0  0  0
    6.0927   57.3801   18.8170 O   0  0  0  0  0  0
    6.6810   55.1048   19.2668 C   0  0  0  0  0  0
    7.5015   55.6401   20.8090 S   0  0  0  0  0  0
    6.4156   55.0732   22.0866 C   0  0  0  0  0  0
    6.7081   55.2966   23.3316 N   0  0  0  0  0  0
    5.7698   54.8438   24.1865 C   0  0  0  0  0  0
    5.8486   54.9782   25.5745 C   0  0  0  0  0  0
    4.7789   54.5287   26.3394 C   0  0  0  0  0  0
    3.6450   53.9563   25.7422 C   0  0  0  0  0  0
    3.5606   53.8107   24.3513 C   0  0  0  0  0  0
    4.6428   54.2458   23.5782 C   0  0  0  0  0  0
    4.8930   54.2233   21.8320 S   0  0  0  0  0  0
    2.5394   53.4894   26.4605 N   0  0  0  0  0  0
    2.4079   53.2128   27.7757 C   0  0  0  0  0  0
    3.2592   53.4349   28.6376 O   0  0  0  0  0  0
    1.0792   52.6012   28.1510 C   0  0  0  0  0  0
    0.6540   52.6368   29.4866 C   0  0  0  0  0  0
   -0.5750   52.0963   29.8443 C   0  0  0  0  0  0
   -1.3903   51.5253   28.8688 C   0  0  0  0  0  0
   -0.9686   51.4536   27.5458 C   0  0  0  0  0  0
    0.2646   51.9789   27.1888 C   0  0  0  0  0  0
   -2.9425   50.8968   29.2820 Cl  0  0  0  0  0  0
    2.2086   54.4730   17.2453 N   0  3  0  0  0  0
    3.0726   53.7185   17.6808 O   0  0  0  0  0  0
    1.0412   54.1124   17.1097 O   0  5  0  0  0  0
    3.3146   59.5198   15.6900 H   0  0  0  0  0  0
    1.1572   58.4611   15.1168 H   0  0  0  0  0  0
    0.6818   56.1726   15.8261 H   0  0  0  0  0  0
    4.9883   58.3054   16.9344 H   0  0  0  0  0  0
    4.5619   54.7652   17.9451 H   0  0  0  0  0  0
    6.1436   54.1674   19.3992 H   0  0  0  0  0  0
    7.4747   54.8938   18.5519 H   0  0  0  0  0  0
    6.7037   55.4408   26.0379 H   0  0  0  0  0  0
    4.8488   54.6627   27.4074 H   0  0  0  0  0  0
    2.6969   53.3646   23.8807 H   0  0  0  0  0  0
    1.7386   53.2579   25.8951 H   0  0  0  0  0  0
    1.2668   53.0882   30.2553 H   0  0  0  0  0  0
   -0.8950   52.1151   30.8777 H   0  0  0  0  0  0
   -1.5938   50.9818   26.8037 H   0  0  0  0  0  0
    0.5646   51.8895   26.1552 H   0  0  0  0  0  0
  1  6  2  0  0  0
  1  2  1  0  0  0
  1 34  1  0  0  0
  2  3  2  0  0  0
  2 35  1  0  0  0
  3  4  1  0  0  0
  3 36  1  0  0  0
  4  5  2  0  0  0
  4 31  1  0  0  0
  5  6  1  0  0  0
  5  7  1  0  0  0
  6 37  1  0  0  0
  7  8  1  0  0  0
  7 38  1  0  0  0
  8  9  2  0  0  0
  8 10  1  0  0  0
 10 11  1  0  0  0
 10 39  1  0  0  0
 10 40  1  0  0  0
 11 12  1  0  0  0
 12 20  1  0  0  0
 12 13  2  0  0  0
 13 14  1  0  0  0
 14 19  2  0  0  0
 14 15  1  0  0  0
 15 16  2  0  0  0
 15 41  1  0  0  0
 16 17  1  0  0  0
 16 42  1  0  0  0
 17 18  2  0  0  0
 17 21  1  0  0  0
 18 19  1  0  0  0
 18 43  1  0  0  0
 19 20  1  0  0  0
 21 22  1  0  0  0
 21 44  1  0  0  0
 22 23  2  0  0  0
 22 24  1  0  0  0
 24 29  2  0  0  0
 24 25  1  0  0  0
 25 26  2  0  0  0
 25 45  1  0  0  0
 26 27  1  0  0  0
 26 46  1  0  0  0
 27 28  2  0  0  0
 27 30  1  0  0  0
 28 29  1  0  0  0
 28 47  1  0  0  0
 29 48  1  0  0  0
 31 32  2  0  0  0
 31 33  1  0  0  0
M  CHG  2  31   1  33  -1
M  END
> <i_i_glide_confnum>
100

> <i_i_glide_lignum>
4006

> <i_i_glide_posenum>
31

> <i_i_glide_rotatable_bonds>
9

> <i_m_Source_File_Index>
2457

> <b_m_subgroup_collapsed>
0

> <r_i_docking_score>
-5.15037

> <r_i_glide_ecoul>
-1.90296

> <r_i_glide_eff_state_penalty>
0

> <r_i_glide_einternal>
4.7768

> <r_i_glide_emodel>
-61.7898

> <r_i_glide_energy>
-47.8107

> <r_i_glide_erotb>
0.655823

> <r_i_glide_esite>
-0.0258847

> <r_i_glide_evdw>
-45.9077

> <r_i_glide_gscore>
-5.15037

> <r_i_glide_hbond>
0

> <r_i_glide_ligand_efficiency>
-0.156072

> <r_i_glide_ligand_efficiency_ln>
-1.14542

> <r_i_glide_ligand_efficiency_sa>
-0.500606

> <r_i_glide_lipo>
-2.74694

> <r_i_glide_metal>
0

> <r_i_glide_rewards>
-0.452541

> <s_i_glide_gridfile>
wee1_glide-grid

> <s_m_Source_File>
wee1_decoys_glide_SP.sdf

> <s_m_Source_Path>
/Users/zhangxujun/Desktop

> <s_m_entry_id>
2732

> <s_m_entry_name>
wee1_decoys_glide_SP.2457

> <s_m_subgroup_title>
wee1_decoys_glide_SP

> <s_m_subgroupid>
wee1_decoys_glide_SP


$$$$
