@<TRIPOS>MOLECULE
ZINC21000889_430
52   55    1
SMALL
USER_CHARGES


@<TRIPOS>ATOM
      1 C1          0.6599   54.0970   30.4658 C.ar      1 UNK         0.0000 
      2 C2         -0.0198   52.8843   30.4103 C.ar      1 UNK         0.0000 
      3 C3         -0.0954   52.1839   29.2109 C.ar      1 UNK         0.0000 
      4 C4          0.5132   52.6885   28.0542 C.ar      1 UNK         0.0000 
      5 C5          1.2052   53.9059   28.1280 C.ar      1 UNK         0.0000 
      6 C6          1.2758   54.6107   29.3286 C.ar      1 UNK         0.0000 
      7 C7          0.4182   51.8993   26.7770 C.2       1 UNK         0.0000 
      8 C8         -0.1736   50.6559   26.5511 C.2       1 UNK         0.0000 
      9 C9         -0.0390   50.1426   25.2464 C.2       1 UNK         0.0000 
     10 C10         0.7024   51.0260   24.4430 C.2       1 UNK         0.0000 
     11 S11         1.1059   52.4967   25.2943 S.3       1 UNK         0.0000 
     12 N12         1.0944   50.7690   23.1329 N.am      1 UNK         0.0000 
     13 C13         1.8060   51.5216   22.2690 C.2       1 UNK         0.0000 
     14 O14         2.1562   52.6835   22.4804 O.2       1 UNK         0.0000 
     15 C15         2.1395   50.8706   20.9048 C.3       1 UNK         0.0000 
     16 C16         1.9116   49.3221   20.8514 C.3       1 UNK         0.0000 
     17 C17         2.2223   48.7719   19.4485 C.3       1 UNK         0.0000 
     18 N18         1.5050   49.5584   18.4302 N.pl3     1 UNK         0.0000 
     19 C19         1.8441   50.9958   18.3671 C.3       1 UNK         0.0000 
     20 C20         1.5323   51.6803   19.7190 C.3       1 UNK         0.0000 
     21 S21         0.1278   48.8725   17.5606 S.o2      1 UNK         0.0000 
     22 O22        -0.8086   48.2968   18.5328 O.2       1 UNK         0.0000 
     23 O23        -0.3079   49.8035   16.5131 O.2       1 UNK         0.0000 
     24 C24         0.9452   47.4880   16.7368 C.2       1 UNK         0.0000 
     25 C25         1.9043   47.6030   15.7413 C.2       1 UNK         0.0000 
     26 C26         2.4472   46.3707   15.3723 C.2       1 UNK         0.0000 
     27 C27         1.9000   45.3099   16.0810 C.2       1 UNK         0.0000 
     28 S28         0.7037   45.8394   17.2214 S.3       1 UNK         0.0000 
     29 Cl29        2.3036   43.6459   15.9605 Cl        1 UNK         0.0000 
     30 C30        -0.5715   48.8594   24.8022 C.2       1 UNK         0.0000 
     31 O31        -0.4059   48.4346   23.6596 O.2       1 UNK         0.0000 
     32 N32        -1.3019   48.1731   25.6817 N.am      1 UNK         0.0000 
     33 H33         0.7040   54.6430   31.3967 H         1 UNK         0.0000 
     34 H34        -0.4970   52.4795   31.2882 H         1 UNK         0.0000 
     35 H35        -0.6322   51.2478   29.2011 H         1 UNK         0.0000 
     36 H36         1.6906   54.3246   27.2591 H         1 UNK         0.0000 
     37 H37         1.8038   55.5522   29.3718 H         1 UNK         0.0000 
     38 H38        -0.6842   50.1151   27.3334 H         1 UNK         0.0000 
     39 H39         0.8043   49.8574   22.8052 H         1 UNK         0.0000 
     40 H40         3.2173   51.0305   20.8327 H         1 UNK         0.0000 
     41 H41         2.5638   48.7958   21.5510 H         1 UNK         0.0000 
     42 H42         0.8645   49.0689   21.0284 H         1 UNK         0.0000 
     43 H43         3.2867   48.8044   19.2118 H         1 UNK         0.0000 
     44 H44         1.9094   47.7304   19.3810 H         1 UNK         0.0000 
     45 H45         2.8983   51.0830   18.0971 H         1 UNK         0.0000 
     46 H46         1.2738   51.4662   17.5668 H         1 UNK         0.0000 
     47 H47         0.4429   51.7032   19.7922 H         1 UNK         0.0000 
     48 H48         1.9363   52.6933   19.6705 H         1 UNK         0.0000 
     49 H49         2.2313   48.5489   15.3300 H         1 UNK         0.0000 
     50 H50         3.2261   46.2627   14.6335 H         1 UNK         0.0000 
     51 H51        -1.7142   47.3028   25.3929 H         1 UNK         0.0000 
     52 H52        -1.2981   48.3955   26.6802 H         1 UNK         0.0000 
@<TRIPOS>BOND
     1    1    6 ar   
     2    1    2 ar   
     3    1   33 1    
     4    2    3 ar   
     5    2   34 1    
     6    3    4 ar   
     7    3   35 1    
     8    4    5 ar   
     9    4    7 1    
    10    5    6 ar   
    11    5   36 1    
    12    6   37 1    
    13    7   11 1    
    14    7    8 2    
    15    8    9 1    
    16    8   38 1    
    17    9   10 2    
    18    9   30 1    
    19   10   11 1    
    20   10   12 am   BACKBONE|DICT|INTERRES
    21   12   13 am   BACKBONE|DICT|INTERRES
    22   12   39 1    
    23   13   14 2    
    24   13   15 1    
    25   15   20 1    
    26   15   16 1    
    27   15   40 1    
    28   16   17 1    
    29   16   41 1    
    30   16   42 1    
    31   17   18 1    
    32   17   43 1    
    33   17   44 1    
    34   18   19 1    
    35   18   21 1    
    36   19   20 1    
    37   19   45 1    
    38   19   46 1    
    39   20   47 1    
    40   20   48 1    
    41   21   22 2    
    42   21   23 2    
    43   21   24 1    
    44   24   28 1    
    45   24   25 2    
    46   25   26 1    
    47   25   49 1    
    48   26   27 2    
    49   26   50 1    
    50   27   28 1    
    51   27   29 1    
    52   30   31 2    
    53   30   32 am   BACKBONE|DICT|INTERRES
    54   32   51 1    
    55   32   52 1    
@<TRIPOS>SUBSTRUCTURE
     1 UNK         1 GROUP             0       ****    0 ROOT    
