@<TRIPOS>MOLECULE
ZINC63584604_357
82   85    1
SMALL
USER_CHARGES


@<TRIPOS>ATOM
      1 C1         -0.0712   47.4928   17.1359 C.3       1 UNK         0.0000 
      2 C2          0.3241   47.8028   18.6020 C.3       1 UNK         0.0000 
      3 C3         -0.6091   46.9741   19.5208 C.3       1 UNK         0.0000 
      4 C4          1.7929   47.3838   18.8234 C.3       1 UNK         0.0000 
      5 N5          0.1019   49.2530   18.8327 N.3       1 UNK         0.0000 
      6 C6          0.4225   49.7802   20.1650 C.3       1 UNK         0.0000 
      7 H7          0.5935   48.9672   20.8718 H         1 UNK         0.0000 
      8 C8          1.7409   50.5131   19.9303 C.2       1 UNK         0.0000 
      9 C9          1.9015   50.7098   18.6062 C.2       1 UNK         0.0000 
     10 N10         0.7765   50.2044   17.9723 N.pl3     1 UNK         0.0000 
     11 C11         2.7320   50.8634   20.9326 C.2       1 UNK         0.0000 
     12 O12         2.6793   50.4223   22.0783 O.2       1 UNK         0.0000 
     13 N13         3.6769   51.7396   20.5437 N.am      1 UNK         0.0000 
     14 C14         4.6539   52.3700   21.4256 C.3       1 UNK         0.0000 
     15 C15         4.0457   53.5274   22.2476 C.3       1 UNK         0.0000 
     16 C16         4.9811   54.0961   23.3028 C.2       1 UNK         0.0000 
     17 C17         4.8496   54.2001   24.6401 C.2       1 UNK         0.0000 
     18 C18         3.7424   53.8240   25.5317 C.2       1 UNK         0.0000 
     19 C19         3.8401   53.9607   26.8789 C.2       1 UNK         0.0000 
     20 C20         5.0954   54.4958   27.3889 C.2       1 UNK         0.0000 
     21 C21         6.1252   54.8664   26.5843 C.2       1 UNK         0.0000 
     22 C22         6.0181   54.7301   25.1965 C.2       1 UNK         0.0000 
     23 N23         6.8833   55.0118   24.2551 N.pl3     1 UNK         0.0000 
     24 C24         6.3370   54.6604   22.9369 C.3       1 UNK         0.0000 
     25 O25         2.8757   53.6239   27.7851 O.3       1 UNK         0.0000 
     26 C26         1.6618   53.0278   27.3295 C.3       1 UNK         0.0000 
     27 C27        -0.7189   50.6760   20.7444 C.3       1 UNK         0.0000 
     28 C28        -2.1103   49.9819   20.6887 C.3       1 UNK         0.0000 
     29 C29        -3.2396   50.8940   21.2023 C.3       1 UNK         0.0000 
     30 N30        -2.8738   51.2558   22.5843 N.am      1 UNK         0.0000 
     31 C31        -1.6142   52.0010   22.7709 C.3       1 UNK         0.0000 
     32 C32        -0.4792   51.1129   22.2127 C.3       1 UNK         0.0000 
     33 C33        -3.5784   50.6714   23.6515 C.2       1 UNK         0.0000 
     34 O34        -4.6187   50.0226   23.5245 O.2       1 UNK         0.0000 
     35 O35        -2.9782   50.9140   24.8576 O.3       1 UNK         0.0000 
     36 C36        -3.4303   50.4170   26.1312 C.3       1 UNK         0.0000 
     37 C37        -4.8316   50.9727   26.4828 C.3       1 UNK         0.0000 
     38 C38        -2.4021   50.9613   27.1391 C.3       1 UNK         0.0000 
     39 C39        -3.4173   48.8698   26.1744 C.3       1 UNK         0.0000 
     40 H40         0.5868   47.9923   16.4220 H         1 UNK         0.0000 
     41 H41        -0.0189   46.4243   16.9245 H         1 UNK         0.0000 
     42 H42        -1.0888   47.8217   16.9149 H         1 UNK         0.0000 
     43 H43        -0.3978   47.1108   20.5798 H         1 UNK         0.0000 
     44 H44        -1.6542   47.2463   19.3755 H         1 UNK         0.0000 
     45 H45        -0.5209   45.9073   19.3186 H         1 UNK         0.0000 
     46 H46         2.1392   47.5936   19.8365 H         1 UNK         0.0000 
     47 H47         1.9041   46.3156   18.6477 H         1 UNK         0.0000 
     48 H48         2.4721   47.9027   18.1455 H         1 UNK         0.0000 
     49 H49         2.7045   51.1554   18.0363 H         1 UNK         0.0000 
     50 H50         0.5683   50.0096   17.0026 H         1 UNK         0.0000 
     51 H51         3.7668   51.9239   19.5526 H         1 UNK         0.0000 
     52 H52         5.0945   51.6180   22.0817 H         1 UNK         0.0000 
     53 H53         5.4838   52.7358   20.8205 H         1 UNK         0.0000 
     54 H54         3.7439   54.3351   21.5804 H         1 UNK         0.0000 
     55 H55         3.1423   53.1798   22.7466 H         1 UNK         0.0000 
     56 H56         2.8359   53.4219   25.1102 H         1 UNK         0.0000 
     57 H57         5.2108   54.6035   28.4584 H         1 UNK         0.0000 
     58 H58         7.0208   55.2518   27.0492 H         1 UNK         0.0000 
     59 H59         7.0114   53.9371   22.4823 H         1 UNK         0.0000 
     60 H60         6.3037   55.5649   22.3279 H         1 UNK         0.0000 
     61 H61         1.0264   52.8078   28.1890 H         1 UNK         0.0000 
     62 H62         1.1065   53.6959   26.6715 H         1 UNK         0.0000 
     63 H63         1.8434   52.0869   26.8076 H         1 UNK         0.0000 
     64 H64        -0.7916   51.5812   20.1381 H         1 UNK         0.0000 
     65 H65        -2.0955   49.0411   21.2449 H         1 UNK         0.0000 
     66 H66        -2.3410   49.6917   19.6629 H         1 UNK         0.0000 
     67 H67        -4.2294   50.4462   21.1167 H         1 UNK         0.0000 
     68 H68        -3.2428   51.8026   20.6016 H         1 UNK         0.0000 
     69 H69        -1.6916   52.9019   22.1663 H         1 UNK         0.0000 
     70 H70        -1.4311   52.3250   23.7989 H         1 UNK         0.0000 
     71 H71         0.4521   51.6654   22.2966 H         1 UNK         0.0000 
     72 H72        -0.3408   50.2414   22.8558 H         1 UNK         0.0000 
     73 H73        -5.1102   50.7230   27.5080 H         1 UNK         0.0000 
     74 H74        -5.6072   50.5692   25.8323 H         1 UNK         0.0000 
     75 H75        -4.8613   52.0589   26.3877 H         1 UNK         0.0000 
     76 H76        -1.3965   50.6023   26.9142 H         1 UNK         0.0000 
     77 H77        -2.3666   52.0512   27.1331 H         1 UNK         0.0000 
     78 H78        -2.6373   50.6401   28.1559 H         1 UNK         0.0000 
     79 H79        -2.4236   48.4792   25.9502 H         1 UNK         0.0000 
     80 H80        -3.6940   48.4992   27.1649 H         1 UNK         0.0000 
     81 H81        -4.1126   48.4262   25.4626 H         1 UNK         0.0000 
     82 H82         7.8202   55.3845   24.3831 H         1 UNK         0.0000 
@<TRIPOS>BOND
     1    1    2 1    
     2    1   40 1    
     3    1   41 1    
     4    1   42 1    
     5    2    3 1    
     6    2    4 1    
     7    2    5 1    
     8    3   43 1    
     9    3   44 1    
    10    3   45 1    
    11    4   46 1    
    12    4   47 1    
    13    4   48 1    
    14    5   10 1    
    15    5    6 1    
    16    6    7 1    
    17    6    8 1    
    18    6   27 1    
    19    8    9 2    
    20    8   11 1    
    21    9   10 1    
    22    9   49 1    
    23   10   50 1    
    24   11   12 2    
    25   11   13 am   BACKBONE|DICT|INTERRES
    26   13   14 1    
    27   13   51 1    
    28   14   15 1    
    29   14   52 1    
    30   14   53 1    
    31   15   16 1    
    32   15   54 1    
    33   15   55 1    
    34   16   24 1    
    35   16   17 2    
    36   17   22 1    
    37   17   18 1    
    38   18   19 2    
    39   18   56 1    
    40   19   20 1    
    41   19   25 1    
    42   20   21 2    
    43   20   57 1    
    44   21   22 1    
    45   21   58 1    
    46   22   23 2    
    47   23   24 1    
    48   23   82 1    
    49   24   59 1    
    50   24   60 1    
    51   25   26 1    
    52   26   61 1    
    53   26   62 1    
    54   26   63 1    
    55   27   32 1    
    56   27   28 1    
    57   27   64 1    
    58   28   29 1    
    59   28   65 1    
    60   28   66 1    
    61   29   30 1    
    62   29   67 1    
    63   29   68 1    
    64   30   31 1    
    65   30   33 am   BACKBONE|DICT|INTERRES
    66   31   32 1    
    67   31   69 1    
    68   31   70 1    
    69   32   71 1    
    70   32   72 1    
    71   33   34 2    
    72   33   35 1    
    73   35   36 1    
    74   36   37 1    
    75   36   38 1    
    76   36   39 1    
    77   37   73 1    
    78   37   74 1    
    79   37   75 1    
    80   38   76 1    
    81   38   77 1    
    82   38   78 1    
    83   39   79 1    
    84   39   80 1    
    85   39   81 1    
@<TRIPOS>SUBSTRUCTURE
     1 UNK         1 GROUP             0       ****    0 ROOT    
