@<TRIPOS>MOLECULE
ZINC39695843_5564
72   77    1
SMALL
USER_CHARGES


@<TRIPOS>ATOM
      1 C1          1.0607   53.6732   12.9294 C.3       1 UNK         0.0000 
      2 C2          1.0669   53.3914   14.4203 C.ar      1 UNK         0.0000 
      3 C3          0.3494   54.2321   15.2781 C.ar      1 UNK         0.0000 
      4 C4          0.3150   54.0131   16.6567 C.ar      1 UNK         0.0000 
      5 C5          1.0195   52.9155   17.1678 C.ar      1 UNK         0.0000 
      6 C6          1.7393   52.0727   16.2858 C.ar      1 UNK         0.0000 
      7 C7          1.7777   52.2864   14.9055 C.ar      1 UNK         0.0000 
      8 N8          2.3032   51.1365   17.1184 N.pl3     1 UNK         0.0000 
      9 H9          2.9422   50.3722   16.8832 H         1 UNK         0.0000 
     10 C10         1.9179   51.4344   18.4074 C.ar      1 UNK         0.0000 
     11 N11         1.1444   52.4963   18.4645 N.2       1 UNK         0.0000 
     12 C12         2.4247   50.6298   19.6067 C.3       1 UNK         0.0000 
     13 C13         2.1820   49.1120   19.4759 C.3       1 UNK         0.0000 
     14 N14         2.0146   51.1892   20.9026 N.am      1 UNK         0.0000 
     15 C15         0.7965   51.1559   21.4821 C.2       1 UNK         0.0000 
     16 O16        -0.1581   50.5689   20.9762 O.2       1 UNK         0.0000 
     17 C17         0.5495   51.9655   22.7895 C.3       1 UNK         0.0000 
     18 C18         1.8282   52.7240   23.2144 C.3       1 UNK         0.0000 
     19 N19         1.7054   52.8894   24.6616 N.am      1 UNK         0.0000 
     20 C20         0.5357   52.1648   25.1697 C.3       1 UNK         0.0000 
     21 C21         0.1462   51.1534   24.0521 C.3       1 UNK         0.0000 
     22 C22         0.9075   49.7929   24.1728 C.3       1 UNK         0.0000 
     23 C23         0.6474   49.0895   25.5242 C.3       1 UNK         0.0000 
     24 N24        -0.8762   48.8708   25.6816 N.4       1 UNK         0.0000 
     25 C25        -1.7414   50.1308   25.4377 C.3       1 UNK         0.0000 
     26 C26        -1.3485   50.7518   24.0778 C.3       1 UNK         0.0000 
     27 C27         2.5938   53.4888   25.5066 C.2       1 UNK         0.0000 
     28 O28         2.3743   53.5784   26.7173 O.2       1 UNK         0.0000 
     29 C29         3.8601   53.9968   24.9949 C.2       1 UNK         0.0000 
     30 C30         4.9632   54.5036   25.6753 C.2       1 UNK         0.0000 
     31 C31         5.9389   54.8009   24.7196 C.2       1 UNK         0.0000 
     32 C32         5.3975   54.4966   23.4787 C.2       1 UNK         0.0000 
     33 O33         4.1388   54.0166   23.6630 O.3       1 UNK         0.0000 
     34 C34         5.8727   54.6449   22.0702 C.ar      1 UNK         0.0000 
     35 C35         7.0823   55.2972   21.8070 C.ar      1 UNK         0.0000 
     36 C36         7.4997   55.4985   20.4930 C.ar      1 UNK         0.0000 
     37 C37         6.7123   55.0374   19.4399 C.ar      1 UNK         0.0000 
     38 C38         5.5123   54.3762   19.6891 C.ar      1 UNK         0.0000 
     39 C39         5.0933   54.1804   21.0026 C.ar      1 UNK         0.0000 
     40 F40         7.1187   55.2305   18.1655 F         1 UNK         0.0000 
     41 H41         1.7860   54.4491   12.6830 H         1 UNK         0.0000 
     42 H42         1.2898   52.7767   12.3515 H         1 UNK         0.0000 
     43 H43         0.0749   54.0114   12.6069 H         1 UNK         0.0000 
     44 H44        -0.1880   55.0758   14.8693 H         1 UNK         0.0000 
     45 H45        -0.2321   54.6726   17.3127 H         1 UNK         0.0000 
     46 H46         2.3341   51.6355   14.2467 H         1 UNK         0.0000 
     47 H47         3.5043   50.7794   19.6152 H         1 UNK         0.0000 
     48 H48         2.7054   48.7021   18.6117 H         1 UNK         0.0000 
     49 H49         2.5408   48.5777   20.3551 H         1 UNK         0.0000 
     50 H50         1.1226   48.8851   19.3553 H         1 UNK         0.0000 
     51 H51         2.7330   51.7119   21.3727 H         1 UNK         0.0000 
     52 H52        -0.1834   52.7316   22.5342 H         1 UNK         0.0000 
     53 H53         2.7066   52.0897   23.0935 H         1 UNK         0.0000 
     54 H54         1.9370   53.6691   22.6781 H         1 UNK         0.0000 
     55 H55        -0.2755   52.8906   25.2405 H         1 UNK         0.0000 
     56 H56         0.6470   51.7106   26.1534 H         1 UNK         0.0000 
     57 H57         0.6697   49.1179   23.3477 H         1 UNK         0.0000 
     58 H58         1.9777   49.9650   24.0830 H         1 UNK         0.0000 
     59 H59         1.1014   48.0974   25.5738 H         1 UNK         0.0000 
     60 H60         0.9729   49.6523   26.3992 H         1 UNK         0.0000 
     61 H61        -1.1712   48.1363   25.0535 H         1 UNK         0.0000 
     62 H62        -2.7800   49.7973   25.4665 H         1 UNK         0.0000 
     63 H63        -1.5650   50.7908   26.2887 H         1 UNK         0.0000 
     64 H64        -1.9601   51.6447   23.9410 H         1 UNK         0.0000 
     65 H65        -1.6063   50.0979   23.2432 H         1 UNK         0.0000 
     66 H66         5.0550   54.6227   26.7456 H         1 UNK         0.0000 
     67 H67         6.9223   55.2063   24.9048 H         1 UNK         0.0000 
     68 H68         7.6970   55.6681   22.6140 H         1 UNK         0.0000 
     69 H69         8.4331   56.0020   20.2866 H         1 UNK         0.0000 
     70 H70         4.9095   54.0203   18.8657 H         1 UNK         0.0000 
     71 H71         4.1518   53.6826   21.1793 H         1 UNK         0.0000 
     72 H72        -1.0619   48.5289   26.6312 H         1 UNK         0.0000 
@<TRIPOS>BOND
     1    1    2 1    
     2    1   41 1    
     3    1   42 1    
     4    1   43 1    
     5    2    7 ar   
     6    2    3 ar   
     7    3    4 ar   
     8    3   44 1    
     9    4    5 ar   
    10    4   45 1    
    11    5   11 ar   
    12    5    6 ar   
    13    6    7 ar   
    14    6    8 ar   
    15    7   46 1    
    16    8    9 1    
    17    8   10 ar   
    18   10   11 ar   
    19   10   12 1    
    20   12   13 1    
    21   12   14 1    
    22   12   47 1    
    23   13   48 1    
    24   13   49 1    
    25   13   50 1    
    26   14   15 am   BACKBONE|DICT|INTERRES
    27   14   51 1    
    28   15   16 2    
    29   15   17 1    
    30   17   21 1    
    31   17   18 1    
    32   17   52 1    
    33   18   19 1    
    34   18   53 1    
    35   18   54 1    
    36   19   20 1    
    37   19   27 am   BACKBONE|DICT|INTERRES
    38   20   21 1    
    39   20   55 1    
    40   20   56 1    
    41   21   26 1    
    42   21   22 1    
    43   22   23 1    
    44   22   57 1    
    45   22   58 1    
    46   23   24 1    
    47   23   59 1    
    48   23   60 1    
    49   24   25 1    
    50   24   61 1    
    51   24   72 1    
    52   25   26 1    
    53   25   62 1    
    54   25   63 1    
    55   26   64 1    
    56   26   65 1    
    57   27   28 2    
    58   27   29 1    
    59   29   33 1    
    60   29   30 2    
    61   30   31 1    
    62   30   66 1    
    63   31   32 2    
    64   31   67 1    
    65   32   33 1    
    66   32   34 1    
    67   34   39 ar   
    68   34   35 ar   
    69   35   36 ar   
    70   35   68 1    
    71   36   37 ar   
    72   36   69 1    
    73   37   38 ar   
    74   37   40 1    
    75   38   39 ar   
    76   38   70 1    
    77   39   71 1    
@<TRIPOS>SUBSTRUCTURE
     1 UNK         1 GROUP             0       ****    0 ROOT    
