@<TRIPOS>MOLECULE
ZINC33628107_3127
64   67    1
SMALL
USER_CHARGES


@<TRIPOS>ATOM
      1 C1         -0.2910   50.2296   16.0187 C.3       1 UNK         0.0000 
      2 C2          1.0331   49.8431   16.7048 C.3       1 UNK         0.0000 
      3 H3          1.4782   50.7779   17.0483 H         1 UNK         0.0000 
      4 C4          0.9456   48.8728   17.9444 C.3       1 UNK         0.0000 
      5 C5          0.0855   49.4648   19.0972 C.3       1 UNK         0.0000 
      6 H6          0.2663   50.5461   19.0808 H         1 UNK         0.0000 
      7 C7          0.5915   48.7991   20.3063 C.3       1 UNK         0.0000 
      8 H8          0.5249   47.7060   20.2886 H         1 UNK         0.0000 
      9 C9          2.0807   49.1650   20.2448 C.3       1 UNK         0.0000 
     10 H10         2.7022   48.4735   20.8163 H         1 UNK         0.0000 
     11 N11         2.3007   48.8018   18.7403 N.4       1 UNK         0.0000 
     12 C12         2.4959   50.6155   20.5790 C.ar      1 UNK         0.0000 
     13 C13         3.0773   51.4706   19.6296 C.ar      1 UNK         0.0000 
     14 C14         3.3616   52.7973   19.9389 C.ar      1 UNK         0.0000 
     15 C15         3.0483   53.2964   21.1979 C.ar      1 UNK         0.0000 
     16 C16         2.4986   52.4613   22.1732 C.ar      1 UNK         0.0000 
     17 C17         2.2590   51.1215   21.8646 C.ar      1 UNK         0.0000 
     18 O18         2.1077   52.9360   23.4070 O.3       1 UNK         0.0000 
     19 C19         2.9917   53.5274   24.2874 C.ar      1 UNK         0.0000 
     20 C20         2.5655   53.6959   25.6063 C.ar      1 UNK         0.0000 
     21 C21         3.4234   54.2307   26.5689 C.ar      1 UNK         0.0000 
     22 C22         4.7197   54.6069   26.2176 C.ar      1 UNK         0.0000 
     23 C23         5.1618   54.4518   24.8987 C.ar      1 UNK         0.0000 
     24 C24         4.2950   53.9181   23.9499 C.ar      1 UNK         0.0000 
     25 C25         6.5789   54.8089   24.4755 C.3       1 UNK         0.0000 
     26 F26         7.3093   53.6980   24.4863 F         1 UNK         0.0000 
     27 F27         6.6183   55.3101   23.2400 F         1 UNK         0.0000 
     28 F28         7.1039   55.6991   25.3122 F         1 UNK         0.0000 
     29 C29        -0.4227   49.2290   21.3436 C.2       1 UNK         0.0000 
     30 O30        -0.2192   49.2386   22.5561 O.2       1 UNK         0.0000 
     31 N31        -1.6004   49.4283   20.6575 N.am      1 UNK         0.0000 
     32 C32        -1.4181   49.3752   19.2924 C.2       1 UNK         0.0000 
     33 O33        -2.2500   49.3846   18.3871 O.2       1 UNK         0.0000 
     34 C34        -2.9127   49.6475   21.3729 C.3       1 UNK         0.0000 
     35 C35        -3.2697   48.4118   22.2433 C.3       1 UNK         0.0000 
     36 C36        -4.1414   49.8832   20.4451 C.3       1 UNK         0.0000 
     37 C37        -2.8378   50.9073   22.2815 C.3       1 UNK         0.0000 
     38 C38         0.6383   47.3906   17.4930 C.2       1 UNK         0.0000 
     39 O39         1.5013   46.4951   17.6736 O.co2     1 UNK         0.0000 
     40 O40        -0.4887   47.1510   17.0113 O.co2     1 UNK         0.0000 
     41 O41         1.9038   49.3854   15.6847 O.3       1 UNK         0.0000 
     42 H42        -0.9370   50.7926   16.6899 H         1 UNK         0.0000 
     43 H43        -0.1128   50.8668   15.1516 H         1 UNK         0.0000 
     44 H44        -0.8450   49.3596   15.6681 H         1 UNK         0.0000 
     45 H45         2.6045   47.8374   18.6554 H         1 UNK         0.0000 
     46 H46         3.3046   51.1401   18.6282 H         1 UNK         0.0000 
     47 H47         3.7827   53.4499   19.1884 H         1 UNK         0.0000 
     48 H48         3.1918   54.3471   21.4027 H         1 UNK         0.0000 
     49 H49         1.8488   50.4889   22.6357 H         1 UNK         0.0000 
     50 H50         1.5680   53.3916   25.8876 H         1 UNK         0.0000 
     51 H51         3.0847   54.3470   27.5881 H         1 UNK         0.0000 
     52 H52         5.3784   55.0052   26.9766 H         1 UNK         0.0000 
     53 H53         4.6870   53.7695   22.9591 H         1 UNK         0.0000 
     54 H54        -4.2424   48.5222   22.7249 H         1 UNK         0.0000 
     55 H55        -2.5495   48.2432   23.0442 H         1 UNK         0.0000 
     56 H56        -3.3067   47.5018   21.6428 H         1 UNK         0.0000 
     57 H57        -4.0018   50.7490   19.7961 H         1 UNK         0.0000 
     58 H58        -4.3444   49.0192   19.8102 H         1 UNK         0.0000 
     59 H59        -5.0538   50.0651   21.0153 H         1 UNK         0.0000 
     60 H60        -2.5455   51.7909   21.7131 H         1 UNK         0.0000 
     61 H61        -3.7963   51.1258   22.7543 H         1 UNK         0.0000 
     62 H62        -2.1218   50.7971   23.0955 H         1 UNK         0.0000 
     63 H63         2.8221   49.2965   16.0379 H         1 UNK         0.0000 
     64 H64         3.0439   49.3269   18.2907 H         1 UNK         0.0000 
@<TRIPOS>BOND
     1    1    2 1    
     2    1   42 1    
     3    1   43 1    
     4    1   44 1    
     5    2    3 1    
     6    2    4 1    
     7    2   41 1    
     8    4   11 1    
     9    4    5 1    
    10    4   38 1    
    11    5    6 1    
    12    5   32 1    
    13    5    7 1    
    14    7    8 1    
    15    7    9 1    
    16    7   29 1    
    17    9   10 1    
    18    9   11 1    
    19    9   12 1    
    20   11   45 1    
    21   11   64 1    
    22   12   17 ar   
    23   12   13 ar   
    24   13   14 ar   
    25   13   46 1    
    26   14   15 ar   
    27   14   47 1    
    28   15   16 ar   
    29   15   48 1    
    30   16   17 ar   
    31   16   18 1    
    32   17   49 1    
    33   18   19 1    
    34   19   24 ar   
    35   19   20 ar   
    36   20   21 ar   
    37   20   50 1    
    38   21   22 ar   
    39   21   51 1    
    40   22   23 ar   
    41   22   52 1    
    42   23   24 ar   
    43   23   25 1    
    44   24   53 1    
    45   25   26 1    
    46   25   27 1    
    47   25   28 1    
    48   29   30 2    
    49   29   31 am   BACKBONE|DICT|INTERRES
    50   31   32 am   BACKBONE|DICT|INTERRES
    51   31   34 1    
    52   32   33 2    
    53   34   35 1    
    54   34   36 1    
    55   34   37 1    
    56   35   54 1    
    57   35   55 1    
    58   35   56 1    
    59   36   57 1    
    60   36   58 1    
    61   36   59 1    
    62   37   60 1    
    63   37   61 1    
    64   37   62 1    
    65   38   39 2    
    66   38   40 1    
    67   41   63 1    
@<TRIPOS>SUBSTRUCTURE
     1 UNK         1 GROUP             0       ****    0 ROOT    
