ZINC48572242_1655
                    3D
 Schrodinger Suite 2024-2.
 28 29  0  0  1  0            999 V2000
    6.4859   54.3165   28.2397 C   0  0  0  0  0  0
    5.2586   53.5474   27.7269 C   0  0  1  0  0  0
    5.5278   52.4964   27.7856 H   0  0  0  0  0  0
    3.9906   53.7028   28.6116 C   0  0  0  0  0  0
    4.0643   54.4982   29.5563 O   0  0  0  0  0  0
    2.9520   52.9522   28.2952 N   0  5  0  0  0  0
    1.9036   52.8362   29.1472 C   0  0  0  0  0  0
    1.6474   53.2398   30.3788 N   0  0  0  0  0  0
    0.7391   51.6861   27.8068 H   0  0  0  0  0  0
    0.4297   52.7714   30.6036 C   0  0  0  0  0  0
   -0.1413   52.0965   29.6344 N   0  0  0  0  0  0
    0.8192   52.1300   28.7092 N   0  0  0  0  0  0
    4.9770   53.7980   26.3043 N   0  0  0  0  0  0
    5.6643   54.4939   25.3731 C   0  0  0  0  0  0
    6.6882   55.1517   25.5681 O   0  0  0  0  0  0
    5.1366   54.3241   24.0468 C   0  0  0  0  0  0
    3.8186   54.0965   23.6360 C   0  0  0  0  0  0
    3.6998   53.9797   22.2463 C   0  0  0  0  0  0
    4.9060   54.1664   21.5863 C   0  0  0  0  0  0
    6.2060   54.4968   22.6838 S   0  0  0  0  0  0
    5.2307   54.1113   19.7144 Br  0  0  0  0  0  0
    6.6864   54.0975   29.2816 H   0  0  0  0  0  0
    7.3918   54.0481   27.6970 H   0  0  0  0  0  0
    6.3047   55.3880   28.1393 H   0  0  0  0  0  0
   -0.0760   52.9302   31.5469 H   0  0  0  0  0  0
    4.1352   53.3295   26.0029 H   0  0  0  0  0  0
    2.9814   53.9995   24.3127 H   0  0  0  0  0  0
    2.7683   53.7698   21.7377 H   0  0  0  0  0  0
  1  2  1  0  0  0
  1 22  1  0  0  0
  1 23  1  0  0  0
  1 24  1  0  0  0
  2  3  1  0  0  0
  2  4  1  0  0  0
  2 13  1  0  0  0
  4  5  2  0  0  0
  4  6  1  0  0  0
  6  7  1  0  0  0
  7  8  2  0  0  0
  7 12  1  0  0  0
  8 10  1  0  0  0
  9 12  1  0  0  0
 10 25  1  0  0  0
 10 11  2  0  0  0
 11 12  1  0  0  0
 13 14  1  0  0  0
 13 26  1  0  0  0
 14 15  2  0  0  0
 14 16  1  0  0  0
 16 20  1  0  0  0
 16 17  2  0  0  0
 17 18  1  0  0  0
 17 27  1  0  0  0
 18 19  2  0  0  0
 18 28  1  0  0  0
 19 20  1  0  0  0
 19 21  1  0  0  0
M  CHG  1   6  -1
M  END
> <i_i_glide_confnum>
17

> <i_i_glide_lignum>
1656

> <i_i_glide_posenum>
347

> <i_i_glide_rotatable_bonds>
6

> <i_m_Source_File_Index>
3299

> <b_m_subgroup_collapsed>
0

> <r_i_docking_score>
-6.10122

> <r_i_glide_ecoul>
-6.97345

> <r_i_glide_eff_state_penalty>
0

> <r_i_glide_einternal>
4.91084

> <r_i_glide_emodel>
-60.9491

> <r_i_glide_energy>
-45.096

> <r_i_glide_erotb>
0.644351

> <r_i_glide_esite>
-0.0276298

> <r_i_glide_evdw>
-38.1226

> <r_i_glide_gscore>
-6.10122

> <r_i_glide_hbond>
-0.307611

> <r_i_glide_ligand_efficiency>
-0.321117

> <r_i_glide_ligand_efficiency_ln>
-1.54679

> <r_i_glide_ligand_efficiency_sa>
-0.856868

> <r_i_glide_lipo>
-1.43619

> <r_i_glide_metal>
0

> <r_i_glide_rewards>
-2.02199

> <s_i_glide_gridfile>
wee1_glide-grid

> <s_m_Source_File>
wee1_decoys_glide_SP.sdf

> <s_m_Source_Path>
/Users/zhangxujun/Desktop

> <s_m_entry_id>
3574

> <s_m_entry_name>
wee1_decoys_glide_SP.3299

> <s_m_subgroup_title>
wee1_decoys_glide_SP

> <s_m_subgroupid>
wee1_decoys_glide_SP


$$$$
