@<TRIPOS>MOLECULE
ZINC15967917_4412
66   72    1
SMALL
USER_CHARGES


@<TRIPOS>ATOM
      1 C1          4.1672   54.4843   24.1773 C.3       1 UNK         0.0000 
      2 C2          3.0036   53.7217   23.5784 C.ar      1 UNK         0.0000 
      3 C3          1.7288   53.8204   24.1337 C.ar      1 UNK         0.0000 
      4 C4          0.6986   53.0173   23.6534 C.ar      1 UNK         0.0000 
      5 C5          0.9462   52.0734   22.6513 C.ar      1 UNK         0.0000 
      6 C6          2.2087   52.0593   22.0354 C.ar      1 UNK         0.0000 
      7 C7          3.2265   52.8941   22.4820 C.ar      1 UNK         0.0000 
      8 C8         -0.0882   51.0869   22.1959 C.2       1 UNK         0.0000 
      9 O9          0.0881   50.4274   21.1666 O.2       1 UNK         0.0000 
     10 C10        -1.3969   50.8538   23.0330 C.3       1 UNK         0.0000 
     11 H11        -1.8576   51.8326   23.1465 H         1 UNK         0.0000 
     12 C12        -2.3723   49.9221   22.2533 C.3       1 UNK         0.0000 
     13 H13        -1.8910   49.1790   21.6117 H         1 UNK         0.0000 
     14 C14        -3.4116   50.6008   21.3466 C.3       1 UNK         0.0000 
     15 C15        -4.7769   50.1339   21.8660 C.3       1 UNK         0.0000 
     16 C16        -4.4614   48.9299   22.7506 C.3       1 UNK         0.0000 
     17 N17        -3.0987   49.1350   23.2325 N.3       1 UNK         0.0000 
     18 C18        -2.8116   49.6501   24.5838 C.3       1 UNK         0.0000 
     19 C19        -1.3024   50.1742   24.4631 C.3       1 UNK         0.0000 
     20 C20        -0.7991   50.9967   25.6476 C.ar      1 UNK         0.0000 
     21 C21        -1.2487   52.1805   26.2478 C.ar      1 UNK         0.0000 
     22 C22        -0.5708   52.7108   27.3507 C.ar      1 UNK         0.0000 
     23 C23         0.5526   52.0748   27.8677 C.ar      1 UNK         0.0000 
     24 C24         0.9967   50.8969   27.2820 C.ar      1 UNK         0.0000 
     25 C25         0.3048   50.3690   26.1926 C.ar      1 UNK         0.0000 
     26 N26         0.5905   49.2222   25.4891 N.am      1 UNK         0.0000 
     27 C27        -0.2370   49.0230   24.4584 C.2       1 UNK         0.0000 
     28 O28        -0.1645   48.0961   23.6627 O.2       1 UNK         0.0000 
     29 C29        -3.7860   50.6785   25.1397 C.ar      1 UNK         0.0000 
     30 C30        -4.2158   51.9176   24.6562 C.ar      1 UNK         0.0000 
     31 C31        -5.0404   52.7296   25.4398 C.ar      1 UNK         0.0000 
     32 C32        -5.4337   52.2971   26.7121 C.ar      1 UNK         0.0000 
     33 C33        -5.0126   51.0578   27.2058 C.ar      1 UNK         0.0000 
     34 C34        -4.1951   50.2653   26.3949 C.ar      1 UNK         0.0000 
     35 N35        -3.6969   48.9981   26.6394 N.am      1 UNK         0.0000 
     36 C36        -3.0106   48.4857   25.6079 C.2       1 UNK         0.0000 
     37 O37        -2.6101   47.3238   25.5098 O.2       1 UNK         0.0000 
     38 C38        -5.4367   50.6104   28.5950 C.3       1 UNK         0.0000 
     39 C39        -5.4635   54.0965   24.9407 C.3       1 UNK         0.0000 
     40 H40         3.8313   55.2964   24.8193 H         1 UNK         0.0000 
     41 H41         4.7915   53.8107   24.7653 H         1 UNK         0.0000 
     42 H42         4.7909   54.8956   23.3847 H         1 UNK         0.0000 
     43 H43         1.5394   54.4952   24.9549 H         1 UNK         0.0000 
     44 H44        -0.2788   53.1250   24.0916 H         1 UNK         0.0000 
     45 H45         2.4272   51.3756   21.2266 H         1 UNK         0.0000 
     46 H46         4.2040   52.8375   22.0230 H         1 UNK         0.0000 
     47 H47        -3.2951   51.6836   21.3056 H         1 UNK         0.0000 
     48 H48        -3.2985   50.2196   20.3293 H         1 UNK         0.0000 
     49 H49        -5.2960   50.8978   22.4431 H         1 UNK         0.0000 
     50 H50        -5.4456   49.8567   21.0482 H         1 UNK         0.0000 
     51 H51        -5.1546   48.8459   23.5889 H         1 UNK         0.0000 
     52 H52        -4.5279   47.9920   22.1979 H         1 UNK         0.0000 
     53 H53        -2.0981   52.7199   25.8661 H         1 UNK         0.0000 
     54 H54        -0.8956   53.6389   27.7934 H         1 UNK         0.0000 
     55 H55         1.0773   52.4947   28.7128 H         1 UNK         0.0000 
     56 H56         1.8676   50.3999   27.6822 H         1 UNK         0.0000 
     57 H57         1.3311   48.5735   25.7144 H         1 UNK         0.0000 
     58 H58        -3.8950   52.2756   23.6915 H         1 UNK         0.0000 
     59 H59        -6.0656   52.9305   27.3192 H         1 UNK         0.0000 
     60 H60        -3.8316   48.4826   27.4965 H         1 UNK         0.0000 
     61 H61        -5.9419   51.4009   29.1502 H         1 UNK         0.0000 
     62 H62        -6.0951   49.7445   28.5288 H         1 UNK         0.0000 
     63 H63        -4.5603   50.3052   29.1693 H         1 UNK         0.0000 
     64 H64        -4.7904   54.4694   24.1692 H         1 UNK         0.0000 
     65 H65        -6.4753   54.0637   24.5398 H         1 UNK         0.0000 
     66 H66        -5.4363   54.8118   25.7622 H         1 UNK         0.0000 
@<TRIPOS>BOND
     1    1    2 1    
     2    1   40 1    
     3    1   41 1    
     4    1   42 1    
     5    2    7 ar   
     6    2    3 ar   
     7    3    4 ar   
     8    3   43 1    
     9    4    5 ar   
    10    4   44 1    
    11    5    6 ar   
    12    5    8 1    
    13    6    7 ar   
    14    6   45 1    
    15    7   46 1    
    16    8    9 2    
    17    8   10 1    
    18   10   11 1    
    19   10   19 1    
    20   10   12 1    
    21   12   13 1    
    22   12   17 1    
    23   12   14 1    
    24   14   15 1    
    25   14   47 1    
    26   14   48 1    
    27   15   16 1    
    28   15   49 1    
    29   15   50 1    
    30   16   17 1    
    31   16   51 1    
    32   16   52 1    
    33   17   18 1    
    34   18   36 1    
    35   18   19 1    
    36   18   29 1    
    37   19   27 1    
    38   19   20 1    
    39   20   25 ar   
    40   20   21 ar   
    41   21   22 ar   
    42   21   53 1    
    43   22   23 ar   
    44   22   54 1    
    45   23   24 ar   
    46   23   55 1    
    47   24   25 ar   
    48   24   56 1    
    49   25   26 1    
    50   26   27 am   BACKBONE|DICT|INTERRES
    51   26   57 1    
    52   27   28 2    
    53   29   34 ar   
    54   29   30 ar   
    55   30   31 ar   
    56   30   58 1    
    57   31   32 ar   
    58   31   39 1    
    59   32   33 ar   
    60   32   59 1    
    61   33   34 ar   
    62   33   38 1    
    63   34   35 1    
    64   35   36 am   BACKBONE|DICT|INTERRES
    65   35   60 1    
    66   36   37 2    
    67   38   61 1    
    68   38   62 1    
    69   38   63 1    
    70   39   64 1    
    71   39   65 1    
    72   39   66 1    
@<TRIPOS>SUBSTRUCTURE
     1 UNK         1 GROUP             0       ****    0 ROOT    
