ZINC13360579_1994
                    3D
 Schrodinger Suite 2024-2.
 54 56  0  0  1  0            999 V2000
    1.5043   48.1288   15.6134 C   0  0  0  0  0  0
    0.9491   48.0022   16.9169 O   0  0  0  0  0  0
    0.6879   46.7477   17.4296 C   0  0  0  0  0  0
    0.9489   45.5508   16.7370 C   0  0  0  0  0  0
    0.7042   44.3114   17.3300 C   0  0  0  0  0  0
    0.1901   44.2278   18.6305 C   0  0  0  0  0  0
   -0.1111   45.4234   19.2923 C   0  0  0  0  0  0
    0.1493   46.6699   18.7188 C   0  0  0  0  0  0
   -0.1727   48.1456   19.6976 S   0  0  0  0  0  0
   -0.7334   49.1796   18.8235 O   0  0  0  0  0  0
   -0.8958   47.7241   20.9040 O   0  0  0  0  0  0
    1.4278   48.7052   20.2151 N   0  0  0  0  0  0
    1.6165   49.8311   21.0314 C   0  0  0  0  0  0
    2.7852   50.5742   20.8598 C   0  0  0  0  0  0
    3.0425   51.6812   21.6637 C   0  0  0  0  0  0
    2.1275   52.0652   22.6491 C   0  0  0  0  0  0
    0.9497   51.3314   22.8156 C   0  0  0  0  0  0
    0.6990   50.2152   22.0173 C   0  0  0  0  0  0
    2.4366   53.5426   23.6378 S   0  0  0  0  0  0
    3.8636   53.8126   23.4129 O   0  0  0  0  0  0
    1.5048   54.4966   23.0402 O   0  0  0  0  0  0
    1.9604   52.9008   25.2097 N   0  0  0  0  0  0
    2.5083   53.3587   26.2613 C   0  0  0  0  0  0
    3.5312   54.4969   26.4387 C   0  0  0  0  0  0
    4.8940   54.0907   27.0359 C   0  0  0  0  0  0
    4.9103   53.9829   28.5678 C   0  0  0  0  0  0
    3.9675   52.9282   29.1813 C   0  0  0  0  0  0
    2.4719   53.0792   28.8375 C   0  0  0  0  0  0
    2.1353   52.7648   27.4527 N   0  0  0  0  0  0
   -0.0129   42.9065   19.3133 C   0  0  0  0  0  0
   -0.4950   42.8968   20.4719 O   0  0  0  0  0  0
    1.6523   49.1851   15.3904 H   0  0  0  0  0  0
    2.4791   47.6428   15.5430 H   0  0  0  0  0  0
    0.8399   47.7190   14.8507 H   0  0  0  0  0  0
    1.3641   45.5647   15.7411 H   0  0  0  0  0  0
    0.9423   43.4126   16.7775 H   0  0  0  0  0  0
   -0.5109   45.3817   20.2969 H   0  0  0  0  0  0
    2.1494   48.5510   19.5251 H   0  0  0  0  0  0
    3.4989   50.2986   20.0940 H   0  0  0  0  0  0
    3.9481   52.2470   21.4956 H   0  0  0  0  0  0
    0.2266   51.6236   23.5651 H   0  0  0  0  0  0
   -0.2125   49.6632   22.1780 H   0  0  0  0  0  0
    3.7195   54.9975   25.4942 H   0  0  0  0  0  0
    3.0972   55.2960   27.0380 H   0  0  0  0  0  0
    5.2322   53.1497   26.5979 H   0  0  0  0  0  0
    5.6413   54.8291   26.7359 H   0  0  0  0  0  0
    4.6787   54.9597   28.9967 H   0  0  0  0  0  0
    5.9326   53.7658   28.8817 H   0  0  0  0  0  0
    4.0777   52.9624   30.2652 H   0  0  0  0  0  0
    4.3045   51.9319   28.8904 H   0  0  0  0  0  0
    2.1752   54.1160   29.0006 H   0  0  0  0  0  0
    1.8605   52.4875   29.5203 H   0  0  0  0  0  0
    1.4265   52.0549   27.3496 H   0  0  0  0  0  0
    0.3095   41.8669   18.6962 O   0  5  0  0  0  0
  1  2  1  0  0  0
  1 32  1  0  0  0
  1 33  1  0  0  0
  1 34  1  0  0  0
  2  3  1  0  0  0
  3  8  2  0  0  0
  3  4  1  0  0  0
  4  5  2  0  0  0
  4 35  1  0  0  0
  5  6  1  0  0  0
  5 36  1  0  0  0
  6  7  2  0  0  0
  6 30  1  0  0  0
  7  8  1  0  0  0
  7 37  1  0  0  0
  8  9  1  0  0  0
  9 10  2  0  0  0
  9 11  2  0  0  0
  9 12  1  0  0  0
 12 13  1  0  0  0
 12 38  1  0  0  0
 13 18  2  0  0  0
 13 14  1  0  0  0
 14 15  2  0  0  0
 14 39  1  0  0  0
 15 16  1  0  0  0
 15 40  1  0  0  0
 16 17  2  0  0  0
 16 19  1  0  0  0
 17 18  1  0  0  0
 17 41  1  0  0  0
 18 42  1  0  0  0
 19 20  2  0  0  0
 19 21  2  0  0  0
 19 22  1  0  0  0
 22 23  2  0  0  0
 23 29  1  0  0  0
 23 24  1  0  0  0
 24 25  1  0  0  0
 24 43  1  0  0  0
 24 44  1  0  0  0
 25 26  1  0  0  0
 25 45  1  0  0  0
 25 46  1  0  0  0
 26 27  1  0  0  0
 26 47  1  0  0  0
 26 48  1  0  0  0
 27 28  1  0  0  0
 27 49  1  0  0  0
 27 50  1  0  0  0
 28 29  1  0  0  0
 28 51  1  0  0  0
 28 52  1  0  0  0
 29 53  1  0  0  0
 30 31  2  0  0  0
 30 54  1  0  0  0
M  CHG  1  54  -1
M  END
> <i_i_glide_confnum>
115

> <i_i_glide_lignum>
1995

> <i_i_glide_posenum>
361

> <i_i_glide_rotatable_bonds>
7

> <i_m_Source_File_Index>
2931

> <b_m_subgroup_collapsed>
0

> <r_i_docking_score>
-1.6641

> <r_i_glide_ecoul>
-7.62268

> <r_i_glide_eff_state_penalty>
0

> <r_i_glide_einternal>
13.3363

> <r_i_glide_emodel>
-33.9826

> <r_i_glide_energy>
-44.208

> <r_i_glide_erotb>
0.439117

> <r_i_glide_esite>
-0.0879565

> <r_i_glide_evdw>
-36.5853

> <r_i_glide_gscore>
-1.6641

> <r_i_glide_hbond>
-0.4

> <r_i_glide_ligand_efficiency>
-0.0520033

> <r_i_glide_ligand_efficiency_ln>
-0.372638

> <r_i_glide_ligand_efficiency_sa>
-0.1651

> <r_i_glide_lipo>
-1.4792

> <r_i_glide_metal>
0

> <r_i_glide_rewards>
2.8366

> <s_i_glide_gridfile>
wee1_glide-grid

> <s_m_Source_File>
wee1_decoys_glide_SP.sdf

> <s_m_Source_Path>
/Users/zhangxujun/Desktop

> <s_m_entry_id>
3206

> <s_m_entry_name>
wee1_decoys_glide_SP.2931

> <s_m_subgroup_title>
wee1_decoys_glide_SP

> <s_m_subgroupid>
wee1_decoys_glide_SP


$$$$
