ZINC02319341_6100
                    3D
 Schrodinger Suite 2024-2.
 55 58  0  0  1  0            999 V2000
    3.9251   54.4511   25.7746 C   0  0  0  0  0  0
    3.7742   54.4835   27.1562 C   0  0  0  0  0  0
    4.9027   54.4952   27.9708 C   0  0  0  0  0  0
    6.1814   54.4866   27.4157 C   0  0  0  0  0  0
    6.3299   54.4564   26.0308 C   0  0  0  0  0  0
    5.2014   54.4229   25.2082 C   0  0  0  0  0  0
    5.3570   54.3368   23.7317 C   0  0  0  0  0  0
    6.3506   54.7312   22.8502 C   0  0  0  0  0  0
    5.9030   54.3966   21.5733 C   0  0  0  0  0  0
    4.6777   53.7582   21.7091 C   0  0  0  0  0  0
    4.3495   53.7467   23.0296 O   0  0  0  0  0  0
    3.7751   53.1855   20.7194 C   0  0  0  0  0  0
    2.6043   52.5062   20.8718 C   0  0  0  0  0  0
    1.8397   52.0957   19.6858 C   0  0  0  0  0  0
    0.6068   52.0271   19.6987 O   0  0  0  0  0  0
    2.5521   51.8405   18.5689 N   0  0  0  0  0  0
    1.9963   51.5500   17.2451 C   0  0  0  0  0  0
    1.7567   52.7890   16.3448 C   0  0  1  0  0  0
    1.4264   52.4208   15.3712 H   0  0  0  0  0  0
    0.7862   53.8562   16.8552 C   0  0  0  0  0  0
    1.2216   55.1189   16.1461 C   0  0  0  0  0  0
    2.6849   54.8583   15.7752 C   0  0  0  0  0  0
    2.9679   53.5284   16.2100 O   0  0  0  0  0  0
    2.0829   52.2789   22.1253 N   0  0  0  0  0  0
    1.5728   51.1270   22.6315 C   0  0  0  0  0  0
    1.4821   50.0773   21.9896 O   0  0  0  0  0  0
    1.1042   51.1830   24.0748 C   0  0  0  0  0  0
    0.7044   50.0044   24.7281 C   0  0  0  0  0  0
    0.3005   50.0324   26.0632 C   0  0  0  0  0  0
    0.3060   51.2383   26.7608 C   0  0  0  0  0  0
    0.6947   52.4126   26.1284 C   0  0  0  0  0  0
    1.0695   52.3927   24.7894 C   0  0  0  0  0  0
   -0.1574   51.2967   28.4221 Cl  0  0  0  0  0  0
    4.7038   54.5264   29.6815 Cl  0  0  0  0  0  0
    3.0502   54.4511   25.1453 H   0  0  0  0  0  0
    2.7871   54.4991   27.5940 H   0  0  0  0  0  0
    7.0497   54.4969   28.0593 H   0  0  0  0  0  0
    7.3180   54.4335   25.5962 H   0  0  0  0  0  0
    7.2801   55.2231   23.1007 H   0  0  0  0  0  0
    6.4232   54.5804   20.6444 H   0  0  0  0  0  0
    4.1491   53.3782   19.7227 H   0  0  0  0  0  0
    3.5596   51.7673   18.6344 H   0  0  0  0  0  0
    2.7041   50.8968   16.7363 H   0  0  0  0  0  0
    1.0775   50.9668   17.3271 H   0  0  0  0  0  0
   -0.2561   53.5742   16.7063 H   0  0  0  0  0  0
    0.8830   53.9855   17.9317 H   0  0  0  0  0  0
    0.6246   55.2799   15.2471 H   0  0  0  0  0  0
    1.1083   55.9985   16.7824 H   0  0  0  0  0  0
    2.8334   54.9337   14.6969 H   0  0  0  0  0  0
    3.3596   55.5595   16.2668 H   0  0  0  0  0  0
    2.3802   52.9458   22.8194 H   0  0  0  0  0  0
    0.7183   49.0528   24.2138 H   0  0  0  0  0  0
   -0.0040   49.1192   26.5578 H   0  0  0  0  0  0
    0.7045   53.3368   26.6827 H   0  0  0  0  0  0
    1.3351   53.3310   24.3272 H   0  0  0  0  0  0
  1  6  2  0  0  0
  1  2  1  0  0  0
  1 35  1  0  0  0
  2  3  2  0  0  0
  2 36  1  0  0  0
  3  4  1  0  0  0
  3 34  1  0  0  0
  4  5  2  0  0  0
  4 37  1  0  0  0
  5  6  1  0  0  0
  5 38  1  0  0  0
  6  7  1  0  0  0
  7 11  1  0  0  0
  7  8  2  0  0  0
  8  9  1  0  0  0
  8 39  1  0  0  0
  9 10  2  0  0  0
  9 40  1  0  0  0
 10 11  1  0  0  0
 10 12  1  0  0  0
 12 13  2  0  0  0
 12 41  1  0  0  0
 13 14  1  0  0  0
 13 24  1  0  0  0
 14 15  2  0  0  0
 14 16  1  0  0  0
 16 17  1  0  0  0
 16 42  1  0  0  0
 17 18  1  0  0  0
 17 43  1  0  0  0
 17 44  1  0  0  0
 18 19  1  0  0  0
 18 23  1  0  0  0
 18 20  1  0  0  0
 20 21  1  0  0  0
 20 45  1  0  0  0
 20 46  1  0  0  0
 21 22  1  0  0  0
 21 47  1  0  0  0
 21 48  1  0  0  0
 22 23  1  0  0  0
 22 49  1  0  0  0
 22 50  1  0  0  0
 24 25  1  0  0  0
 24 51  1  0  0  0
 25 26  2  0  0  0
 25 27  1  0  0  0
 27 32  2  0  0  0
 27 28  1  0  0  0
 28 29  2  0  0  0
 28 52  1  0  0  0
 29 30  1  0  0  0
 29 53  1  0  0  0
 30 31  2  0  0  0
 30 33  1  0  0  0
 31 32  1  0  0  0
 31 54  1  0  0  0
 32 55  1  0  0  0
M  END
> <i_i_glide_confnum>
161

> <i_i_glide_lignum>
6101

> <i_i_glide_posenum>
137

> <i_i_glide_rotatable_bonds>
9

> <i_m_Source_File_Index>
1616

> <b_m_subgroup_collapsed>
0

> <r_i_docking_score>
-5.29042

> <r_i_glide_ecoul>
-3.23758

> <r_i_glide_eff_state_penalty>
0

> <r_i_glide_einternal>
4.75774

> <r_i_glide_emodel>
-58.3816

> <r_i_glide_energy>
-44.8126

> <r_i_glide_erotb>
0.603642

> <r_i_glide_esite>
-0.081377

> <r_i_glide_evdw>
-41.575

> <r_i_glide_gscore>
-5.29042

> <r_i_glide_hbond>
-0.0262883

> <r_i_glide_ligand_efficiency>
-0.160316

> <r_i_glide_ligand_efficiency_ln>
-1.17656

> <r_i_glide_ligand_efficiency_sa>
-0.514218

> <r_i_glide_lipo>
-2.82671

> <r_i_glide_metal>
0

> <r_i_glide_rewards>
-0.395302

> <s_i_glide_gridfile>
wee1_glide-grid

> <s_m_Source_File>
wee1_decoys_glide_SP.sdf

> <s_m_Source_Path>
/Users/zhangxujun/Desktop

> <s_m_entry_id>
1891

> <s_m_entry_name>
wee1_decoys_glide_SP.1616

> <s_m_subgroup_title>
wee1_decoys_glide_SP

> <s_m_subgroupid>
wee1_decoys_glide_SP


$$$$
