@<TRIPOS>MOLECULE
ZINC04173456_2303
58   62    1
SMALL
USER_CHARGES


@<TRIPOS>ATOM
      1 C1          5.5767   54.7449   28.9572 C.3       1 UNK         0.0000 
      2 N2          4.4179   54.2693   28.2196 N.pl3     1 UNK         0.0000 
      3 C3          4.2508   54.1372   26.8550 C.ar      1 UNK         0.0000 
      4 C4          2.9307   53.6944   26.7485 C.ar      1 UNK         0.0000 
      5 C5          2.4401   53.5214   28.0498 C.ar      1 UNK         0.0000 
      6 N6          3.3473   53.8817   28.9288 N.2       1 UNK         0.0000 
      7 C7          1.0771   53.0332   28.5100 C.3       1 UNK         0.0000 
      8 F8          0.3529   54.0372   29.0060 F         1 UNK         0.0000 
      9 F9          0.3870   52.4976   27.5015 F         1 UNK         0.0000 
     10 F10         1.1900   52.1015   29.4595 F         1 UNK         0.0000 
     11 C11         5.2066   54.5032   25.8268 C.2       1 UNK         0.0000 
     12 O12         6.2254   55.1443   26.0879 O.2       1 UNK         0.0000 
     13 N13         4.8357   54.0968   24.5937 N.am      1 UNK         0.0000 
     14 C14         5.4208   54.3631   23.3435 C.ar      1 UNK         0.0000 
     15 C15         6.6557   55.0038   23.1612 C.ar      1 UNK         0.0000 
     16 C16         7.1023   55.2971   21.8793 C.ar      1 UNK         0.0000 
     17 C17         6.3393   54.9300   20.7683 C.ar      1 UNK         0.0000 
     18 C18         5.1336   54.2492   20.9430 C.ar      1 UNK         0.0000 
     19 C19         4.6761   53.9729   22.2277 C.ar      1 UNK         0.0000 
     20 S20         6.9598   55.2961   19.1233 S.o2      1 UNK         0.0000 
     21 O21         8.2368   55.9948   19.3012 O.2       1 UNK         0.0000 
     22 O22         6.8895   54.0463   18.3618 O.2       1 UNK         0.0000 
     23 N23         5.8412   56.4782   18.4323 N.pl3     1 UNK         0.0000 
     24 C24         4.8765   56.1799   17.3380 C.3       1 UNK         0.0000 
     25 C25         5.6432   55.8838   16.0182 C.3       1 UNK         0.0000 
     26 C26         4.6141   55.6627   14.8756 C.3       1 UNK         0.0000 
     27 C27         3.6844   54.4722   15.2428 C.3       1 UNK         0.0000 
     28 C28         2.9140   54.7832   16.5572 C.3       1 UNK         0.0000 
     29 C29         3.9328   55.0006   17.7061 C.3       1 UNK         0.0000 
     30 C30         2.0661   56.0692   16.3671 C.3       1 UNK         0.0000 
     31 C31         2.9974   57.2592   16.0130 C.3       1 UNK         0.0000 
     32 C32         3.7581   56.9464   14.6969 C.3       1 UNK         0.0000 
     33 C33         4.0256   57.4644   17.1552 C.3       1 UNK         0.0000 
     34 H34         5.9042   55.6955   28.5379 H         1 UNK         0.0000 
     35 H35         6.3847   54.0181   28.8707 H         1 UNK         0.0000 
     36 H36         5.3391   54.8973   30.0100 H         1 UNK         0.0000 
     37 H37         2.3797   53.4967   25.8407 H         1 UNK         0.0000 
     38 H38         3.9845   53.5629   24.5529 H         1 UNK         0.0000 
     39 H39         7.2806   55.3025   23.9869 H         1 UNK         0.0000 
     40 H40         8.0530   55.7986   21.7632 H         1 UNK         0.0000 
     41 H41         4.5538   53.9224   20.0950 H         1 UNK         0.0000 
     42 H42         3.7296   53.4648   22.3421 H         1 UNK         0.0000 
     43 H43         6.2360   57.4199   18.3805 H         1 UNK         0.0000 
     44 H44         6.3125   56.7093   15.7675 H         1 UNK         0.0000 
     45 H45         6.2736   55.0003   16.1167 H         1 UNK         0.0000 
     46 H46         5.1411   55.4437   13.9454 H         1 UNK         0.0000 
     47 H47         4.2713   53.5590   15.3583 H         1 UNK         0.0000 
     48 H48         2.9819   54.2778   14.4314 H         1 UNK         0.0000 
     49 H49         2.2602   53.9454   16.8052 H         1 UNK         0.0000 
     50 H50         4.4868   54.0746   17.8547 H         1 UNK         0.0000 
     51 H51         3.4054   55.2088   18.6369 H         1 UNK         0.0000 
     52 H52         1.3266   55.9194   15.5792 H         1 UNK         0.0000 
     53 H53         1.4988   56.2844   17.2734 H         1 UNK         0.0000 
     54 H54         2.4037   58.1662   15.8904 H         1 UNK         0.0000 
     55 H55         4.3925   57.7897   14.4175 H         1 UNK         0.0000 
     56 H56         3.0506   56.8167   13.8766 H         1 UNK         0.0000 
     57 H57         3.5056   57.6960   18.0806 H         1 UNK         0.0000 
     58 H58         4.6567   58.3283   16.9348 H         1 UNK         0.0000 
@<TRIPOS>BOND
     1    1    2 1    
     2    1   34 1    
     3    1   35 1    
     4    1   36 1    
     5    2    6 ar   
     6    2    3 ar   
     7    3    4 ar   
     8    3   11 1    
     9    4    5 ar   
    10    4   37 1    
    11    5    6 ar   
    12    5    7 1    
    13    7    8 1    
    14    7    9 1    
    15    7   10 1    
    16   11   12 2    
    17   11   13 am   BACKBONE|DICT|INTERRES
    18   13   14 1    
    19   13   38 1    
    20   14   19 ar   
    21   14   15 ar   
    22   15   16 ar   
    23   15   39 1    
    24   16   17 ar   
    25   16   40 1    
    26   17   18 ar   
    27   17   20 1    
    28   18   19 ar   
    29   18   41 1    
    30   19   42 1    
    31   20   21 2    
    32   20   22 2    
    33   20   23 1    
    34   23   24 1    
    35   23   43 1    
    36   24   29 1    
    37   24   33 1    
    38   24   25 1    
    39   25   26 1    
    40   25   44 1    
    41   25   45 1    
    42   26   32 1    
    43   26   27 1    
    44   26   46 1    
    45   27   28 1    
    46   27   47 1    
    47   27   48 1    
    48   28   29 1    
    49   28   30 1    
    50   28   49 1    
    51   29   50 1    
    52   29   51 1    
    53   30   31 1    
    54   30   52 1    
    55   30   53 1    
    56   31   32 1    
    57   31   33 1    
    58   31   54 1    
    59   32   55 1    
    60   32   56 1    
    61   33   57 1    
    62   33   58 1    
@<TRIPOS>SUBSTRUCTURE
     1 UNK         1 GROUP             0       ****    0 ROOT    
