@<TRIPOS>MOLECULE
ZINC04151687_459
67   70    1
SMALL
USER_CHARGES


@<TRIPOS>ATOM
      1 C1          1.5957   54.4756   23.4497 C.3       1 UNK         0.0000 
      2 O2          2.5325   53.5101   23.9101 O.3       1 UNK         0.0000 
      3 C3          3.8415   53.9250   23.8658 C.ar      1 UNK         0.0000 
      4 C4          4.4568   54.1311   25.1012 C.ar      1 UNK         0.0000 
      5 C5          5.7808   54.5603   25.1680 C.ar      1 UNK         0.0000 
      6 C6          6.4924   54.7677   23.9929 C.ar      1 UNK         0.0000 
      7 C7          5.9143   54.4963   22.7558 C.ar      1 UNK         0.0000 
      8 C8          4.5902   54.0482   22.6650 C.ar      1 UNK         0.0000 
      9 C9          4.0496   53.6618   21.3014 C.2       1 UNK         0.0000 
     10 O10         4.6062   54.0098   20.2600 O.2       1 UNK         0.0000 
     11 N11         2.9790   52.8610   21.3293 N.am      1 UNK         0.0000 
     12 C12         2.3167   52.1551   20.2386 C.3       1 UNK         0.0000 
     13 H13         2.4479   52.7331   19.3212 H         1 UNK         0.0000 
     14 C14         0.8128   52.0957   20.5237 C.2       1 UNK         0.0000 
     15 C15         0.0333   51.0015   20.3550 C.2       1 UNK         0.0000 
     16 C16         0.5735   49.6786   19.7898 C.3       1 UNK         0.0000 
     17 C17         1.9823   49.8334   19.1572 C.3       1 UNK         0.0000 
     18 H18         2.4317   48.8416   19.0728 H         1 UNK         0.0000 
     19 C19         2.8933   50.7286   20.0354 C.3       1 UNK         0.0000 
     20 H20         3.8937   50.8203   19.6130 H         1 UNK         0.0000 
     21 O21         3.1036   50.0961   21.2861 O.3       1 UNK         0.0000 
     22 O22         1.9044   50.2885   17.8161 O.3       1 UNK         0.0000 
     23 C23        -1.3683   50.9724   20.7426 C.2       1 UNK         0.0000 
     24 O24        -2.2158   50.8267   19.8585 O.2       1 UNK         0.0000 
     25 N25        -1.7025   50.9974   22.0735 N.am      1 UNK         0.0000 
     26 C26        -3.0757   50.5689   22.4531 C.3       1 UNK         0.0000 
     27 C27        -3.6421   51.2860   23.6805 C.ar      1 UNK         0.0000 
     28 C28        -4.9512   51.0226   24.1009 C.ar      1 UNK         0.0000 
     29 C29        -5.4760   51.6220   25.2432 C.ar      1 UNK         0.0000 
     30 C30        -4.6878   52.4898   25.9908 C.ar      1 UNK         0.0000 
     31 C31        -3.3836   52.7624   25.5847 C.ar      1 UNK         0.0000 
     32 C32        -2.8547   52.1801   24.4275 C.ar      1 UNK         0.0000 
     33 C33        -1.4462   52.5093   23.9523 C.3       1 UNK         0.0000 
     34 C34        -0.7680   51.3332   23.1907 C.3       1 UNK         0.0000 
     35 H35         0.1952   51.6752   22.8272 H         1 UNK         0.0000 
     36 C36        -0.3768   50.1703   24.1396 C.2       1 UNK         0.0000 
     37 O37         0.1832   50.4103   25.2125 O.2       1 UNK         0.0000 
     38 O38        -0.6682   48.9347   23.6777 O.3       1 UNK         0.0000 
     39 C39        -0.3694   47.7961   24.4735 C.3       1 UNK         0.0000 
     40 S40         6.5918   54.8519   26.7123 S.3       1 UNK         0.0000 
     41 C41         5.5005   54.3282   28.0637 C.3       1 UNK         0.0000 
     42 H42         0.6205   54.0182   23.3587 H         1 UNK         0.0000 
     43 H43         1.5123   55.2967   24.1434 H         1 UNK         0.0000 
     44 H44         1.8428   54.8965   22.4816 H         1 UNK         0.0000 
     45 H45         3.8825   53.9732   26.0002 H         1 UNK         0.0000 
     46 H46         7.5045   55.1222   24.0384 H         1 UNK         0.0000 
     47 H47         6.5177   54.6248   21.8662 H         1 UNK         0.0000 
     48 H48         2.6207   52.6565   22.2517 H         1 UNK         0.0000 
     49 H49         0.3574   52.9876   20.9298 H         1 UNK         0.0000 
     50 H50         0.6453   48.9701   20.6173 H         1 UNK         0.0000 
     51 H51        -0.1164   49.2332   19.0701 H         1 UNK         0.0000 
     52 H52         3.4876   49.2263   21.1341 H         1 UNK         0.0000 
     53 H53         2.7526   50.0816   17.3826 H         1 UNK         0.0000 
     54 H54        -3.7866   50.6832   21.6329 H         1 UNK         0.0000 
     55 H55        -3.0484   49.5015   22.6718 H         1 UNK         0.0000 
     56 H56        -5.5698   50.3386   23.5390 H         1 UNK         0.0000 
     57 H57        -6.4874   51.4059   25.5523 H         1 UNK         0.0000 
     58 H58        -5.0867   52.9480   26.8827 H         1 UNK         0.0000 
     59 H59        -2.7825   53.4383   26.1731 H         1 UNK         0.0000 
     60 H60        -0.8316   52.8416   24.7912 H         1 UNK         0.0000 
     61 H61        -1.5358   53.3615   23.2830 H         1 UNK         0.0000 
     62 H62        -0.6853   46.8961   23.9490 H         1 UNK         0.0000 
     63 H63         0.7036   47.7227   24.6660 H         1 UNK         0.0000 
     64 H64        -0.8888   47.8362   25.4338 H         1 UNK         0.0000 
     65 H65         5.9944   54.4970   29.0208 H         1 UNK         0.0000 
     66 H66         5.2694   53.2654   27.9765 H         1 UNK         0.0000 
     67 H67         4.5733   54.9000   28.0584 H         1 UNK         0.0000 
@<TRIPOS>BOND
     1    1    2 1    
     2    1   42 1    
     3    1   43 1    
     4    1   44 1    
     5    2    3 1    
     6    3    8 ar   
     7    3    4 ar   
     8    4    5 ar   
     9    4   45 1    
    10    5    6 ar   
    11    5   40 1    
    12    6    7 ar   
    13    6   46 1    
    14    7    8 ar   
    15    7   47 1    
    16    8    9 1    
    17    9   10 2    
    18    9   11 am   BACKBONE|DICT|INTERRES
    19   11   12 1    
    20   11   48 1    
    21   12   13 1    
    22   12   19 1    
    23   12   14 1    
    24   14   15 2    
    25   14   49 1    
    26   15   16 1    
    27   15   23 1    
    28   16   17 1    
    29   16   50 1    
    30   16   51 1    
    31   17   18 1    
    32   17   19 1    
    33   17   22 1    
    34   19   20 1    
    35   19   21 1    
    36   21   52 1    
    37   22   53 1    
    38   23   24 2    
    39   23   25 am   BACKBONE|DICT|INTERRES
    40   25   34 1    
    41   25   26 1    
    42   26   27 1    
    43   26   54 1    
    44   26   55 1    
    45   27   32 ar   
    46   27   28 ar   
    47   28   29 ar   
    48   28   56 1    
    49   29   30 ar   
    50   29   57 1    
    51   30   31 ar   
    52   30   58 1    
    53   31   32 ar   
    54   31   59 1    
    55   32   33 1    
    56   33   34 1    
    57   33   60 1    
    58   33   61 1    
    59   34   35 1    
    60   34   36 1    
    61   36   37 2    
    62   36   38 1    
    63   38   39 1    
    64   39   62 1    
    65   39   63 1    
    66   39   64 1    
    67   40   41 1    
    68   41   65 1    
    69   41   66 1    
    70   41   67 1    
@<TRIPOS>SUBSTRUCTURE
     1 UNK         1 GROUP             0       ****    0 ROOT    
