@<TRIPOS>MOLECULE
ZINC09846786_4974
61   65    1
SMALL
USER_CHARGES


@<TRIPOS>ATOM
      1 C1          5.5063   54.8963   20.7903 C.2       1 UNK         0.0000 
      2 C2          4.5538   54.4595   21.7153 C.2       1 UNK         0.0000 
      3 C3          5.0138   54.4434   23.0337 C.2       1 UNK         0.0000 
      4 S4          6.7041   54.8967   23.0829 S.3       1 UNK         0.0000 
      5 C5          6.7144   55.2237   21.3821 C.2       1 UNK         0.0000 
      6 C6          4.1790   54.1176   24.1963 C.2       1 UNK         0.0000 
      7 C7          4.4299   54.1338   25.5321 C.2       1 UNK         0.0000 
      8 C8          5.8143   54.4945   26.1184 C.3       1 UNK         0.0000 
      9 C9          5.9434   54.5246   27.6577 C.3       1 UNK         0.0000 
     10 C10         5.0015   53.5403   28.3528 C.3       1 UNK         0.0000 
     11 C11         3.5489   53.8364   27.9420 C.3       1 UNK         0.0000 
     12 H12         3.2900   54.8616   28.2158 H         1 UNK         0.0000 
     13 C13         3.3719   53.6943   26.4464 C.2       1 UNK         0.0000 
     14 N14         2.2422   53.1590   26.1635 N.2       1 UNK         0.0000 
     15 N15         1.6649   52.6365   27.2857 N.am      1 UNK         0.0000 
     16 C16         2.5138   52.8505   28.4653 C.3       1 UNK         0.0000 
     17 H17         3.0043   51.8961   28.6746 H         1 UNK         0.0000 
     18 C18         1.7910   53.2487   29.7478 C.2       1 UNK         0.0000 
     19 C19         1.5473   52.4430   30.8561 C.2       1 UNK         0.0000 
     20 C20         0.7044   52.9926   31.8075 C.2       1 UNK         0.0000 
     21 C21         0.3044   54.2648   31.4742 C.2       1 UNK         0.0000 
     22 S22         1.0479   54.8048   29.9990 S.3       1 UNK         0.0000 
     23 C23         0.5957   51.7881   27.2585 C.2       1 UNK         0.0000 
     24 O24         0.1331   51.2967   28.2884 O.2       1 UNK         0.0000 
     25 C25        -0.0534   51.4111   25.9089 C.3       1 UNK         0.0000 
     26 C26        -0.5863   49.0380   25.1032 C.3       1 UNK         0.0000 
     27 C27        -1.4972   47.8140   25.3107 C.3       1 UNK         0.0000 
     28 C28        -2.9890   48.2066   25.1441 C.3       1 UNK         0.0000 
     29 C29        -3.3893   49.3293   26.1403 C.3       1 UNK         0.0000 
     30 C30        -2.4831   50.5672   25.9520 C.3       1 UNK         0.0000 
     31 C31        -3.9079   46.9626   25.2856 C.2       1 UNK         0.0000 
     32 O32        -3.4591   45.8167   25.2817 O.2       1 UNK         0.0000 
     33 N33        -5.2239   47.1583   25.3708 N.am      1 UNK         0.0000 
     34 H34         5.3129   54.9841   19.7302 H         1 UNK         0.0000 
     35 H35         3.5470   54.1958   21.4274 H         1 UNK         0.0000 
     36 H36         7.6169   55.5801   20.9052 H         1 UNK         0.0000 
     37 H37         3.1908   53.8239   23.8672 H         1 UNK         0.0000 
     38 H38         6.5077   53.7370   25.7517 H         1 UNK         0.0000 
     39 H39         6.1714   55.4480   25.7280 H         1 UNK         0.0000 
     40 H40         6.9746   54.3215   27.9535 H         1 UNK         0.0000 
     41 H41         5.7370   55.5304   28.0203 H         1 UNK         0.0000 
     42 H42         5.1001   53.6304   29.4330 H         1 UNK         0.0000 
     43 H43         5.2820   52.5133   28.1003 H         1 UNK         0.0000 
     44 H44         1.9063   51.4339   30.9455 H         1 UNK         0.0000 
     45 H45         0.3752   52.4862   32.7054 H         1 UNK         0.0000 
     46 H46        -0.3279   54.8920   32.0733 H         1 UNK         0.0000 
     47 H47         0.7200   51.1562   25.1814 H         1 UNK         0.0000 
     48 H48        -0.6497   52.2406   25.5268 H         1 UNK         0.0000 
     49 H49        -0.6383   49.4379   24.0885 H         1 UNK         0.0000 
     50 H50         0.4440   48.7684   25.3494 H         1 UNK         0.0000 
     51 H51        -1.2961   47.4354   26.3155 H         1 UNK         0.0000 
     52 H52        -1.1909   47.0860   24.5577 H         1 UNK         0.0000 
     53 H53        -3.1694   48.5357   24.1194 H         1 UNK         0.0000 
     54 H54        -4.4011   49.6900   25.9515 H         1 UNK         0.0000 
     55 H55        -3.2944   49.0042   27.1813 H         1 UNK         0.0000 
     56 H56        -2.6137   51.0358   24.9749 H         1 UNK         0.0000 
     57 H57        -2.6682   51.2915   26.7468 H         1 UNK         0.0000 
     58 H58        -5.6129   48.0883   25.3765 H         1 UNK         0.0000 
     59 H59        -5.8340   46.3607   25.4651 H         1 UNK         0.0000 
     60 N60        -0.9895   50.1672   26.0814 N.4       1 UNK         0.0000 
     61 H61        -0.8721   49.7946   27.0256 H         1 UNK         0.0000 
@<TRIPOS>BOND
     1    1    5 2    
     2    1    2 1    
     3    1   34 1    
     4    2    3 2    
     5    2   35 1    
     6    3    4 1    
     7    3    6 1    
     8    4    5 1    
     9    5   36 1    
    10    6    7 2    
    11    6   37 1    
    12    7   13 1    
    13    7    8 1    
    14    8    9 1    
    15    8   38 1    
    16    8   39 1    
    17    9   10 1    
    18    9   40 1    
    19    9   41 1    
    20   10   11 1    
    21   10   42 1    
    22   10   43 1    
    23   11   12 1    
    24   11   16 1    
    25   11   13 1    
    26   13   14 2    
    27   14   15 1    
    28   15   16 1    
    29   15   23 am   BACKBONE|DICT|INTERRES
    30   16   17 1    
    31   16   18 1    
    32   18   22 1    
    33   18   19 2    
    34   19   20 1    
    35   19   44 1    
    36   20   21 2    
    37   20   45 1    
    38   21   22 1    
    39   21   46 1    
    40   23   24 2    
    41   23   25 1    
    42   25   47 1    
    43   25   48 1    
    44   25   60 1    
    45   26   27 1    
    46   26   49 1    
    47   26   50 1    
    48   26   60 1    
    49   27   28 1    
    50   27   51 1    
    51   27   52 1    
    52   28   29 1    
    53   28   31 1    
    54   28   53 1    
    55   29   30 1    
    56   29   54 1    
    57   29   55 1    
    58   30   56 1    
    59   30   57 1    
    60   30   60 1    
    61   31   32 2    
    62   31   33 am   BACKBONE|DICT|INTERRES
    63   33   58 1    
    64   33   59 1    
    65   60   61 1    
@<TRIPOS>SUBSTRUCTURE
     1 UNK         1 GROUP             0       ****    0 ROOT    
