ZINC14740636_4830
                    3D
 Schrodinger Suite 2024-2.
 71 75  0  0  1  0            999 V2000
    1.6190   60.2171   15.4046 C   0  0  0  0  0  0
    2.8299   59.4682   14.8234 C   0  0  0  0  0  0
    3.5441   58.5438   15.8273 C   0  0  0  0  0  0
    2.7100   57.3235   16.2817 C   0  0  0  0  0  0
    3.5066   56.3086   17.0847 C   0  0  0  0  0  0
    4.7413   56.4808   17.6681 N   0  0  0  0  0  0
    5.2862   57.3323   17.6153 H   0  0  0  0  0  0
    5.1266   55.3048   18.2932 C   0  0  0  0  0  0
    4.1031   54.3709   18.1316 C   0  0  0  0  0  0
    3.1286   55.0154   17.3784 N   0  3  0  0  0  0
    3.9703   52.9202   18.5690 C   0  0  0  0  0  0
    3.0758   52.8368   19.8333 N   0  3  2  0  0  0
    3.7855   53.4052   21.0752 C   0  0  0  0  0  0
    2.7349   53.5155   22.1917 C   0  0  0  0  0  0
    1.8700   52.2552   22.3802 C   0  0  0  0  0  0
    1.8672   51.2746   21.4323 C   0  0  0  0  0  0
    1.0170   50.1202   21.7057 C   0  0  0  0  0  0
    0.2788   50.0185   22.8393 C   0  0  0  0  0  0
    0.2067   51.1508   23.7744 C   0  0  0  0  0  0
   -0.6104   51.1531   24.7014 O   0  0  0  0  0  0
    1.0584   52.2113   23.5187 N   0  0  0  0  0  0
    1.0023   53.3109   24.5108 C   0  0  0  0  0  0
    2.0916   53.2045   25.5569 C   0  0  0  0  0  0
    3.0830   54.0991   25.7092 C   0  0  0  0  0  0
    4.1700   54.0124   26.6915 C   0  0  0  0  0  0
    4.0155   53.3005   27.8865 C   0  0  0  0  0  0
    5.0806   53.1842   28.7688 C   0  0  0  0  0  0
    6.3002   53.7785   28.4588 C   0  0  0  0  0  0
    6.4627   54.4933   27.2765 C   0  0  0  0  0  0
    5.3972   54.6101   26.3909 C   0  0  0  0  0  0
   -0.5306   48.7931   23.1306 C   0  0  0  0  0  0
   -1.2871   48.1649   22.1274 C   0  0  0  0  0  0
   -2.0510   47.0379   22.4446 C   0  0  0  0  0  0
   -2.0963   46.4990   23.6907 N   0  0  0  0  0  0
   -1.3544   47.0987   24.6582 C   0  0  0  0  0  0
   -0.5593   48.2208   24.4178 C   0  0  0  0  0  0
    2.6814   51.3664   20.1321 C   0  0  0  0  0  0
    1.2086   60.9185   14.6764 H   0  0  0  0  0  0
    0.8190   59.5308   15.6905 H   0  0  0  0  0  0
    1.9040   60.7944   16.2880 H   0  0  0  0  0  0
    2.5265   58.9070   13.9400 H   0  0  0  0  0  0
    3.5502   60.2096   14.4719 H   0  0  0  0  0  0
    4.4647   58.1971   15.3543 H   0  0  0  0  0  0
    3.8522   59.1352   16.6918 H   0  0  0  0  0  0
    1.8559   57.6736   16.8640 H   0  0  0  0  0  0
    2.2892   56.8384   15.3998 H   0  0  0  0  0  0
    6.0895   55.2298   18.7825 H   0  0  0  0  0  0
    3.5328   52.2704   17.8072 H   0  0  0  0  0  0
    4.9312   52.4951   18.8606 H   0  0  0  0  0  0
    4.6190   52.7420   21.3192 H   0  0  0  0  0  0
    4.1634   54.3976   20.8289 H   0  0  0  0  0  0
    3.2895   53.7143   23.1051 H   0  0  0  0  0  0
    2.0990   54.3941   22.0821 H   0  0  0  0  0  0
    1.0432   49.2889   21.0141 H   0  0  0  0  0  0
    1.0352   54.2780   24.0101 H   0  0  0  0  0  0
    0.0535   53.2995   25.0515 H   0  0  0  0  0  0
    2.0435   52.3319   26.1922 H   0  0  0  0  0  0
    3.1017   54.9685   25.0679 H   0  0  0  0  0  0
    3.0763   52.8294   28.1368 H   0  0  0  0  0  0
    4.9616   52.6189   29.6814 H   0  0  0  0  0  0
    7.1349   53.6960   29.1424 H   0  0  0  0  0  0
    7.4152   54.9475   27.0560 H   0  0  0  0  0  0
    5.5349   55.1566   25.4684 H   0  0  0  0  0  0
   -1.3041   48.5583   21.1219 H   0  0  0  0  0  0
   -2.6487   46.5493   21.6875 H   0  0  0  0  0  0
   -1.3922   46.6717   25.6526 H   0  0  0  0  0  0
    0.0149   48.6433   25.2318 H   0  0  0  0  0  0
    2.1219   51.0093   19.2658 H   0  0  0  0  0  0
    3.6087   50.7951   20.2145 H   0  0  0  0  0  0
    2.2618   54.5953   17.0742 H   0  0  0  0  0  0
    2.2469   53.4019   19.6759 H   0  0  0  0  0  0
  1  2  1  0  0  0
  1 38  1  0  0  0
  1 39  1  0  0  0
  1 40  1  0  0  0
  2  3  1  0  0  0
  2 41  1  0  0  0
  2 42  1  0  0  0
  3  4  1  0  0  0
  3 43  1  0  0  0
  3 44  1  0  0  0
  4  5  1  0  0  0
  4 45  1  0  0  0
  4 46  1  0  0  0
  5 10  2  0  0  0
  5  6  1  0  0  0
  6  7  1  0  0  0
  6  8  1  0  0  0
  8  9  2  0  0  0
  8 47  1  0  0  0
  9 10  1  0  0  0
  9 11  1  0  0  0
 10 70  1  0  0  0
 11 12  1  0  0  0
 11 48  1  0  0  0
 11 49  1  0  0  0
 12 37  1  0  0  0
 12 13  1  0  0  0
 12 71  1  0  0  0
 13 14  1  0  0  0
 13 50  1  0  0  0
 13 51  1  0  0  0
 14 15  1  0  0  0
 14 52  1  0  0  0
 14 53  1  0  0  0
 15 21  1  0  0  0
 15 16  2  0  0  0
 16 17  1  0  0  0
 16 37  1  0  0  0
 17 18  2  0  0  0
 17 54  1  0  0  0
 18 19  1  0  0  0
 18 31  1  0  0  0
 19 20  2  0  0  0
 19 21  1  0  0  0
 21 22  1  0  0  0
 22 23  1  0  0  0
 22 55  1  0  0  0
 22 56  1  0  0  0
 23 24  2  0  0  0
 23 57  1  0  0  0
 24 25  1  0  0  0
 24 58  1  0  0  0
 25 30  2  0  0  0
 25 26  1  0  0  0
 26 27  2  0  0  0
 26 59  1  0  0  0
 27 28  1  0  0  0
 27 60  1  0  0  0
 28 29  2  0  0  0
 28 61  1  0  0  0
 29 30  1  0  0  0
 29 62  1  0  0  0
 30 63  1  0  0  0
 31 36  2  0  0  0
 31 32  1  0  0  0
 32 33  2  0  0  0
 32 64  1  0  0  0
 33 34  1  0  0  0
 33 65  1  0  0  0
 34 35  2  0  0  0
 35 36  1  0  0  0
 35 66  1  0  0  0
 36 67  1  0  0  0
 37 68  1  0  0  0
 37 69  1  0  0  0
M  CHG  2  10   1  12   1
M  END
> <i_i_glide_confnum>
172

> <i_i_glide_lignum>
4831

> <i_i_glide_posenum>
375

> <i_i_glide_rotatable_bonds>
9

> <i_m_Source_File_Index>
4567

> <b_m_subgroup_collapsed>
0

> <r_i_docking_score>
-4.65427

> <r_i_glide_ecoul>
-2.67773

> <r_i_glide_eff_state_penalty>
0

> <r_i_glide_einternal>
1.82363

> <r_i_glide_emodel>
-56.9874

> <r_i_glide_energy>
-41.3616

> <r_i_glide_erotb>
0.612211

> <r_i_glide_esite>
-0.0108059

> <r_i_glide_evdw>
-38.6839

> <r_i_glide_gscore>
-4.65427

> <r_i_glide_hbond>
0

> <r_i_glide_ligand_efficiency>
-0.129285

> <r_i_glide_ligand_efficiency_ln>
-1.01544

> <r_i_glide_ligand_efficiency_sa>
-0.426891

> <r_i_glide_lipo>
-2.42131

> <r_i_glide_metal>
0

> <r_i_glide_rewards>
-0.49851

> <s_i_glide_gridfile>
wee1_glide-grid

> <s_m_Source_File>
wee1_decoys_glide_SP.sdf

> <s_m_Source_Path>
/Users/zhangxujun/Desktop

> <s_m_entry_id>
4842

> <s_m_entry_name>
wee1_decoys_glide_SP.4567

> <s_m_subgroup_title>
wee1_decoys_glide_SP

> <s_m_subgroupid>
wee1_decoys_glide_SP


$$$$
