ZINC12609247_2296
                    3D
 Schrodinger Suite 2024-2.
 60 63  0  0  1  0            999 V2000
    4.7725   52.6960   19.6904 C   0  0  0  0  0  0
    4.9739   54.2033   19.9369 C   0  0  1  0  0  0
    4.0252   54.6979   19.7214 H   0  0  0  0  0  0
    5.3031   54.4784   21.4347 C   0  0  0  0  0  0
    6.4103   54.9140   21.7618 O   0  0  0  0  0  0
    4.3078   54.1802   22.3002 N   0  0  0  0  0  0
    4.3585   54.1551   23.6989 C   0  0  0  0  0  0
    3.2885   53.8939   24.5568 C   0  0  0  0  0  0
    3.6719   53.8041   25.9234 C   0  0  0  0  0  0
    5.0609   53.9462   26.0917 C   0  0  0  0  0  0
    5.8129   54.4345   24.6097 S   0  0  0  0  0  0
    5.8732   53.6921   27.3456 C   0  0  0  0  0  0
    5.5099   54.5984   28.5240 C   0  0  0  0  0  0
    4.1531   54.2801   29.1826 C   0  0  0  0  0  0
    2.8954   54.4803   28.3080 C   0  0  0  0  0  0
    2.7407   53.5256   27.1015 C   0  0  0  0  0  0
    1.9238   53.6986   24.0724 C   0  0  0  0  0  0
    0.8448   53.5470   23.6824 N   0  0  0  0  0  0
    6.0269   54.7530   19.1016 N   0  0  0  0  0  0
    6.0477   56.0017   18.4683 C   0  0  0  0  0  0
    4.8880   56.5477   17.9092 C   0  0  0  0  0  0
    4.9325   57.7900   17.2810 C   0  0  0  0  0  0
    6.1305   58.4978   17.2248 C   0  0  0  0  0  0
    7.3001   57.9651   17.7719 C   0  0  0  0  0  0
    7.2530   56.7065   18.3857 C   0  0  0  0  0  0
    8.8506   58.8805   17.6886 S   0  0  0  0  0  0
    8.7066   60.0945   18.5028 O   0  0  0  0  0  0
    9.9222   57.9254   17.9927 O   0  0  0  0  0  0
    9.0514   59.3767   16.0019 N   0  0  0  0  0  0
    9.0896   58.3458   14.9254 C   0  0  0  0  0  0
    8.2674   59.0203   13.8243 C   0  0  0  0  0  0
    8.5216   60.5030   14.0076 C   0  0  0  0  0  0
    8.4905   60.6694   15.5204 C   0  0  0  0  0  0
    3.9728   52.2761   20.3012 H   0  0  0  0  0  0
    4.5000   52.5081   18.6500 H   0  0  0  0  0  0
    5.6778   52.1184   19.8842 H   0  0  0  0  0  0
    3.4275   53.9003   21.8921 H   0  0  0  0  0  0
    6.9416   53.7733   27.1386 H   0  0  0  0  0  0
    5.7220   52.6606   27.6655 H   0  0  0  0  0  0
    5.5667   55.6376   28.2076 H   0  0  0  0  0  0
    6.2859   54.4949   29.2824 H   0  0  0  0  0  0
    4.0580   54.8950   30.0755 H   0  0  0  0  0  0
    4.1714   53.2526   29.5460 H   0  0  0  0  0  0
    2.8335   55.5161   27.9761 H   0  0  0  0  0  0
    2.0248   54.3410   28.9508 H   0  0  0  0  0  0
    2.8751   52.4976   27.4397 H   0  0  0  0  0  0
    1.7000   53.5766   26.7847 H   0  0  0  0  0  0
    6.9349   54.3443   19.2744 H   0  0  0  0  0  0
    3.9505   56.0124   17.9461 H   0  0  0  0  0  0
    4.0343   58.2174   16.8582 H   0  0  0  0  0  0
    6.1283   59.4720   16.7602 H   0  0  0  0  0  0
    8.1510   56.2863   18.8147 H   0  0  0  0  0  0
   10.0949   58.2243   14.5181 H   0  0  0  0  0  0
    8.5820   57.4165   15.1821 H   0  0  0  0  0  0
    8.5457   58.6685   12.8303 H   0  0  0  0  0  0
    7.2051   58.8011   13.9580 H   0  0  0  0  0  0
    7.7794   61.1284   13.5099 H   0  0  0  0  0  0
    9.5021   60.7778   13.6164 H   0  0  0  0  0  0
    7.4482   60.7618   15.8250 H   0  0  0  0  0  0
    8.9892   61.5382   15.9483 H   0  0  0  0  0  0
  1  2  1  0  0  0
  1 34  1  0  0  0
  1 35  1  0  0  0
  1 36  1  0  0  0
  2  3  1  0  0  0
  2  4  1  0  0  0
  2 19  1  0  0  0
  4  5  2  0  0  0
  4  6  1  0  0  0
  6  7  1  0  0  0
  6 37  1  0  0  0
  7 11  1  0  0  0
  7  8  2  0  0  0
  8  9  1  0  0  0
  8 17  1  0  0  0
  9 16  1  0  0  0
  9 10  2  0  0  0
 10 11  1  0  0  0
 10 12  1  0  0  0
 12 13  1  0  0  0
 12 38  1  0  0  0
 12 39  1  0  0  0
 13 14  1  0  0  0
 13 40  1  0  0  0
 13 41  1  0  0  0
 14 15  1  0  0  0
 14 42  1  0  0  0
 14 43  1  0  0  0
 15 16  1  0  0  0
 15 44  1  0  0  0
 15 45  1  0  0  0
 16 46  1  0  0  0
 16 47  1  0  0  0
 17 18  3  0  0  0
 19 20  1  0  0  0
 19 48  1  0  0  0
 20 25  2  0  0  0
 20 21  1  0  0  0
 21 22  2  0  0  0
 21 49  1  0  0  0
 22 23  1  0  0  0
 22 50  1  0  0  0
 23 24  2  0  0  0
 23 51  1  0  0  0
 24 25  1  0  0  0
 24 26  1  0  0  0
 25 52  1  0  0  0
 26 27  2  0  0  0
 26 28  2  0  0  0
 26 29  1  0  0  0
 29 33  1  0  0  0
 29 30  1  0  0  0
 30 31  1  0  0  0
 30 53  1  0  0  0
 30 54  1  0  0  0
 31 32  1  0  0  0
 31 55  1  0  0  0
 31 56  1  0  0  0
 32 33  1  0  0  0
 32 57  1  0  0  0
 32 58  1  0  0  0
 33 59  1  0  0  0
 33 60  1  0  0  0
M  END
> <i_i_glide_confnum>
58

> <i_i_glide_lignum>
2297

> <i_i_glide_posenum>
201

> <i_i_glide_rotatable_bonds>
8

> <i_m_Source_File_Index>
1826

> <b_m_subgroup_collapsed>
0

> <r_i_docking_score>
-4.51168

> <r_i_glide_ecoul>
-4.34927

> <r_i_glide_eff_state_penalty>
0

> <r_i_glide_einternal>
9.62898

> <r_i_glide_emodel>
-50.282

> <r_i_glide_energy>
-44.207

> <r_i_glide_erotb>
0.633689

> <r_i_glide_esite>
-0.125385

> <r_i_glide_evdw>
-39.8577

> <r_i_glide_gscore>
-4.51168

> <r_i_glide_hbond>
0

> <r_i_glide_ligand_efficiency>
-0.14099

> <r_i_glide_ligand_efficiency_ln>
-1.01029

> <r_i_glide_ligand_efficiency_sa>
-0.447615

> <r_i_glide_lipo>
-2.51918

> <r_i_glide_metal>
0

> <r_i_glide_rewards>
0.144475

> <s_i_glide_gridfile>
wee1_glide-grid

> <s_m_Source_File>
wee1_decoys_glide_SP.sdf

> <s_m_Source_Path>
/Users/zhangxujun/Desktop

> <s_m_entry_id>
2101

> <s_m_entry_name>
wee1_decoys_glide_SP.1826

> <s_m_subgroup_title>
wee1_decoys_glide_SP

> <s_m_subgroupid>
wee1_decoys_glide_SP


$$$$
