@<TRIPOS>MOLECULE
ZINC46793249_703
68   72    1
SMALL
USER_CHARGES


@<TRIPOS>ATOM
      1 C1          5.4823   53.9058   23.2247 C.3       1 UNK         0.0000 
      2 C2          5.7354   54.4965   21.8448 C.ar      1 UNK         0.0000 
      3 C3          6.8620   55.3022   21.6661 C.ar      1 UNK         0.0000 
      4 C4          7.1115   55.9135   20.4387 C.ar      1 UNK         0.0000 
      5 C5          6.2142   55.7552   19.3710 C.ar      1 UNK         0.0000 
      6 C6          5.1052   54.9225   19.5373 C.ar      1 UNK         0.0000 
      7 C7          4.8650   54.2841   20.7556 C.ar      1 UNK         0.0000 
      8 N8          3.7127   53.4891   20.8311 N.am      1 UNK         0.0000 
      9 C9          3.6848   52.1655   21.0965 C.2       1 UNK         0.0000 
     10 O10         4.7045   51.5002   21.2817 O.2       1 UNK         0.0000 
     11 C11         2.3051   51.4671   21.2040 C.3       1 UNK         0.0000 
     12 C12         2.2363   50.5883   22.5004 C.3       1 UNK         0.0000 
     13 C13         0.8183   50.0487   22.7882 C.3       1 UNK         0.0000 
     14 N14        -0.1608   51.1419   22.6668 N.pl3     1 UNK         0.0000 
     15 C15        -0.2583   51.7558   21.3294 C.3       1 UNK         0.0000 
     16 C16         1.0812   52.4089   20.9409 C.3       1 UNK         0.0000 
     17 S17        -0.9591   51.8354   24.0939 S.o2      1 UNK         0.0000 
     18 O18        -1.6725   53.0501   23.6817 O.2       1 UNK         0.0000 
     19 O19        -1.6881   50.7506   24.7581 O.2       1 UNK         0.0000 
     20 C20         0.3490   52.3598   25.2037 C.ar      1 UNK         0.0000 
     21 C21         1.3051   53.2722   24.7667 C.ar      1 UNK         0.0000 
     22 C22         2.3047   53.6964   25.6345 C.ar      1 UNK         0.0000 
     23 C23         2.3586   53.2537   26.9598 C.ar      1 UNK         0.0000 
     24 C24         1.4017   52.3098   27.4031 C.ar      1 UNK         0.0000 
     25 C25         0.4086   51.8798   26.5135 C.ar      1 UNK         0.0000 
     26 C26         1.4724   51.7148   28.8111 C.3       1 UNK         0.0000 
     27 C27         2.2576   52.6022   29.7944 C.3       1 UNK         0.0000 
     28 C28         3.6096   52.9978   29.1839 C.3       1 UNK         0.0000 
     29 C29         3.4027   53.8414   27.9128 C.3       1 UNK         0.0000 
     30 N30         6.3497   56.3727   18.1124 N.am      1 UNK         0.0000 
     31 C31         7.1383   57.4045   17.7461 C.2       1 UNK         0.0000 
     32 O32         7.9091   57.9995   18.5016 O.2       1 UNK         0.0000 
     33 C33         7.0084   57.8255   16.2695 C.3       1 UNK         0.0000 
     34 C34         7.2639   59.2915   15.9678 C.3       1 UNK         0.0000 
     35 C35         8.2880   58.2463   15.5723 C.3       1 UNK         0.0000 
     36 H36         5.9052   52.9046   23.2846 H         1 UNK         0.0000 
     37 H37         5.9218   54.5221   24.0102 H         1 UNK         0.0000 
     38 H38         4.4159   53.8480   23.4383 H         1 UNK         0.0000 
     39 H39         7.5534   55.4555   22.4819 H         1 UNK         0.0000 
     40 H40         8.0132   56.4960   20.3412 H         1 UNK         0.0000 
     41 H41         4.4146   54.7726   18.7186 H         1 UNK         0.0000 
     42 H42         2.8541   53.9229   20.5161 H         1 UNK         0.0000 
     43 H43         2.3287   50.7279   20.4014 H         1 UNK         0.0000 
     44 H44         2.9069   49.7282   22.4469 H         1 UNK         0.0000 
     45 H45         2.4768   51.1967   23.3713 H         1 UNK         0.0000 
     46 H46         0.5382   49.2487   22.1018 H         1 UNK         0.0000 
     47 H47         0.7663   49.6366   23.7981 H         1 UNK         0.0000 
     48 H48        -0.5456   50.9820   20.6171 H         1 UNK         0.0000 
     49 H49        -1.0576   52.4963   21.3299 H         1 UNK         0.0000 
     50 H50         1.1391   53.2964   21.5678 H         1 UNK         0.0000 
     51 H51         1.0184   52.6899   19.8880 H         1 UNK         0.0000 
     52 H52         1.2654   53.6667   23.7644 H         1 UNK         0.0000 
     53 H53         3.0221   54.4241   25.2868 H         1 UNK         0.0000 
     54 H54        -0.3197   51.1560   26.8523 H         1 UNK         0.0000 
     55 H55         0.4701   51.5153   29.1959 H         1 UNK         0.0000 
     56 H56         1.9670   50.7452   28.7379 H         1 UNK         0.0000 
     57 H57         2.4072   52.0765   30.7380 H         1 UNK         0.0000 
     58 H58         1.6780   53.4965   30.0304 H         1 UNK         0.0000 
     59 H59         4.1842   52.1005   28.9438 H         1 UNK         0.0000 
     60 H60         4.2038   53.5569   29.9087 H         1 UNK         0.0000 
     61 H61         4.3552   53.9785   27.3992 H         1 UNK         0.0000 
     62 H62         3.0665   54.8384   28.2041 H         1 UNK         0.0000 
     63 H63         5.7365   56.0155   17.3968 H         1 UNK         0.0000 
     64 H64         6.2393   57.3084   15.6925 H         1 UNK         0.0000 
     65 H65         7.5044   59.9824   16.7781 H         1 UNK         0.0000 
     66 H66         6.6541   59.7710   15.2016 H         1 UNK         0.0000 
     67 H67         8.4075   57.9905   14.5197 H         1 UNK         0.0000 
     68 H68         9.2357   58.1993   16.1125 H         1 UNK         0.0000 
@<TRIPOS>BOND
     1    1    2 1    
     2    1   36 1    
     3    1   37 1    
     4    1   38 1    
     5    2    7 ar   
     6    2    3 ar   
     7    3    4 ar   
     8    3   39 1    
     9    4    5 ar   
    10    4   40 1    
    11    5    6 ar   
    12    5   30 1    
    13    6    7 ar   
    14    6   41 1    
    15    7    8 1    
    16    8    9 am   BACKBONE|DICT|INTERRES
    17    8   42 1    
    18    9   10 2    
    19    9   11 1    
    20   11   16 1    
    21   11   12 1    
    22   11   43 1    
    23   12   13 1    
    24   12   44 1    
    25   12   45 1    
    26   13   14 1    
    27   13   46 1    
    28   13   47 1    
    29   14   15 1    
    30   14   17 1    
    31   15   16 1    
    32   15   48 1    
    33   15   49 1    
    34   16   50 1    
    35   16   51 1    
    36   17   18 2    
    37   17   19 2    
    38   17   20 1    
    39   20   25 ar   
    40   20   21 ar   
    41   21   22 ar   
    42   21   52 1    
    43   22   23 ar   
    44   22   53 1    
    45   23   29 1    
    46   23   24 ar   
    47   24   25 ar   
    48   24   26 1    
    49   25   54 1    
    50   26   27 1    
    51   26   55 1    
    52   26   56 1    
    53   27   28 1    
    54   27   57 1    
    55   27   58 1    
    56   28   29 1    
    57   28   59 1    
    58   28   60 1    
    59   29   61 1    
    60   29   62 1    
    61   30   31 am   BACKBONE|DICT|INTERRES
    62   30   63 1    
    63   31   32 2    
    64   31   33 1    
    65   33   35 1    
    66   33   34 1    
    67   33   64 1    
    68   34   35 1    
    69   34   65 1    
    70   34   66 1    
    71   35   67 1    
    72   35   68 1    
@<TRIPOS>SUBSTRUCTURE
     1 UNK         1 GROUP             0       ****    0 ROOT    
