@<TRIPOS>MOLECULE
ZINC35703250_5689
86   91    1
SMALL
USER_CHARGES


@<TRIPOS>ATOM
      1 C1          3.4694   53.8947   28.6078 C.3       1 UNK         0.0000 
      2 C2          3.4738   53.8570   27.0924 C.ar      1 UNK         0.0000 
      3 C3          2.3197   53.4849   26.3974 C.ar      1 UNK         0.0000 
      4 C4          2.3130   53.4558   25.0017 C.ar      1 UNK         0.0000 
      5 N5          3.4455   53.7896   24.3013 N.pl3     1 UNK         0.0000 
      6 C6          4.6094   54.1879   25.0003 C.ar      1 UNK         0.0000 
      7 C7          4.6307   54.2233   26.4035 C.ar      1 UNK         0.0000 
      8 N8          5.5248   54.4953   24.0583 N.pl3     1 UNK         0.0000 
      9 C9          5.0135   54.3525   22.7814 C.ar      1 UNK         0.0000 
     10 C10         3.7142   53.8300   22.9276 C.ar      1 UNK         0.0000 
     11 N11         2.7621   53.4719   21.9961 N.pl3     1 UNK         0.0000 
     12 C12         2.5393   52.1572   21.3796 C.3       1 UNK         0.0000 
     13 C13         1.8242   52.4216   20.0373 C.3       1 UNK         0.0000 
     14 C14         3.8949   51.4734   21.0516 C.3       1 UNK         0.0000 
     15 C15         1.6718   51.2807   22.3536 C.3       1 UNK         0.0000 
     16 C16         0.8596   50.0069   21.9110 C.3       1 UNK         0.0000 
     17 C17        -0.4311   50.3782   21.1389 C.3       1 UNK         0.0000 
     18 C18         0.4130   49.2807   23.2040 C.3       1 UNK         0.0000 
     19 C19         1.6853   49.0045   21.0765 C.3       1 UNK         0.0000 
     20 C20         5.8287   54.7482   21.5765 C.ar      1 UNK         0.0000 
     21 C21         7.1061   55.2995   21.7411 C.ar      1 UNK         0.0000 
     22 C22         7.8866   55.6566   20.6447 C.ar      1 UNK         0.0000 
     23 C23         7.4149   55.4513   19.3485 C.ar      1 UNK         0.0000 
     24 C24         6.1229   54.9322   19.1500 C.ar      1 UNK         0.0000 
     25 C25         5.3448   54.5933   20.2721 C.ar      1 UNK         0.0000 
     26 O26         5.6985   54.7698   17.8436 O.3       1 UNK         0.0000 
     27 C27         4.5407   53.9818   17.5785 C.3       1 UNK         0.0000 
     28 O28         8.2475   55.7685   18.2936 O.3       1 UNK         0.0000 
     29 C29         8.7997   54.7613   17.5426 C.2       1 UNK         0.0000 
     30 O30         8.5630   53.5593   17.6817 O.2       1 UNK         0.0000 
     31 C31         9.7972   55.2484   16.4503 C.3       1 UNK         0.0000 
     32 C32         9.6627   54.3610   15.1675 C.3       1 UNK         0.0000 
     33 C33        10.7024   54.7916   14.0992 C.3       1 UNK         0.0000 
     34 C34        10.4689   56.2766   13.7188 C.3       1 UNK         0.0000 
     35 C35        10.6216   57.1703   14.9778 C.3       1 UNK         0.0000 
     36 C36         9.5806   56.7456   16.0476 C.3       1 UNK         0.0000 
     37 C37        12.0520   57.0005   15.5553 C.3       1 UNK         0.0000 
     38 C38        12.2886   55.5174   15.9425 C.3       1 UNK         0.0000 
     39 C39        12.1315   54.6246   14.6819 C.3       1 UNK         0.0000 
     40 C40        11.2479   55.0900   17.0094 C.3       1 UNK         0.0000 
     41 H41         4.0478   54.7458   28.9747 H         1 UNK         0.0000 
     42 H42         2.4587   54.0046   29.0045 H         1 UNK         0.0000 
     43 H43         3.9113   52.9837   29.0144 H         1 UNK         0.0000 
     44 H44         1.4242   53.2165   26.9390 H         1 UNK         0.0000 
     45 H45         1.4381   53.1851   24.4275 H         1 UNK         0.0000 
     46 H46         5.5240   54.5204   26.9356 H         1 UNK         0.0000 
     47 H47         2.4257   54.1873   21.3584 H         1 UNK         0.0000 
     48 H48         0.8478   52.8884   20.1872 H         1 UNK         0.0000 
     49 H49         2.3973   53.1003   19.4092 H         1 UNK         0.0000 
     50 H50         1.6911   51.5176   19.4505 H         1 UNK         0.0000 
     51 H51         3.7801   50.5147   20.5517 H         1 UNK         0.0000 
     52 H52         4.4979   52.0765   20.3774 H         1 UNK         0.0000 
     53 H53         4.4970   51.3019   21.9376 H         1 UNK         0.0000 
     54 H54         0.9158   51.9430   22.7777 H         1 UNK         0.0000 
     55 H55         2.3037   51.0163   23.2046 H         1 UNK         0.0000 
     56 H56        -1.0615   49.4999   20.9789 H         1 UNK         0.0000 
     57 H57        -0.2394   50.7908   20.1506 H         1 UNK         0.0000 
     58 H58        -1.0317   51.1045   21.6889 H         1 UNK         0.0000 
     59 H59         1.2626   48.9151   23.7790 H         1 UNK         0.0000 
     60 H60        -0.1586   49.9378   23.8589 H         1 UNK         0.0000 
     61 H61        -0.2174   48.4171   22.9878 H         1 UNK         0.0000 
     62 H62         2.6020   48.7090   21.5873 H         1 UNK         0.0000 
     63 H63         1.1196   48.0966   20.8799 H         1 UNK         0.0000 
     64 H64         1.9541   49.3975   20.0983 H         1 UNK         0.0000 
     65 H65         7.5193   55.4585   22.7255 H         1 UNK         0.0000 
     66 H66         8.8780   56.0593   20.7981 H         1 UNK         0.0000 
     67 H67         4.3533   54.2008   20.1270 H         1 UNK         0.0000 
     68 H68         4.4415   53.8410   16.5017 H         1 UNK         0.0000 
     69 H69         4.6144   52.9905   18.0317 H         1 UNK         0.0000 
     70 H70         3.6352   54.4784   17.9318 H         1 UNK         0.0000 
     71 H71         9.8121   53.3044   15.4007 H         1 UNK         0.0000 
     72 H72         8.6564   54.4363   14.7508 H         1 UNK         0.0000 
     73 H73        10.5958   54.1648   13.2121 H         1 UNK         0.0000 
     74 H74         9.4768   56.4031   13.2823 H         1 UNK         0.0000 
     75 H75        11.1782   56.5859   12.9490 H         1 UNK         0.0000 
     76 H76        10.4599   58.2130   14.7052 H         1 UNK         0.0000 
     77 H77         8.5695   56.8951   15.6630 H         1 UNK         0.0000 
     78 H78         9.6739   57.3994   16.9164 H         1 UNK         0.0000 
     79 H79        12.7947   57.3219   14.8239 H         1 UNK         0.0000 
     80 H80        12.1884   57.6446   16.4250 H         1 UNK         0.0000 
     81 H81        13.2942   55.3994   16.3489 H         1 UNK         0.0000 
     82 H82        12.3183   53.5788   14.9324 H         1 UNK         0.0000 
     83 H83        12.8805   54.8953   13.9336 H         1 UNK         0.0000 
     84 H84        11.3771   55.6959   17.9065 H         1 UNK         0.0000 
     85 H85        11.4385   54.0579   17.3142 H         1 UNK         0.0000 
     86 H86         6.4565   54.8303   24.2561 H         1 UNK         0.0000 
@<TRIPOS>BOND
     1    1    2 1    
     2    1   41 1    
     3    1   42 1    
     4    1   43 1    
     5    2    7 ar   
     6    2    3 ar   
     7    3    4 ar   
     8    3   44 1    
     9    4    5 ar   
    10    4   45 1    
    11    5   10 ar   
    12    5    6 ar   
    13    6    7 ar   
    14    6    8 ar   
    15    7   46 1    
    16    8    9 ar   
    17    8   86 1    
    18    9   10 ar   
    19    9   20 1    
    20   10   11 1    
    21   11   12 1    
    22   11   47 1    
    23   12   13 1    
    24   12   14 1    
    25   12   15 1    
    26   13   48 1    
    27   13   49 1    
    28   13   50 1    
    29   14   51 1    
    30   14   52 1    
    31   14   53 1    
    32   15   16 1    
    33   15   54 1    
    34   15   55 1    
    35   16   17 1    
    36   16   18 1    
    37   16   19 1    
    38   17   56 1    
    39   17   57 1    
    40   17   58 1    
    41   18   59 1    
    42   18   60 1    
    43   18   61 1    
    44   19   62 1    
    45   19   63 1    
    46   19   64 1    
    47   20   25 ar   
    48   20   21 ar   
    49   21   22 ar   
    50   21   65 1    
    51   22   23 ar   
    52   22   66 1    
    53   23   24 ar   
    54   23   28 1    
    55   24   25 ar   
    56   24   26 1    
    57   25   67 1    
    58   26   27 1    
    59   27   68 1    
    60   27   69 1    
    61   27   70 1    
    62   28   29 1    
    63   29   30 2    
    64   29   31 1    
    65   31   36 1    
    66   31   40 1    
    67   31   32 1    
    68   32   33 1    
    69   32   71 1    
    70   32   72 1    
    71   33   39 1    
    72   33   34 1    
    73   33   73 1    
    74   34   35 1    
    75   34   74 1    
    76   34   75 1    
    77   35   36 1    
    78   35   37 1    
    79   35   76 1    
    80   36   77 1    
    81   36   78 1    
    82   37   38 1    
    83   37   79 1    
    84   37   80 1    
    85   38   39 1    
    86   38   40 1    
    87   38   81 1    
    88   39   82 1    
    89   39   83 1    
    90   40   84 1    
    91   40   85 1    
@<TRIPOS>SUBSTRUCTURE
     1 UNK         1 GROUP             0       ****    0 ROOT    
