@<TRIPOS>MOLECULE
ZINC57316099_2887
62   65    1
SMALL
USER_CHARGES


@<TRIPOS>ATOM
      1 C1         11.3101   53.2984   14.1735 C.3       1 UNK         0.0000 
      2 C2         11.6257   53.3168   15.6905 C.3       1 UNK         0.0000 
      3 C3         11.8152   51.8514   16.1615 C.3       1 UNK         0.0000 
      4 C4         12.9834   54.0378   15.8943 C.3       1 UNK         0.0000 
      5 C5         10.4966   54.0247   16.5345 C.3       1 UNK         0.0000 
      6 H6         10.8518   54.0070   17.5685 H         1 UNK         0.0000 
      7 C7         10.2238   55.4996   16.1315 C.3       1 UNK         0.0000 
      8 C8          9.3839   56.2616   17.1819 C.3       1 UNK         0.0000 
      9 C9          8.2016   55.4029   17.6542 C.2       1 UNK         0.0000 
     10 C10         8.1210   54.0416   17.3253 C.2       1 UNK         0.0000 
     11 S11         6.7006   53.2974   17.9578 S.3       1 UNK         0.0000 
     12 C12         6.3055   54.7274   18.8344 C.2       1 UNK         0.0000 
     13 C13         7.1077   55.8262   18.4611 C.2       1 UNK         0.0000 
     14 C14         6.9021   57.1861   18.9078 C.2       1 UNK         0.0000 
     15 O15         6.7032   57.4794   20.0820 O.2       1 UNK         0.0000 
     16 N16         6.9141   58.1099   17.9448 N.am      1 UNK         0.0000 
     17 N17         5.2426   54.6101   19.7150 N.am      1 UNK         0.0000 
     18 C18         5.3948   54.6734   21.0543 C.2       1 UNK         0.0000 
     19 O19         6.4562   54.9124   21.6301 O.2       1 UNK         0.0000 
     20 C20         4.1854   54.4856   21.8108 C.2       1 UNK         0.0000 
     21 C21         3.4070   53.3881   21.7394 C.2       1 UNK         0.0000 
     22 C22         2.2199   53.1939   22.5449 C.2       1 UNK         0.0000 
     23 C23         1.4106   54.0723   23.2532 C.2       1 UNK         0.0000 
     24 C24         0.4165   53.3205   23.8650 C.2       1 UNK         0.0000 
     25 C25         0.6709   51.9948   23.5576 C.2       1 UNK         0.0000 
     26 O26         1.7537   51.9295   22.7334 O.3       1 UNK         0.0000 
     27 C27         0.0127   50.7173   23.9552 C.ar      1 UNK         0.0000 
     28 C28        -0.0564   49.6985   22.9967 C.ar      1 UNK         0.0000 
     29 C29        -0.7052   48.4983   23.2806 C.ar      1 UNK         0.0000 
     30 C30        -1.2729   48.2945   24.5343 C.ar      1 UNK         0.0000 
     31 C31        -1.1839   49.2883   25.5045 C.ar      1 UNK         0.0000 
     32 C32        -0.5243   50.4945   25.2424 C.ar      1 UNK         0.0000 
     33 N33        -0.4105   51.4845   26.3335 N.pl3     1 UNK         0.0000 
     34 O34        -1.4217   51.7489   26.9769 O.co2     1 UNK         0.0000 
     35 O35         0.6902   51.9768   26.5633 O.co2     1 UNK         0.0000 
     36 C36         9.1348   53.2724   16.4911 C.3       1 UNK         0.0000 
     37 H37        12.1075   52.8126   13.6085 H         1 UNK         0.0000 
     38 H38        11.2021   54.3029   13.7648 H         1 UNK         0.0000 
     39 H39        10.3938   52.7526   13.9505 H         1 UNK         0.0000 
     40 H40        11.9555   51.7934   17.2426 H         1 UNK         0.0000 
     41 H41        10.9605   51.2235   15.9079 H         1 UNK         0.0000 
     42 H42        12.6847   51.3848   15.6936 H         1 UNK         0.0000 
     43 H43        13.2182   54.1601   16.9528 H         1 UNK         0.0000 
     44 H44        13.8064   53.4802   15.4445 H         1 UNK         0.0000 
     45 H45        13.0034   55.0260   15.4361 H         1 UNK         0.0000 
     46 H46        11.1621   56.0446   16.0434 H         1 UNK         0.0000 
     47 H47         9.7888   55.5573   15.1328 H         1 UNK         0.0000 
     48 H48        10.0114   56.5087   18.0403 H         1 UNK         0.0000 
     49 H49         9.0643   57.2085   16.7491 H         1 UNK         0.0000 
     50 H50         7.0437   57.8406   16.9821 H         1 UNK         0.0000 
     51 H51         6.7078   59.0766   18.1638 H         1 UNK         0.0000 
     52 H52         4.3565   54.2990   19.3463 H         1 UNK         0.0000 
     53 H53         3.9219   55.2927   22.4750 H         1 UNK         0.0000 
     54 H54         3.6514   52.5620   21.0846 H         1 UNK         0.0000 
     55 H55         1.5226   55.1413   23.3192 H         1 UNK         0.0000 
     56 H56        -0.3854   53.6951   24.4818 H         1 UNK         0.0000 
     57 H57         0.3688   49.8457   22.0141 H         1 UNK         0.0000 
     58 H58        -0.7729   47.7286   22.5267 H         1 UNK         0.0000 
     59 H59        -1.7736   47.3661   24.7645 H         1 UNK         0.0000 
     60 H60        -1.6126   49.1101   26.4817 H         1 UNK         0.0000 
     61 H61         8.7665   53.1883   15.4694 H         1 UNK         0.0000 
     62 H62         9.2273   52.2579   16.8775 H         1 UNK         0.0000 
@<TRIPOS>BOND
     1    1    2 1    
     2    1   37 1    
     3    1   38 1    
     4    1   39 1    
     5    2    3 1    
     6    2    4 1    
     7    2    5 1    
     8    3   40 1    
     9    3   41 1    
    10    3   42 1    
    11    4   43 1    
    12    4   44 1    
    13    4   45 1    
    14    5    6 1    
    15    5   36 1    
    16    5    7 1    
    17    7    8 1    
    18    7   46 1    
    19    7   47 1    
    20    8    9 1    
    21    8   48 1    
    22    8   49 1    
    23    9   13 1    
    24    9   10 2    
    25   10   11 1    
    26   10   36 1    
    27   11   12 1    
    28   12   13 2    
    29   12   17 am   BACKBONE|DICT|INTERRES
    30   13   14 1    
    31   14   15 2    
    32   14   16 am   BACKBONE|DICT|INTERRES
    33   16   50 1    
    34   16   51 1    
    35   17   18 am   BACKBONE|DICT|INTERRES
    36   17   52 1    
    37   18   19 2    
    38   18   20 1    
    39   20   21 2    
    40   20   53 1    
    41   21   22 1    
    42   21   54 1    
    43   22   26 1    
    44   22   23 2    
    45   23   24 1    
    46   23   55 1    
    47   24   25 2    
    48   24   56 1    
    49   25   26 1    
    50   25   27 1    
    51   27   32 ar   
    52   27   28 ar   
    53   28   29 ar   
    54   28   57 1    
    55   29   30 ar   
    56   29   58 1    
    57   30   31 ar   
    58   30   59 1    
    59   31   32 ar   
    60   31   60 1    
    61   32   33 1    
    62   33   34 2    
    63   33   35 1    
    64   36   61 1    
    65   36   62 1    
@<TRIPOS>SUBSTRUCTURE
     1 UNK         1 GROUP             0       ****    0 ROOT    
