ZINC63807356_2788
                    3D
 Schrodinger Suite 2024-2.
 49 52  0  0  1  0            999 V2000
    1.5500   54.1848   23.5327 C   0  0  0  0  0  0
    3.0526   54.0965   23.3485 C   0  0  0  0  0  0
    3.7808   54.3284   24.3548 N   0  0  0  0  0  0
    5.1448   54.1810   24.1718 C   0  0  0  0  0  0
    6.1503   54.2684   24.9617 N   0  0  0  0  0  0
    6.0278   54.5492   26.3176 C   0  0  0  0  0  0
    6.8452   55.2966   26.8460 O   0  0  0  0  0  0
    4.9485   53.9270   27.0548 C   0  0  0  0  0  0
    4.4385   54.4342   28.1947 C   0  0  0  0  0  0
    3.2374   53.8949   28.8539 C   0  0  0  0  0  0
    2.4202   54.7527   29.5938 C   0  0  0  0  0  0
    1.1952   54.3021   30.0803 C   0  0  0  0  0  0
    0.7625   53.0048   29.8082 C   0  0  0  0  0  0
    1.6030   52.1331   29.1046 C   0  0  0  0  0  0
    2.8321   52.5753   28.6425 C   0  0  0  0  0  0
   -0.4955   52.6634   30.2523 O   0  0  0  0  0  0
   -1.1490   51.5399   29.6640 C   0  0  0  0  0  0
    5.5046   53.7682   22.4819 S   0  0  0  0  0  0
    3.7421   53.7367   22.0471 C   0  0  1  0  0  0
    3.6127   54.5252   21.3050 H   0  0  0  0  0  0
    3.2401   52.3748   21.4787 C   0  0  1  0  0  0
    3.0924   51.6455   22.2772 H   0  0  0  0  0  0
    2.0164   52.4967   20.6898 N   0  0  0  0  0  0
    2.3396   51.9187   19.4052 C   0  0  1  0  0  0
    1.8205   52.4586   18.6111 H   0  0  0  0  0  0
    3.7648   52.1093   19.2817 N   0  0  0  0  0  0
    4.2115   51.8242   20.6021 O   0  0  0  0  0  0
    1.9489   50.4490   19.2975 C   0  0  0  0  0  0
    2.1913   49.3718   20.1547 C   0  0  0  0  0  0
    1.7312   48.1402   19.6829 C   0  0  0  0  0  0
    1.1034   48.2445   18.4575 C   0  0  0  0  0  0
    1.1028   49.8752   17.8840 S   0  0  0  0  0  0
    1.1164   54.8968   22.8356 H   0  0  0  0  0  0
    1.0843   53.2165   23.3502 H   0  0  0  0  0  0
    1.2713   54.4952   24.5407 H   0  0  0  0  0  0
    4.5320   53.0423   26.5974 H   0  0  0  0  0  0
    4.8973   55.2964   28.6568 H   0  0  0  0  0  0
    2.7049   55.7833   29.7528 H   0  0  0  0  0  0
    0.5539   54.9753   30.6297 H   0  0  0  0  0  0
    1.3235   51.1161   28.8820 H   0  0  0  0  0  0
    3.4446   51.8893   28.0815 H   0  0  0  0  0  0
   -2.0602   51.2957   30.2069 H   0  0  0  0  0  0
   -0.5379   50.6462   29.6820 H   0  0  0  0  0  0
   -1.4196   51.7446   28.6280 H   0  0  0  0  0  0
    1.9035   53.4881   20.4886 H   0  0  0  0  0  0
    4.1839   51.3790   18.6978 H   0  0  0  0  0  0
    2.7164   49.4782   21.0917 H   0  0  0  0  0  0
    1.8626   47.2108   20.2131 H   0  0  0  0  0  0
    0.6647   47.4580   17.8626 H   0  0  0  0  0  0
  1  2  1  0  0  0
  1 33  1  0  0  0
  1 34  1  0  0  0
  1 35  1  0  0  0
  2 19  1  0  0  0
  2  3  2  0  0  0
  3  4  1  0  0  0
  4  5  2  0  0  0
  4 18  1  0  0  0
  5  6  1  0  0  0
  6  7  2  0  0  0
  6  8  1  0  0  0
  8  9  2  0  0  0
  8 36  1  0  0  0
  9 10  1  0  0  0
  9 37  1  0  0  0
 10 15  2  0  0  0
 10 11  1  0  0  0
 11 12  2  0  0  0
 11 38  1  0  0  0
 12 13  1  0  0  0
 12 39  1  0  0  0
 13 14  2  0  0  0
 13 16  1  0  0  0
 14 15  1  0  0  0
 14 40  1  0  0  0
 15 41  1  0  0  0
 16 17  1  0  0  0
 17 42  1  0  0  0
 17 43  1  0  0  0
 17 44  1  0  0  0
 18 19  1  0  0  0
 19 20  1  0  0  0
 19 21  1  0  0  0
 21 22  1  0  0  0
 21 27  1  0  0  0
 21 23  1  0  0  0
 23 24  1  0  0  0
 23 45  1  0  0  0
 24 25  1  0  0  0
 24 26  1  0  0  0
 24 28  1  0  0  0
 26 27  1  0  0  0
 26 46  1  0  0  0
 28 32  1  0  0  0
 28 29  2  0  0  0
 29 30  1  0  0  0
 29 47  1  0  0  0
 30 31  2  0  0  0
 30 48  1  0  0  0
 31 32  1  0  0  0
 31 49  1  0  0  0
M  END
> <i_i_glide_confnum>
595

> <i_i_glide_lignum>
2789

> <i_i_glide_posenum>
63

> <i_i_glide_rotatable_bonds>
6

> <i_m_Source_File_Index>
3410

> <b_m_subgroup_collapsed>
0

> <r_i_docking_score>
-7.84154

> <r_i_glide_ecoul>
-10.8289

> <r_i_glide_eff_state_penalty>
0

> <r_i_glide_einternal>
11.4831

> <r_i_glide_emodel>
-74.9511

> <r_i_glide_energy>
-54.7874

> <r_i_glide_erotb>
0.540861

> <r_i_glide_esite>
-0.150005

> <r_i_glide_evdw>
-43.9585

> <r_i_glide_gscore>
-7.84154

> <r_i_glide_hbond>
-0.715969

> <r_i_glide_ligand_efficiency>
-0.270398

> <r_i_glide_ligand_efficiency_ln>
-1.79551

> <r_i_glide_ligand_efficiency_sa>
-0.830748

> <r_i_glide_lipo>
-2.1335

> <r_i_glide_metal>
0

> <r_i_glide_rewards>
-1.56067

> <s_i_glide_gridfile>
wee1_glide-grid

> <s_m_Source_File>
wee1_decoys_glide_SP.sdf

> <s_m_Source_Path>
/Users/zhangxujun/Desktop

> <s_m_entry_id>
3685

> <s_m_entry_name>
wee1_decoys_glide_SP.3410

> <s_m_subgroup_title>
wee1_decoys_glide_SP

> <s_m_subgroupid>
wee1_decoys_glide_SP


$$$$
