@<TRIPOS>MOLECULE
ZINC28227859_5368
79   84    1
SMALL
USER_CHARGES


@<TRIPOS>ATOM
      1 C1          4.7088   52.3134   20.4806 C.3       1 UNK         0.0000 
      2 C2          3.5796   53.2034   19.9338 C.3       1 UNK         0.0000 
      3 N3          2.2115   52.4942   19.9862 N.4       1 UNK         0.0000 
      4 C4          1.7811   51.9805   21.3771 C.3       1 UNK         0.0000 
      5 H5          2.0005   52.8157   22.0478 H         1 UNK         0.0000 
      6 C6          2.3019   50.6614   21.8631 C.3       1 UNK         0.0000 
      7 C7          1.0721   49.9604   22.3939 C.2       1 UNK         0.0000 
      8 O8          1.1051   48.8967   22.9731 O.2       1 UNK         0.0000 
      9 N9         -0.0218   50.7000   22.1148 N.am      1 UNK         0.0000 
     10 C10         0.2713   51.7724   21.3388 C.2       1 UNK         0.0000 
     11 O11        -0.5263   52.4961   20.7510 O.2       1 UNK         0.0000 
     12 C12        -1.4332   50.3320   22.4259 C.3       1 UNK         0.0000 
     13 H13        -2.0476   51.1091   21.9785 H         1 UNK         0.0000 
     14 C14        -1.9626   49.0044   21.8390 C.3       1 UNK         0.0000 
     15 C15        -2.8287   48.4672   23.0061 C.3       1 UNK         0.0000 
     16 H16        -3.5832   47.7474   22.6829 H         1 UNK         0.0000 
     17 C17        -1.8491   47.8851   24.0567 C.3       1 UNK         0.0000 
     18 C18        -1.2997   49.1541   24.7392 C.3       1 UNK         0.0000 
     19 C19        -1.9434   50.3146   23.9238 C.3       1 UNK         0.0000 
     20 C20        -3.3955   49.7396   23.6986 C.3       1 UNK         0.0000 
     21 C21        -4.3610   50.5811   22.8050 C.3       1 UNK         0.0000 
     22 C22        -4.2483   49.4169   24.9650 C.3       1 UNK         0.0000 
     23 C23        -1.7743   51.7442   24.5170 C.3       1 UNK         0.0000 
     24 S24        -2.0313   52.0269   26.3803 S.o2      1 UNK         0.0000 
     25 O25        -2.7433   53.2975   26.4817 O.2       1 UNK         0.0000 
     26 O26        -2.6308   50.8542   27.0143 O.2       1 UNK         0.0000 
     27 N27        -0.3800   52.2073   27.0595 N.pl3     1 UNK         0.0000 
     28 C28         0.0282   53.4050   27.8742 C.3       1 UNK         0.0000 
     29 C29         0.9136   53.0899   29.0920 C.3       1 UNK         0.0000 
     30 C30         2.1225   52.2170   28.6761 C.3       1 UNK         0.0000 
     31 C31         3.0451   51.8863   29.8537 C.3       1 UNK         0.0000 
     32 C32         4.2035   52.8616   29.8173 C.3       1 UNK         0.0000 
     33 C33         4.2324   53.3342   28.3853 C.ar      1 UNK         0.0000 
     34 C34         3.0637   52.9596   27.7063 C.ar      1 UNK         0.0000 
     35 C35         2.9087   53.3459   26.3653 C.ar      1 UNK         0.0000 
     36 C36         3.8969   54.0967   25.7269 C.ar      1 UNK         0.0000 
     37 C37         5.0412   54.4888   26.4229 C.ar      1 UNK         0.0000 
     38 C38         5.2063   54.1105   27.7561 C.ar      1 UNK         0.0000 
     39 C39         1.5065   50.9126   28.1371 C.3       1 UNK         0.0000 
     40 C40         0.5466   51.0556   26.9464 C.3       1 UNK         0.0000 
     41 H41         5.6655   52.7391   20.1960 H         1 UNK         0.0000 
     42 H42         4.6772   51.2985   20.0813 H         1 UNK         0.0000 
     43 H43         4.6875   52.2501   21.5687 H         1 UNK         0.0000 
     44 H44         3.4841   54.1392   20.4890 H         1 UNK         0.0000 
     45 H45         3.7162   53.4366   18.8766 H         1 UNK         0.0000 
     46 H46         1.5157   53.1682   19.6778 H         1 UNK         0.0000 
     47 H47         2.7538   50.0590   21.0718 H         1 UNK         0.0000 
     48 H48         3.0339   50.7636   22.6649 H         1 UNK         0.0000 
     49 H49        -2.5514   49.1791   20.9384 H         1 UNK         0.0000 
     50 H50        -1.1753   48.3002   21.5711 H         1 UNK         0.0000 
     51 H51        -2.3684   47.2505   24.7762 H         1 UNK         0.0000 
     52 H52        -1.0577   47.2786   23.6144 H         1 UNK         0.0000 
     53 H53        -1.6154   49.1372   25.7764 H         1 UNK         0.0000 
     54 H54        -0.2200   49.1912   24.8137 H         1 UNK         0.0000 
     55 H55        -4.5705   51.5410   23.2732 H         1 UNK         0.0000 
     56 H56        -4.0150   50.7856   21.7946 H         1 UNK         0.0000 
     57 H57        -5.3214   50.0797   22.6796 H         1 UNK         0.0000 
     58 H58        -4.5964   50.3256   25.4518 H         1 UNK         0.0000 
     59 H59        -5.1360   48.8468   24.6949 H         1 UNK         0.0000 
     60 H60        -3.7479   48.8268   25.7305 H         1 UNK         0.0000 
     61 H61        -0.7702   52.1190   24.3307 H         1 UNK         0.0000 
     62 H62        -2.4526   52.4355   24.0198 H         1 UNK         0.0000 
     63 H63         0.6808   54.0394   27.2708 H         1 UNK         0.0000 
     64 H64        -0.8527   53.9908   28.1253 H         1 UNK         0.0000 
     65 H65         1.2567   54.0385   29.5090 H         1 UNK         0.0000 
     66 H66         0.2996   52.5950   29.8499 H         1 UNK         0.0000 
     67 H67         2.5364   51.8059   30.8152 H         1 UNK         0.0000 
     68 H68         3.4949   50.9010   29.6851 H         1 UNK         0.0000 
     69 H69         5.1041   52.3157   30.0809 H         1 UNK         0.0000 
     70 H70         4.0464   53.6857   30.5136 H         1 UNK         0.0000 
     71 H71         2.0254   53.0855   25.8036 H         1 UNK         0.0000 
     72 H72         3.7683   54.3870   24.6930 H         1 UNK         0.0000 
     73 H73         5.7982   55.0813   25.9302 H         1 UNK         0.0000 
     74 H74         6.0944   54.4169   28.2904 H         1 UNK         0.0000 
     75 H75         0.9088   50.4996   28.9451 H         1 UNK         0.0000 
     76 H76         2.2834   50.1959   27.8674 H         1 UNK         0.0000 
     77 H77        -0.0362   50.1436   26.8534 H         1 UNK         0.0000 
     78 H78         1.1046   51.1715   26.0211 H         1 UNK         0.0000 
     79 H79         2.2137   51.7279   19.3248 H         1 UNK         0.0000 
@<TRIPOS>BOND
     1    1    2 1    
     2    1   41 1    
     3    1   42 1    
     4    1   43 1    
     5    2    3 1    
     6    2   44 1    
     7    2   45 1    
     8    3    4 1    
     9    3   46 1    
    10    3   79 1    
    11    4    5 1    
    12    4   10 1    
    13    4    6 1    
    14    6    7 1    
    15    6   47 1    
    16    6   48 1    
    17    7    8 2    
    18    7    9 am   BACKBONE|DICT|INTERRES
    19    9   10 am   BACKBONE|DICT|INTERRES
    20    9   12 1    
    21   10   11 2    
    22   12   13 1    
    23   12   19 1    
    24   12   14 1    
    25   14   15 1    
    26   14   49 1    
    27   14   50 1    
    28   15   16 1    
    29   15   20 1    
    30   15   17 1    
    31   17   18 1    
    32   17   51 1    
    33   17   52 1    
    34   18   19 1    
    35   18   53 1    
    36   18   54 1    
    37   19   20 1    
    38   19   23 1    
    39   20   21 1    
    40   20   22 1    
    41   21   55 1    
    42   21   56 1    
    43   21   57 1    
    44   22   58 1    
    45   22   59 1    
    46   22   60 1    
    47   23   24 1    
    48   23   61 1    
    49   23   62 1    
    50   24   25 2    
    51   24   26 2    
    52   24   27 1    
    53   27   40 1    
    54   27   28 1    
    55   28   29 1    
    56   28   63 1    
    57   28   64 1    
    58   29   30 1    
    59   29   65 1    
    60   29   66 1    
    61   30   34 1    
    62   30   31 1    
    63   30   39 1    
    64   31   32 1    
    65   31   67 1    
    66   31   68 1    
    67   32   33 1    
    68   32   69 1    
    69   32   70 1    
    70   33   38 ar   
    71   33   34 ar   
    72   34   35 ar   
    73   35   36 ar   
    74   35   71 1    
    75   36   37 ar   
    76   36   72 1    
    77   37   38 ar   
    78   37   73 1    
    79   38   74 1    
    80   39   40 1    
    81   39   75 1    
    82   39   76 1    
    83   40   77 1    
    84   40   78 1    
@<TRIPOS>SUBSTRUCTURE
     1 UNK         1 GROUP             0       ****    0 ROOT    
