@<TRIPOS>MOLECULE
ZINC63373451_505
50   54    1
SMALL
USER_CHARGES


@<TRIPOS>ATOM
      1 C1          0.6487   52.4450   28.8420 C.3       1 UNK         0.0000 
      2 O2          0.1078   52.1178   27.5654 O.3       1 UNK         0.0000 
      3 C3          0.7705   52.4958   26.4360 C.2       1 UNK         0.0000 
      4 C4          0.2318   52.0475   25.1565 C.2       1 UNK         0.0000 
      5 C5          0.8138   52.3368   23.9631 C.2       1 UNK         0.0000 
      6 C6          1.9800   53.1059   23.9184 C.2       1 UNK         0.0000 
      7 N7          2.7178   53.4546   22.8845 N.pl3     1 UNK         0.0000 
      8 C8          3.8311   54.3226   23.3162 C.3       1 UNK         0.0000 
      9 H9          3.5983   55.2967   22.9125 H         1 UNK         0.0000 
     10 C10         5.2671   53.9112   22.9012 C.3       1 UNK         0.0000 
     11 H11         5.4066   52.8727   23.1967 H         1 UNK         0.0000 
     12 N12         6.2578   54.6620   23.6878 N.3       1 UNK         0.0000 
     13 C13         6.1297   54.3959   25.1222 C.3       1 UNK         0.0000 
     14 C14         4.7628   54.8616   25.6766 C.3       1 UNK         0.0000 
     15 C15         3.6575   54.2610   24.8215 C.2       1 UNK         0.0000 
     16 C16         2.5358   53.5839   25.1081 C.2       1 UNK         0.0000 
     17 C17         1.9041   53.2426   26.3903 C.2       1 UNK         0.0000 
     18 C18         5.4327   53.9875   21.3648 C.ar      1 UNK         0.0000 
     19 C19         5.1044   52.9455   20.5649 C.ar      1 UNK         0.0000 
     20 N20         5.2936   52.8970   19.2290 N.pl3     1 UNK         0.0000 
     21 C21         5.9019   53.9068   18.5516 C.ar      1 UNK         0.0000 
     22 N22         6.2373   55.0042   19.3335 N.pl3     1 UNK         0.0000 
     23 C23         6.0154   55.1657   20.6949 C.ar      1 UNK         0.0000 
     24 O24         6.3048   56.2112   21.2838 O.2       1 UNK         0.0000 
     25 C25         6.9211   56.0667   18.6894 C.ar      1 UNK         0.0000 
     26 C26         6.2182   57.2016   18.2630 C.ar      1 UNK         0.0000 
     27 C27         6.9157   58.3002   17.7662 C.ar      1 UNK         0.0000 
     28 C28         8.3072   58.2598   17.6918 C.ar      1 UNK         0.0000 
     29 C29         9.0087   57.1208   18.0839 C.ar      1 UNK         0.0000 
     30 C30         8.3176   56.0212   18.5842 C.ar      1 UNK         0.0000 
     31 Br31        9.2636   59.7879   17.0819 Br        1 UNK         0.0000 
     32 O32         6.1096   53.7891   17.3439 O.2       1 UNK         0.0000 
     33 O33         4.6104   51.8336   20.9786 O.co2     1 UNK         0.0000 
     34 H34         0.0024   52.0340   29.6184 H         1 UNK         0.0000 
     35 H35         1.6410   52.0128   28.9805 H         1 UNK         0.0000 
     36 H36         0.6986   53.5243   28.9932 H         1 UNK         0.0000 
     37 H37        -0.6654   51.4452   25.1674 H         1 UNK         0.0000 
     38 H38         0.3625   51.9569   23.0575 H         1 UNK         0.0000 
     39 H39         7.1859   54.4233   23.3612 H         1 UNK         0.0000 
     40 H40         6.2718   53.3316   25.3208 H         1 UNK         0.0000 
     41 H41         6.9502   54.8855   25.6475 H         1 UNK         0.0000 
     42 H42         4.6690   54.5585   26.7191 H         1 UNK         0.0000 
     43 H43         4.7177   55.9495   25.6805 H         1 UNK         0.0000 
     44 H44         2.3444   53.5919   27.3107 H         1 UNK         0.0000 
     45 H45         5.1424   57.2470   18.3545 H         1 UNK         0.0000 
     46 H46         6.3826   59.1918   17.4627 H         1 UNK         0.0000 
     47 H47        10.0872   57.0980   18.0269 H         1 UNK         0.0000 
     48 H48         8.8672   55.1540   18.9227 H         1 UNK         0.0000 
     49 H49         5.1707   52.0083   18.7410 H         1 UNK         0.0000 
     50 H50         2.5509   53.1956   21.9140 H         1 UNK         0.0000 
@<TRIPOS>BOND
     1    1    2 1    
     2    1   34 1    
     3    1   35 1    
     4    1   36 1    
     5    2    3 1    
     6    3   17 2    
     7    3    4 1    
     8    4    5 2    
     9    4   37 1    
    10    5    6 1    
    11    5   38 1    
    12    6   16 1    
    13    6    7 2    
    14    7    8 1    
    15    7   50 1    
    16    8    9 1    
    17    8   15 1    
    18    8   10 1    
    19   10   11 1    
    20   10   12 1    
    21   10   18 1    
    22   12   13 1    
    23   12   39 1    
    24   13   14 1    
    25   13   40 1    
    26   13   41 1    
    27   14   15 1    
    28   14   42 1    
    29   14   43 1    
    30   15   16 2    
    31   16   17 1    
    32   17   44 1    
    33   18   23 ar   
    34   18   19 ar   
    35   19   33 1    
    36   19   20 ar   
    37   20   49 1    
    38   20   21 ar   
    39   21   32 2    
    40   21   22 ar   
    41   22   23 ar   
    42   22   25 1    
    43   23   24 2    
    44   25   30 ar   
    45   25   26 ar   
    46   26   27 ar   
    47   26   45 1    
    48   27   28 ar   
    49   27   46 1    
    50   28   29 ar   
    51   28   31 1    
    52   29   30 ar   
    53   29   47 1    
    54   30   48 1    
@<TRIPOS>SUBSTRUCTURE
     1 UNK         1 GROUP             0       ****    0 ROOT    
