@<TRIPOS>MOLECULE
ZINC13985481_3117
50   51    1
SMALL
USER_CHARGES


@<TRIPOS>ATOM
      1 C1          4.6993   54.5550   29.3736 C.3       1 UNK         0.0000 
      2 C2          4.6726   54.3906   27.8648 C.ar      1 UNK         0.0000 
      3 C3          5.8724   54.4177   27.1510 C.ar      1 UNK         0.0000 
      4 C4          5.8691   54.2936   25.7634 C.ar      1 UNK         0.0000 
      5 C5          4.6600   54.1429   25.0595 C.ar      1 UNK         0.0000 
      6 C6          3.4668   54.0985   25.7924 C.ar      1 UNK         0.0000 
      7 C7          3.4638   54.2308   27.1793 C.ar      1 UNK         0.0000 
      8 I8          1.6133   54.1998   28.1721 I         1 UNK         0.0000 
      9 C9          4.6058   54.0262   23.5524 C.2       1 UNK         0.0000 
     10 O10         3.5914   53.5738   23.0148 O.2       1 UNK         0.0000 
     11 N11         5.6977   54.4975   22.8931 N.am      1 UNK         0.0000 
     12 C12         5.9711   54.6909   21.5605 C.2       1 UNK         0.0000 
     13 S13         5.0886   54.0679   20.2608 S.2       1 UNK         0.0000 
     14 N14         7.0906   55.4711   21.4167 N.pl3     1 UNK         0.0000 
     15 N15         7.7382   55.6820   20.1960 N.am      1 UNK         0.0000 
     16 C16         7.4811   56.7802   19.4508 C.2       1 UNK         0.0000 
     17 O17         6.7069   57.6747   19.8043 O.2       1 UNK         0.0000 
     18 C18         8.2438   56.9414   18.1147 C.3       1 UNK         0.0000 
     19 N19         9.0386   55.7627   17.7255 N.am      1 UNK         0.0000 
     20 C20         8.5081   54.6362   17.2082 C.2       1 UNK         0.0000 
     21 O21         7.2957   54.5054   17.0518 O.2       1 UNK         0.0000 
     22 C22         9.4745   53.4601   16.9254 C.3       1 UNK         0.0000 
     23 C23         8.7212   52.1412   16.5968 C.3       1 UNK         0.0000 
     24 C24         9.7323   51.0007   16.3506 C.3       1 UNK         0.0000 
     25 C25        10.7776   51.3657   15.2765 C.3       1 UNK         0.0000 
     26 C26        11.4927   52.6965   15.5942 C.3       1 UNK         0.0000 
     27 C27        10.5027   53.8580   15.8347 C.3       1 UNK         0.0000 
     28 H28         5.6722   54.8968   29.7251 H         1 UNK         0.0000 
     29 H29         3.9668   55.3027   29.6767 H         1 UNK         0.0000 
     30 H30         4.4345   53.6165   29.8633 H         1 UNK         0.0000 
     31 H31         6.8114   54.5340   27.6738 H         1 UNK         0.0000 
     32 H32         6.8180   54.3042   25.2457 H         1 UNK         0.0000 
     33 H33         2.5159   53.9823   25.2894 H         1 UNK         0.0000 
     34 H34         6.4191   54.8184   23.5163 H         1 UNK         0.0000 
     35 H35         7.7417   55.5659   22.1842 H         1 UNK         0.0000 
     36 H36         8.4014   54.9622   19.9501 H         1 UNK         0.0000 
     37 H37         8.9255   57.7830   18.2150 H         1 UNK         0.0000 
     38 H38         7.5381   57.2015   17.3249 H         1 UNK         0.0000 
     39 H39        10.0363   55.8190   17.8622 H         1 UNK         0.0000 
     40 H40        10.0342   53.3629   17.8569 H         1 UNK         0.0000 
     41 H41         8.1400   52.2459   15.6787 H         1 UNK         0.0000 
     42 H42         8.0826   51.8259   17.4241 H         1 UNK         0.0000 
     43 H43         9.2013   50.0934   16.0574 H         1 UNK         0.0000 
     44 H44        10.2496   50.7635   17.2824 H         1 UNK         0.0000 
     45 H45        10.2892   51.4381   14.3020 H         1 UNK         0.0000 
     46 H46        11.5100   50.5621   15.1835 H         1 UNK         0.0000 
     47 H47        12.1699   52.9499   14.7777 H         1 UNK         0.0000 
     48 H48        12.1215   52.5625   16.4764 H         1 UNK         0.0000 
     49 H49        11.0996   54.7223   16.1247 H         1 UNK         0.0000 
     50 H50        10.0023   54.0270   14.8799 H         1 UNK         0.0000 
@<TRIPOS>BOND
     1    1    2 1    
     2    1   28 1    
     3    1   29 1    
     4    1   30 1    
     5    2    7 ar   
     6    2    3 ar   
     7    3    4 ar   
     8    3   31 1    
     9    4    5 ar   
    10    4   32 1    
    11    5    6 ar   
    12    5    9 1    
    13    6    7 ar   
    14    6   33 1    
    15    7    8 1    
    16    9   10 2    
    17    9   11 am   BACKBONE|DICT|INTERRES
    18   11   12 am   BACKBONE|DICT|INTERRES
    19   11   34 1    
    20   12   13 2    
    21   12   14 1    
    22   14   15 1    
    23   14   35 1    
    24   15   16 am   BACKBONE|DICT|INTERRES
    25   15   36 1    
    26   16   17 2    
    27   16   18 1    
    28   18   19 1    
    29   18   37 1    
    30   18   38 1    
    31   19   20 am   BACKBONE|DICT|INTERRES
    32   19   39 1    
    33   20   21 2    
    34   20   22 1    
    35   22   27 1    
    36   22   23 1    
    37   22   40 1    
    38   23   24 1    
    39   23   41 1    
    40   23   42 1    
    41   24   25 1    
    42   24   43 1    
    43   24   44 1    
    44   25   26 1    
    45   25   45 1    
    46   25   46 1    
    47   26   27 1    
    48   26   47 1    
    49   26   48 1    
    50   27   49 1    
    51   27   50 1    
@<TRIPOS>SUBSTRUCTURE
     1 UNK         1 GROUP             0       ****    0 ROOT    
