@<TRIPOS>MOLECULE
ZINC36270867_217
55   58    1
SMALL
USER_CHARGES


@<TRIPOS>ATOM
      1 C1          3.7729   53.6564   25.1746 C.3       1 UNK         0.0000 
      2 C2          3.6334   54.6909   24.0655 C.3       1 UNK         0.0000 
      3 O3          3.4041   54.1191   22.7812 O.3       1 UNK         0.0000 
      4 C4          4.3611   54.0984   21.8225 C.2       1 UNK         0.0000 
      5 O5          5.5429   54.4151   21.9688 O.2       1 UNK         0.0000 
      6 C6          3.7833   53.6901   20.4580 C.3       1 UNK         0.0000 
      7 C7          4.1314   52.2306   20.1403 C.3       1 UNK         0.0000 
      8 C8          3.3149   51.8503   18.8940 C.3       1 UNK         0.0000 
      9 N9          3.8184   52.7398   17.7281 N.4       1 UNK         0.0000 
     10 C10         3.5519   54.2391   18.0075 C.3       1 UNK         0.0000 
     11 C11         4.2957   54.6109   19.3019 C.3       1 UNK         0.0000 
     12 C12         3.2106   52.2905   16.3824 C.3       1 UNK         0.0000 
     13 C13         4.2134   52.4598   15.2433 C.ar      1 UNK         0.0000 
     14 C14         5.4326   53.1473   15.0466 C.ar      1 UNK         0.0000 
     15 N15         5.9073   53.0120   13.8246 N.2       1 UNK         0.0000 
     16 C16         5.0435   52.1888   13.1925 C.ar      1 UNK         0.0000 
     17 N17         3.9877   51.8151   14.0432 N.pl3     1 UNK         0.0000 
     18 C18         2.9857   50.9728   13.6218 C.ar      1 UNK         0.0000 
     19 C19         3.0094   50.4798   12.3218 C.ar      1 UNK         0.0000 
     20 C20         4.0374   50.8463   11.4539 C.ar      1 UNK         0.0000 
     21 C21         5.0631   51.6988   11.8715 C.ar      1 UNK         0.0000 
     22 N22         2.0002   49.6233   11.8935 N.pl3     1 UNK         0.0000 
     23 C23         6.2291   53.9702   15.9946 C.ar      1 UNK         0.0000 
     24 C24         6.9539   53.3626   17.0244 C.ar      1 UNK         0.0000 
     25 C25         7.7283   54.1462   17.8777 C.ar      1 UNK         0.0000 
     26 C26         7.7608   55.5281   17.7115 C.ar      1 UNK         0.0000 
     27 C27         7.0424   56.1349   16.6838 C.ar      1 UNK         0.0000 
     28 C28         6.2852   55.3546   15.8161 C.ar      1 UNK         0.0000 
     29 F29         8.4869   56.2864   18.5641 F         1 UNK         0.0000 
     30 H30         3.5759   54.1069   26.1467 H         1 UNK         0.0000 
     31 H31         4.7979   53.2961   25.1998 H         1 UNK         0.0000 
     32 H32         3.0843   52.8223   25.0454 H         1 UNK         0.0000 
     33 H33         2.7906   55.3480   24.2822 H         1 UNK         0.0000 
     34 H34         4.5356   55.2969   24.0793 H         1 UNK         0.0000 
     35 H35         2.7028   53.6981   20.5544 H         1 UNK         0.0000 
     36 H36         5.2007   52.0858   19.9666 H         1 UNK         0.0000 
     37 H37         3.8280   51.5661   20.9512 H         1 UNK         0.0000 
     38 H38         2.2397   52.0044   19.0002 H         1 UNK         0.0000 
     39 H39         3.5040   50.8119   18.6351 H         1 UNK         0.0000 
     40 H40         2.4721   54.3783   18.0852 H         1 UNK         0.0000 
     41 H41         3.9301   54.8063   17.1593 H         1 UNK         0.0000 
     42 H42         4.1335   55.6887   19.4325 H         1 UNK         0.0000 
     43 H43         5.3688   54.4854   19.1649 H         1 UNK         0.0000 
     44 H44         2.9534   51.2376   16.5135 H         1 UNK         0.0000 
     45 H45         2.2828   52.8505   16.2544 H         1 UNK         0.0000 
     46 H46         2.2175   50.7216   14.3374 H         1 UNK         0.0000 
     47 H47         4.0427   50.4667   10.4403 H         1 UNK         0.0000 
     48 H48         5.8575   51.9797   11.1958 H         1 UNK         0.0000 
     49 H49         2.1529   49.0761   11.0578 H         1 UNK         0.0000 
     50 H50         1.3437   49.2947   12.5861 H         1 UNK         0.0000 
     51 H51         6.9243   52.2900   17.1578 H         1 UNK         0.0000 
     52 H52         8.2995   53.6967   18.6737 H         1 UNK         0.0000 
     53 H53         7.0737   57.2074   16.5638 H         1 UNK         0.0000 
     54 H54         5.7377   55.8243   15.0118 H         1 UNK         0.0000 
     55 H55         4.8128   52.5637   17.6487 H         1 UNK         0.0000 
@<TRIPOS>BOND
     1    1    2 1    
     2    1   30 1    
     3    1   31 1    
     4    1   32 1    
     5    2    3 1    
     6    2   33 1    
     7    2   34 1    
     8    3    4 1    
     9    4    5 2    
    10    4    6 1    
    11    6   11 1    
    12    6    7 1    
    13    6   35 1    
    14    7    8 1    
    15    7   36 1    
    16    7   37 1    
    17    8    9 1    
    18    8   38 1    
    19    8   39 1    
    20    9   10 1    
    21    9   12 1    
    22    9   55 1    
    23   10   11 1    
    24   10   40 1    
    25   10   41 1    
    26   11   42 1    
    27   11   43 1    
    28   12   13 1    
    29   12   44 1    
    30   12   45 1    
    31   13   17 ar   
    32   13   14 ar   
    33   14   15 ar   
    34   14   23 1    
    35   15   16 ar   
    36   16   21 ar   
    37   16   17 ar   
    38   17   18 ar   
    39   18   19 ar   
    40   18   46 1    
    41   19   20 ar   
    42   19   22 1    
    43   20   21 ar   
    44   20   47 1    
    45   21   48 1    
    46   22   49 1    
    47   22   50 1    
    48   23   28 ar   
    49   23   24 ar   
    50   24   25 ar   
    51   24   51 1    
    52   25   26 ar   
    53   25   52 1    
    54   26   27 ar   
    55   26   29 1    
    56   27   28 ar   
    57   27   53 1    
    58   28   54 1    
@<TRIPOS>SUBSTRUCTURE
     1 UNK         1 GROUP             0       ****    0 ROOT    
