@<TRIPOS>MOLECULE
ZINC35425609_1623
37   37    1
SMALL
USER_CHARGES


@<TRIPOS>ATOM
      1 C1          5.7097   53.6413   19.5148 C.3       1 UNK         0.0000 
      2 C2          4.6865   54.0780   20.5891 C.3       1 UNK         0.0000 
      3 H3          4.3191   55.0447   20.2536 H         1 UNK         0.0000 
      4 C4          5.2942   54.3651   21.9931 C.2       1 UNK         0.0000 
      5 O5          6.4049   54.8975   22.0642 O.2       1 UNK         0.0000 
      6 N6          4.5147   54.0730   23.0567 N.am      1 UNK         0.0000 
      7 C7          4.8239   54.2430   24.3957 C.2       1 UNK         0.0000 
      8 C8          6.0275   54.4971   25.0521 C.2       1 UNK         0.0000 
      9 C9          5.8744   54.5610   26.4450 C.2       1 UNK         0.0000 
     10 C10         4.5577   54.3712   26.8769 C.2       1 UNK         0.0000 
     11 S11         3.5062   54.0964   25.5113 S.3       1 UNK         0.0000 
     12 C12         3.9993   54.3788   28.2369 C.2       1 UNK         0.0000 
     13 O13         4.8111   54.5029   29.1803 O.co2     1 UNK         0.0000 
     14 O14         2.7579   54.2750   28.3672 O.co2     1 UNK         0.0000 
     15 N15         3.5042   53.2008   20.5500 N.am      1 UNK         0.0000 
     16 C16         3.4673   51.8908   20.8689 C.2       1 UNK         0.0000 
     17 O17         4.4650   51.2968   21.2783 O.2       1 UNK         0.0000 
     18 C18         2.1256   51.1138   20.7047 C.3       1 UNK         0.0000 
     19 C19         0.9139   52.0449   20.4147 C.3       1 UNK         0.0000 
     20 C20         1.8330   50.3198   22.0064 C.3       1 UNK         0.0000 
     21 C21         2.2784   50.1121   19.5319 C.3       1 UNK         0.0000 
     22 H22         6.6452   54.1960   19.5793 H         1 UNK         0.0000 
     23 H23         5.9370   52.5767   19.5827 H         1 UNK         0.0000 
     24 H24         5.3109   53.8117   18.5129 H         1 UNK         0.0000 
     25 H25         3.6176   53.6584   22.8558 H         1 UNK         0.0000 
     26 H26         6.9776   54.6167   24.5495 H         1 UNK         0.0000 
     27 H27         6.6907   54.7407   27.1303 H         1 UNK         0.0000 
     28 H28         2.6549   53.6435   20.2195 H         1 UNK         0.0000 
     29 H29        -0.0166   51.4794   20.3493 H         1 UNK         0.0000 
     30 H30         1.0248   52.5765   19.4693 H         1 UNK         0.0000 
     31 H31         0.7783   52.7954   21.1956 H         1 UNK         0.0000 
     32 H32         2.6345   49.6188   22.2484 H         1 UNK         0.0000 
     33 H33         1.7162   50.9846   22.8661 H         1 UNK         0.0000 
     34 H34         0.9162   49.7361   21.9237 H         1 UNK         0.0000 
     35 H35         3.1023   49.4131   19.6926 H         1 UNK         0.0000 
     36 H36         1.3759   49.5128   19.3950 H         1 UNK         0.0000 
     37 H37         2.4738   50.6186   18.5831 H         1 UNK         0.0000 
@<TRIPOS>BOND
     1    1    2 1    
     2    1   22 1    
     3    1   23 1    
     4    1   24 1    
     5    2    3 1    
     6    2    4 1    
     7    2   15 1    
     8    4    5 2    
     9    4    6 am   BACKBONE|DICT|INTERRES
    10    6    7 am   BACKBONE|DICT|INTERRES
    11    6   25 1    
    12    7   11 1    
    13    7    8 2    
    14    8    9 1    
    15    8   26 1    
    16    9   10 2    
    17    9   27 1    
    18   10   11 1    
    19   10   12 1    
    20   12   13 2    
    21   12   14 1    
    22   15   16 am   BACKBONE|DICT|INTERRES
    23   15   28 1    
    24   16   17 2    
    25   16   18 1    
    26   18   19 1    
    27   18   20 1    
    28   18   21 1    
    29   19   29 1    
    30   19   30 1    
    31   19   31 1    
    32   20   32 1    
    33   20   33 1    
    34   20   34 1    
    35   21   35 1    
    36   21   36 1    
    37   21   37 1    
@<TRIPOS>SUBSTRUCTURE
     1 UNK         1 GROUP             0       ****    0 ROOT    
