@<TRIPOS>MOLECULE
ZINC65006615_5369
75   78    1
SMALL
USER_CHARGES


@<TRIPOS>ATOM
      1 C1          6.3262   55.1220   18.9750 C.3       1 UNK         0.0000 
      2 C2          6.1535   54.8971   20.4662 C.ar      1 UNK         0.0000 
      3 C3          5.1050   54.0990   20.9282 C.ar      1 UNK         0.0000 
      4 C4          4.9411   53.8971   22.2965 C.ar      1 UNK         0.0000 
      5 C5          5.8138   54.4986   23.2100 C.ar      1 UNK         0.0000 
      6 C6          6.8569   55.2936   22.7405 C.ar      1 UNK         0.0000 
      7 C7          7.0330   55.4921   21.3731 C.ar      1 UNK         0.0000 
      8 C8          5.5761   54.3593   24.6744 C.2       1 UNK         0.0000 
      9 N9          6.4661   54.1220   25.6065 N.2       1 UNK         0.0000 
     10 C10         5.9183   53.9863   26.8096 C.2       1 UNK         0.0000 
     11 C11         4.5122   54.0858   26.8575 C.2       1 UNK         0.0000 
     12 S12         3.9921   54.6165   25.2745 S.3       1 UNK         0.0000 
     13 C13         3.5882   53.9917   27.9937 C.2       1 UNK         0.0000 
     14 O14         3.9962   54.3287   29.1078 O.2       1 UNK         0.0000 
     15 N15         2.3044   53.5436   27.7905 N.am      1 UNK         0.0000 
     16 C16         1.3177   53.6277   28.9124 C.3       1 UNK         0.0000 
     17 C17         0.3606   52.4001   28.9208 C.3       1 UNK         0.0000 
     18 C18        -0.2656   52.1465   27.5352 C.3       1 UNK         0.0000 
     19 C19         0.9623   51.7984   26.6831 C.3       1 UNK         0.0000 
     20 C20         1.8582   53.0000   26.4820 C.3       1 UNK         0.0000 
     21 C21        -1.3184   50.9989   27.4490 C.3       1 UNK         0.0000 
     22 H22        -0.7581   50.0984   27.6809 H         1 UNK         0.0000 
     23 C23        -2.4902   51.0924   28.4530 C.3       1 UNK         0.0000 
     24 C24        -1.8556   50.8526   26.0064 C.2       1 UNK         0.0000 
     25 O25        -2.5957   51.7111   25.5238 O.2       1 UNK         0.0000 
     26 N26        -1.3881   49.8096   25.2992 N.am      1 UNK         0.0000 
     27 C27        -1.5760   49.6117   23.8605 C.3       1 UNK         0.0000 
     28 C28        -0.8034   50.6238   22.9674 C.3       1 UNK         0.0000 
     29 N29         0.6636   50.6151   23.1163 N.3       1 UNK         0.0000 
     30 C30         1.3364   49.3518   22.7888 C.3       1 UNK         0.0000 
     31 C31         1.5432   49.1420   21.2699 C.3       1 UNK         0.0000 
     32 N32         2.2661   50.3676   20.6648 N.4       1 UNK         0.0000 
     33 C33         1.5116   51.6761   20.9887 C.3       1 UNK         0.0000 
     34 C34         1.3019   51.7969   22.5190 C.3       1 UNK         0.0000 
     35 C35         2.4485   50.2028   19.1370 C.3       1 UNK         0.0000 
     36 C36         6.8971   53.6789   27.9249 C.3       1 UNK         0.0000 
     37 H37         5.3551   55.2572   18.4954 H         1 UNK         0.0000 
     38 H38         6.9078   56.0208   18.7651 H         1 UNK         0.0000 
     39 H39         6.8173   54.2658   18.5111 H         1 UNK         0.0000 
     40 H40         4.4216   53.6398   20.2285 H         1 UNK         0.0000 
     41 H41         4.1198   53.2894   22.6454 H         1 UNK         0.0000 
     42 H42         7.5053   55.7845   23.4463 H         1 UNK         0.0000 
     43 H43         7.8507   56.1051   21.0236 H         1 UNK         0.0000 
     44 H44         0.7411   54.5449   28.7936 H         1 UNK         0.0000 
     45 H45         1.8147   53.6077   29.8830 H         1 UNK         0.0000 
     46 H46        -0.4165   52.5709   29.6647 H         1 UNK         0.0000 
     47 H47         0.8676   51.5045   29.2852 H         1 UNK         0.0000 
     48 H48        -0.7320   53.0693   27.1874 H         1 UNK         0.0000 
     49 H49         1.5027   50.9267   27.0606 H         1 UNK         0.0000 
     50 H50         0.6703   51.4964   25.6809 H         1 UNK         0.0000 
     51 H51         1.3387   53.7705   25.9109 H         1 UNK         0.0000 
     52 H52         2.6811   52.5524   25.9268 H         1 UNK         0.0000 
     53 H53        -3.1204   50.2004   28.3961 H         1 UNK         0.0000 
     54 H54        -2.1414   51.1439   29.4827 H         1 UNK         0.0000 
     55 H55        -3.1284   51.9528   28.2585 H         1 UNK         0.0000 
     56 H56        -0.8581   49.1102   25.7989 H         1 UNK         0.0000 
     57 H57        -2.6407   49.6581   23.6247 H         1 UNK         0.0000 
     58 H58        -1.2698   48.5926   23.6340 H         1 UNK         0.0000 
     59 H59        -1.1823   51.6225   23.1894 H         1 UNK         0.0000 
     60 H60        -1.0492   50.4318   21.9224 H         1 UNK         0.0000 
     61 H61         0.8776   48.4983   23.2843 H         1 UNK         0.0000 
     62 H62         2.3280   49.4462   23.2371 H         1 UNK         0.0000 
     63 H63         2.2190   48.3021   21.0968 H         1 UNK         0.0000 
     64 H64         0.6059   48.9911   20.7306 H         1 UNK         0.0000 
     65 H65         2.1524   52.4840   20.6297 H         1 UNK         0.0000 
     66 H66         0.5709   51.6746   20.4354 H         1 UNK         0.0000 
     67 H67         2.2906   51.8333   22.9804 H         1 UNK         0.0000 
     68 H68         0.7996   52.7216   22.8042 H         1 UNK         0.0000 
     69 H69         1.4656   50.2477   18.6625 H         1 UNK         0.0000 
     70 H70         3.0975   51.0081   18.7821 H         1 UNK         0.0000 
     71 H71         2.9167   49.2362   18.9476 H         1 UNK         0.0000 
     72 H72         6.4095   53.5066   28.8821 H         1 UNK         0.0000 
     73 H73         7.4817   52.7843   27.7105 H         1 UNK         0.0000 
     74 H74         7.6004   54.4955   28.0774 H         1 UNK         0.0000 
     75 H75         3.1766   50.4219   21.1021 H         1 UNK         0.0000 
@<TRIPOS>BOND
     1    1    2 1    
     2    1   37 1    
     3    1   38 1    
     4    1   39 1    
     5    2    7 ar   
     6    2    3 ar   
     7    3    4 ar   
     8    3   40 1    
     9    4    5 ar   
    10    4   41 1    
    11    5    6 ar   
    12    5    8 1    
    13    6    7 ar   
    14    6   42 1    
    15    7   43 1    
    16    8   12 1    
    17    8    9 2    
    18    9   10 1    
    19   10   11 2    
    20   10   36 1    
    21   11   12 1    
    22   11   13 1    
    23   13   14 2    
    24   13   15 am   BACKBONE|DICT|INTERRES
    25   15   20 1    
    26   15   16 1    
    27   16   17 1    
    28   16   44 1    
    29   16   45 1    
    30   17   18 1    
    31   17   46 1    
    32   17   47 1    
    33   18   19 1    
    34   18   21 1    
    35   18   48 1    
    36   19   20 1    
    37   19   49 1    
    38   19   50 1    
    39   20   51 1    
    40   20   52 1    
    41   21   22 1    
    42   21   23 1    
    43   21   24 1    
    44   23   53 1    
    45   23   54 1    
    46   23   55 1    
    47   24   25 2    
    48   24   26 am   BACKBONE|DICT|INTERRES
    49   26   27 1    
    50   26   56 1    
    51   27   28 1    
    52   27   57 1    
    53   27   58 1    
    54   28   29 1    
    55   28   59 1    
    56   28   60 1    
    57   29   34 1    
    58   29   30 1    
    59   30   31 1    
    60   30   61 1    
    61   30   62 1    
    62   31   32 1    
    63   31   63 1    
    64   31   64 1    
    65   32   33 1    
    66   32   35 1    
    67   32   75 1    
    68   33   34 1    
    69   33   65 1    
    70   33   66 1    
    71   34   67 1    
    72   34   68 1    
    73   35   69 1    
    74   35   70 1    
    75   35   71 1    
    76   36   72 1    
    77   36   73 1    
    78   36   74 1    
@<TRIPOS>SUBSTRUCTURE
     1 UNK         1 GROUP             0       ****    0 ROOT    
