@<TRIPOS>MOLECULE
ZINC39656844_377
67   70    1
SMALL
USER_CHARGES


@<TRIPOS>ATOM
      1 C1          4.1749   52.5170   15.4281 C.3       1 UNK         0.0000 
      2 C2          4.0792   53.6705   16.4441 C.3       1 UNK         0.0000 
      3 H3          4.6471   54.4995   16.0131 H         1 UNK         0.0000 
      4 C4          2.6353   54.1369   16.6771 C.ar      1 UNK         0.0000 
      5 C5          1.6369   53.2176   17.0238 C.ar      1 UNK         0.0000 
      6 C6          0.3406   53.6548   17.2834 C.ar      1 UNK         0.0000 
      7 C7          0.0376   55.0132   17.2032 C.ar      1 UNK         0.0000 
      8 C8          1.0183   55.9332   16.8323 C.ar      1 UNK         0.0000 
      9 C9          2.3116   55.4960   16.5620 C.ar      1 UNK         0.0000 
     10 Br10       -1.7070   55.6235   17.6623 Br        1 UNK         0.0000 
     11 N11         4.7444   53.2970   17.6958 N.am      1 UNK         0.0000 
     12 C12         5.0095   54.1411   18.7100 C.2       1 UNK         0.0000 
     13 O13         4.8240   55.3552   18.6312 O.2       1 UNK         0.0000 
     14 C14         5.5037   53.4673   20.0174 C.3       1 UNK         0.0000 
     15 H15         6.3036   52.8065   19.6845 H         1 UNK         0.0000 
     16 C16         6.0458   54.5612   20.9876 C.3       1 UNK         0.0000 
     17 N17         5.6814   54.0841   22.3280 N.am      1 UNK         0.0000 
     18 C18         4.9393   52.8338   22.2818 C.3       1 UNK         0.0000 
     19 C19         4.4087   52.7270   20.8529 C.3       1 UNK         0.0000 
     20 C20         4.1599   51.2811   20.3837 C.3       1 UNK         0.0000 
     21 C21         3.1393   50.5163   21.2547 C.3       1 UNK         0.0000 
     22 N22         1.7973   51.2738   21.1924 N.4       1 UNK         0.0000 
     23 C23         1.9154   52.7510   21.6177 C.3       1 UNK         0.0000 
     24 C24         3.0233   53.4105   20.7665 C.3       1 UNK         0.0000 
     25 C25         6.0009   54.7520   23.4635 C.2       1 UNK         0.0000 
     26 O26         6.7868   55.6949   23.4734 O.2       1 UNK         0.0000 
     27 C27         5.2805   54.4045   24.7485 C.ar      1 UNK         0.0000 
     28 C28         3.8829   54.3752   24.7988 C.ar      1 UNK         0.0000 
     29 C29         3.2209   54.0967   25.9920 C.ar      1 UNK         0.0000 
     30 C30         3.9385   53.8841   27.1775 C.ar      1 UNK         0.0000 
     31 C31         5.3409   53.9393   27.1463 C.ar      1 UNK         0.0000 
     32 C32         5.9993   54.1972   25.9277 C.ar      1 UNK         0.0000 
     33 O33         5.9986   53.7391   28.3436 O.3       1 UNK         0.0000 
     34 C34         7.4155   53.6972   28.3553 C.3       1 UNK         0.0000 
     35 O35         3.3386   53.6239   28.3981 O.3       1 UNK         0.0000 
     36 C36         1.9190   53.5452   28.4839 C.3       1 UNK         0.0000 
     37 H37         3.7229   52.7947   14.4763 H         1 UNK         0.0000 
     38 H38         5.2145   52.2550   15.2296 H         1 UNK         0.0000 
     39 H39         3.6790   51.6130   15.7843 H         1 UNK         0.0000 
     40 H40         1.8722   52.1677   17.1199 H         1 UNK         0.0000 
     41 H41        -0.4208   52.9466   17.5702 H         1 UNK         0.0000 
     42 H42         0.7836   56.9872   16.7784 H         1 UNK         0.0000 
     43 H43         3.0724   56.2176   16.3039 H         1 UNK         0.0000 
     44 H44         5.0035   52.3189   17.7902 H         1 UNK         0.0000 
     45 H45         7.1183   54.7195   20.8721 H         1 UNK         0.0000 
     46 H46         5.5010   55.5007   20.8814 H         1 UNK         0.0000 
     47 H47         4.1380   52.7178   22.9969 H         1 UNK         0.0000 
     48 H48         5.6529   52.0274   22.4499 H         1 UNK         0.0000 
     49 H49         3.8509   51.2741   19.3377 H         1 UNK         0.0000 
     50 H50         5.1033   50.7463   20.4294 H         1 UNK         0.0000 
     51 H51         2.9450   49.5113   20.8767 H         1 UNK         0.0000 
     52 H52         3.4143   50.4571   22.3080 H         1 UNK         0.0000 
     53 H53         1.4699   51.2449   20.2324 H         1 UNK         0.0000 
     54 H54         0.9434   53.2094   21.4269 H         1 UNK         0.0000 
     55 H55         2.0942   52.7655   22.6918 H         1 UNK         0.0000 
     56 H56         3.1131   54.4474   21.0886 H         1 UNK         0.0000 
     57 H57         2.6969   53.4533   19.7288 H         1 UNK         0.0000 
     58 H58         3.2974   54.5827   23.9154 H         1 UNK         0.0000 
     59 H59         2.1422   54.0788   25.9795 H         1 UNK         0.0000 
     60 H60         7.0771   54.2354   25.8776 H         1 UNK         0.0000 
     61 H61         7.7744   53.6977   29.3799 H         1 UNK         0.0000 
     62 H62         7.7694   52.7885   27.8659 H         1 UNK         0.0000 
     63 H63         7.8668   54.5642   27.8760 H         1 UNK         0.0000 
     64 H64         1.6317   53.3341   29.5145 H         1 UNK         0.0000 
     65 H65         1.4475   54.4878   28.1992 H         1 UNK         0.0000 
     66 H66         1.5239   52.7399   27.8614 H         1 UNK         0.0000 
     67 H67         1.0984   50.7976   21.7511 H         1 UNK         0.0000 
@<TRIPOS>BOND
     1    1    2 1    
     2    1   37 1    
     3    1   38 1    
     4    1   39 1    
     5    2    3 1    
     6    2    4 1    
     7    2   11 1    
     8    4    9 ar   
     9    4    5 ar   
    10    5    6 ar   
    11    5   40 1    
    12    6    7 ar   
    13    6   41 1    
    14    7    8 ar   
    15    7   10 1    
    16    8    9 ar   
    17    8   42 1    
    18    9   43 1    
    19   11   12 am   BACKBONE|DICT|INTERRES
    20   11   44 1    
    21   12   13 2    
    22   12   14 1    
    23   14   15 1    
    24   14   19 1    
    25   14   16 1    
    26   16   17 1    
    27   16   45 1    
    28   16   46 1    
    29   17   18 1    
    30   17   25 am   BACKBONE|DICT|INTERRES
    31   18   19 1    
    32   18   47 1    
    33   18   48 1    
    34   19   24 1    
    35   19   20 1    
    36   20   21 1    
    37   20   49 1    
    38   20   50 1    
    39   21   22 1    
    40   21   51 1    
    41   21   52 1    
    42   22   23 1    
    43   22   53 1    
    44   22   67 1    
    45   23   24 1    
    46   23   54 1    
    47   23   55 1    
    48   24   56 1    
    49   24   57 1    
    50   25   26 2    
    51   25   27 1    
    52   27   32 ar   
    53   27   28 ar   
    54   28   29 ar   
    55   28   58 1    
    56   29   30 ar   
    57   29   59 1    
    58   30   31 ar   
    59   30   35 1    
    60   31   32 ar   
    61   31   33 1    
    62   32   60 1    
    63   33   34 1    
    64   34   61 1    
    65   34   62 1    
    66   34   63 1    
    67   35   36 1    
    68   36   64 1    
    69   36   65 1    
    70   36   66 1    
@<TRIPOS>SUBSTRUCTURE
     1 UNK         1 GROUP             0       ****    0 ROOT    
