ZINC22681508_726
                    3D
 Schrodinger Suite 2024-2.
 65 68  0  0  1  0            999 V2000
    6.3243   52.3546   12.4421 C   0  0  0  0  0  0
    6.2564   52.9220   13.8723 C   0  0  2  0  0  0
    6.9652   51.9963   14.8743 C   0  0  0  0  0  0
    6.9975   52.6167   16.2836 C   0  0  0  0  0  0
    5.5407   52.8967   16.7455 N   0  3  2  0  0  0
    4.7467   53.7653   15.7275 C   0  0  0  0  0  0
    4.7994   53.0880   14.3469 C   0  0  0  0  0  0
    5.4969   53.3971   18.2215 C   0  0  2  0  0  0
    6.1609   52.6824   18.7130 H   0  0  0  0  0  0
    4.0876   53.1500   18.8280 C   0  0  0  0  0  0
    3.9043   53.7356   20.1570 N   0  0  0  0  0  0
    4.2943   53.1810   21.3154 C   0  0  0  0  0  0
    4.7915   52.0560   21.3815 O   0  0  0  0  0  0
    4.1197   54.0492   22.5810 C   0  0  0  0  0  0
    2.8924   53.5860   23.3975 C   0  0  0  0  0  0
    2.7537   54.4963   24.6408 C   0  0  0  0  0  0
    3.9848   54.3537   25.4527 N   0  0  0  0  0  0
    5.2521   54.7371   24.7774 C   0  0  0  0  0  0
    5.3851   53.9313   23.4640 C   0  0  0  0  0  0
    4.0040   54.0966   26.7946 C   0  0  0  0  0  0
    5.0411   54.1737   27.4581 O   0  0  0  0  0  0
    2.7398   53.6987   27.5319 C   0  0  0  0  0  0
    1.9051   52.6765   27.0513 C   0  0  0  0  0  0
    0.8010   52.2502   27.7887 C   0  0  0  0  0  0
    0.5118   52.8454   29.0121 C   0  0  0  0  0  0
    1.3083   53.8802   29.4899 C   0  0  0  0  0  0
    2.4190   54.3034   28.7627 C   0  0  0  0  0  0
    3.1775   55.2973   29.2803 F   0  0  0  0  0  0
   -0.5301   52.4082   29.7459 F   0  0  0  0  0  0
    6.0499   54.8197   18.3376 C   0  0  0  0  0  0
    7.3426   55.2171   18.6857 C   0  0  0  0  0  0
    7.5471   56.5997   18.6974 C   0  0  0  0  0  0
    6.4002   57.3066   18.3856 C   0  0  0  0  0  0
    5.0679   56.2464   18.0835 S   0  0  0  0  0  0
    5.8568   51.3714   12.3756 H   0  0  0  0  0  0
    7.3595   52.2491   12.1130 H   0  0  0  0  0  0
    5.8273   53.0121   11.7293 H   0  0  0  0  0  0
    6.7461   53.8993   13.8827 H   0  0  0  0  0  0
    6.4824   51.0189   14.8829 H   0  0  0  0  0  0
    7.9846   51.7952   14.5383 H   0  0  0  0  0  0
    7.5537   53.5549   16.3233 H   0  0  0  0  0  0
    7.4171   51.8969   16.9903 H   0  0  0  0  0  0
    5.1923   54.7605   15.7105 H   0  0  0  0  0  0
    3.7141   53.8170   16.0671 H   0  0  0  0  0  0
    4.2471   53.6912   13.6257 H   0  0  0  0  0  0
    4.2806   52.1263   14.3541 H   0  0  0  0  0  0
    3.3055   53.5600   18.1918 H   0  0  0  0  0  0
    3.8948   52.0757   18.8694 H   0  0  0  0  0  0
    3.3306   54.5668   20.1950 H   0  0  0  0  0  0
    3.9738   55.0725   22.2338 H   0  0  0  0  0  0
    1.9722   53.7174   22.8257 H   0  0  0  0  0  0
    2.9797   52.5600   23.7572 H   0  0  0  0  0  0
    2.7047   55.5323   24.3118 H   0  0  0  0  0  0
    1.8259   54.3071   25.1768 H   0  0  0  0  0  0
    5.2276   55.8025   24.5603 H   0  0  0  0  0  0
    6.1347   54.5171   25.3815 H   0  0  0  0  0  0
    5.5578   52.8985   23.7648 H   0  0  0  0  0  0
    6.2616   54.3309   22.9509 H   0  0  0  0  0  0
    2.1276   52.1766   26.1202 H   0  0  0  0  0  0
    0.1827   51.4423   27.4273 H   0  0  0  0  0  0
    1.0728   54.3412   30.4371 H   0  0  0  0  0  0
    8.1288   54.5109   18.9103 H   0  0  0  0  0  0
    8.4995   57.0597   18.9215 H   0  0  0  0  0  0
    6.2716   58.3790   18.3123 H   0  0  0  0  0  0
    5.1030   51.9794   16.7715 H   0  0  0  0  0  0
  1  2  1  0  0  0
  1 35  1  0  0  0
  1 36  1  0  0  0
  1 37  1  0  0  0
  2  7  1  0  0  0
  2  3  1  0  0  0
  2 38  1  0  0  0
  3  4  1  0  0  0
  3 39  1  0  0  0
  3 40  1  0  0  0
  4  5  1  0  0  0
  4 41  1  0  0  0
  4 42  1  0  0  0
  5  6  1  0  0  0
  5  8  1  0  0  0
  5 65  1  0  0  0
  6  7  1  0  0  0
  6 43  1  0  0  0
  6 44  1  0  0  0
  7 45  1  0  0  0
  7 46  1  0  0  0
  8  9  1  0  0  0
  8 10  1  0  0  0
  8 30  1  0  0  0
 10 11  1  0  0  0
 10 47  1  0  0  0
 10 48  1  0  0  0
 11 12  1  0  0  0
 11 49  1  0  0  0
 12 13  2  0  0  0
 12 14  1  0  0  0
 14 19  1  0  0  0
 14 15  1  0  0  0
 14 50  1  0  0  0
 15 16  1  0  0  0
 15 51  1  0  0  0
 15 52  1  0  0  0
 16 17  1  0  0  0
 16 53  1  0  0  0
 16 54  1  0  0  0
 17 18  1  0  0  0
 17 20  1  0  0  0
 18 19  1  0  0  0
 18 55  1  0  0  0
 18 56  1  0  0  0
 19 57  1  0  0  0
 19 58  1  0  0  0
 20 21  2  0  0  0
 20 22  1  0  0  0
 22 27  2  0  0  0
 22 23  1  0  0  0
 23 24  2  0  0  0
 23 59  1  0  0  0
 24 25  1  0  0  0
 24 60  1  0  0  0
 25 26  2  0  0  0
 25 29  1  0  0  0
 26 27  1  0  0  0
 26 61  1  0  0  0
 27 28  1  0  0  0
 30 34  1  0  0  0
 30 31  2  0  0  0
 31 32  1  0  0  0
 31 62  1  0  0  0
 32 33  2  0  0  0
 32 63  1  0  0  0
 33 34  1  0  0  0
 33 64  1  0  0  0
M  CHG  1   5   1
M  END
> <i_i_glide_confnum>
102

> <i_i_glide_lignum>
727

> <i_i_glide_posenum>
26

> <i_i_glide_rotatable_bonds>
8

> <i_m_Source_File_Index>
4585

> <b_m_subgroup_collapsed>
0

> <r_i_docking_score>
-6.0029

> <r_i_glide_ecoul>
-4.77986

> <r_i_glide_eff_state_penalty>
0

> <r_i_glide_einternal>
4.0529

> <r_i_glide_emodel>
-60.1305

> <r_i_glide_energy>
-43.2678

> <r_i_glide_erotb>
0.713217

> <r_i_glide_esite>
-0.133689

> <r_i_glide_evdw>
-38.4879

> <r_i_glide_gscore>
-6.0029

> <r_i_glide_hbond>
-0.378509

> <r_i_glide_ligand_efficiency>
-0.181906

> <r_i_glide_ligand_efficiency_ln>
-1.33501

> <r_i_glide_ligand_efficiency_sa>
-0.58347

> <r_i_glide_lipo>
-2.34116

> <r_i_glide_metal>
0

> <r_i_glide_rewards>
-1.22139

> <s_i_glide_gridfile>
wee1_glide-grid

> <s_m_Source_File>
wee1_decoys_glide_SP.sdf

> <s_m_Source_Path>
/Users/zhangxujun/Desktop

> <s_m_entry_id>
4860

> <s_m_entry_name>
wee1_decoys_glide_SP.4585

> <s_m_subgroup_title>
wee1_decoys_glide_SP

> <s_m_subgroupid>
wee1_decoys_glide_SP


$$$$
