ZINC20478621_2017
                    3D
 Schrodinger Suite 2024-2.
 36 37  0  0  1  0            999 V2000
    4.2619   54.4975   26.5410 C   0  0  0  0  0  0
    3.1926   54.1699   27.3720 C   0  0  0  0  0  0
    3.4202   53.4312   28.5314 C   0  0  0  0  0  0
    4.7068   53.0242   28.8691 C   0  0  0  0  0  0
    5.7760   53.3547   28.0402 C   0  0  0  0  0  0
    5.5577   54.0867   26.8709 C   0  0  0  0  0  0
    6.6660   54.3514   26.0494 N   0  0  0  0  0  0
    6.7562   55.3507   24.9999 C   0  0  0  0  0  0
    6.3027   54.8971   23.5970 C   0  0  0  0  0  0
    6.7054   55.5468   22.6308 O   0  0  0  0  0  0
    5.4403   53.8503   23.5277 N   0  0  0  0  0  0
    4.7286   53.2965   22.4835 N   0  0  0  0  0  0
    4.7012   53.7879   21.2990 C   0  0  0  0  0  0
    3.9503   53.1779   20.1745 C   0  0  0  0  0  0
    3.2389   51.9906   20.4043 C   0  0  0  0  0  0
    2.4987   51.3857   19.4018 C   0  0  0  0  0  0
    2.4550   51.9559   18.1390 C   0  0  0  0  0  0
    3.1493   53.1401   17.8407 C   0  0  0  0  0  0
    3.9070   53.7502   18.8737 C   0  0  0  0  0  0
    4.5360   54.8391   18.6495 O   0  5  0  0  0  0
    3.0419   53.6841   16.4531 N   0  3  0  0  0  0
    3.6911   54.6640   16.0978 O   0  0  0  0  0  0
    2.2784   53.1192   15.6734 O   0  5  0  0  0  0
    1.6502   49.9166   19.7270 Cl  0  0  0  0  0  0
    1.8194   52.9121   29.7732 I   0  0  0  0  0  0
    4.0694   55.0632   25.6422 H   0  0  0  0  0  0
    2.1914   54.4813   27.1126 H   0  0  0  0  0  0
    4.8671   52.4399   29.7621 H   0  0  0  0  0  0
    6.7707   53.0259   28.3023 H   0  0  0  0  0  0
    7.5366   54.0031   26.4293 H   0  0  0  0  0  0
    6.1571   56.2317   25.2386 H   0  0  0  0  0  0
    7.7644   55.7558   24.8815 H   0  0  0  0  0  0
    5.2718   53.3710   24.4024 H   0  0  0  0  0  0
    5.2215   54.7014   21.0345 H   0  0  0  0  0  0
    3.2502   51.5185   21.3763 H   0  0  0  0  0  0
    1.8815   51.4455   17.3779 H   0  0  0  0  0  0
  1  6  2  0  0  0
  1  2  1  0  0  0
  1 26  1  0  0  0
  2  3  2  0  0  0
  2 27  1  0  0  0
  3  4  1  0  0  0
  3 25  1  0  0  0
  4  5  2  0  0  0
  4 28  1  0  0  0
  5  6  1  0  0  0
  5 29  1  0  0  0
  6  7  1  0  0  0
  7  8  1  0  0  0
  7 30  1  0  0  0
  8  9  1  0  0  0
  8 31  1  0  0  0
  8 32  1  0  0  0
  9 10  2  0  0  0
  9 11  1  0  0  0
 11 12  1  0  0  0
 11 33  1  0  0  0
 12 13  2  0  0  0
 13 14  1  0  0  0
 13 34  1  0  0  0
 14 19  2  0  0  0
 14 15  1  0  0  0
 15 16  2  0  0  0
 15 35  1  0  0  0
 16 17  1  0  0  0
 16 24  1  0  0  0
 17 18  2  0  0  0
 17 36  1  0  0  0
 18 19  1  0  0  0
 18 21  1  0  0  0
 19 20  1  0  0  0
 21 22  2  0  0  0
 21 23  1  0  0  0
M  CHG  3  20  -1  21   1  23  -1
M  END
> <i_i_glide_confnum>
30

> <i_i_glide_lignum>
2018

> <i_i_glide_posenum>
236

> <i_i_glide_rotatable_bonds>
7

> <i_m_Source_File_Index>
4889

> <b_m_subgroup_collapsed>
0

> <r_i_docking_score>
-4.35646

> <r_i_glide_ecoul>
0.259315

> <r_i_glide_eff_state_penalty>
0

> <r_i_glide_einternal>
11.3909

> <r_i_glide_emodel>
-47.7678

> <r_i_glide_energy>
-40.7686

> <r_i_glide_erotb>
0.450885

> <r_i_glide_esite>
-0.0149219

> <r_i_glide_evdw>
-41.0279

> <r_i_glide_gscore>
-4.35646

> <r_i_glide_hbond>
0

> <r_i_glide_ligand_efficiency>
-0.174258

> <r_i_glide_ligand_efficiency_ln>
-1.03261

> <r_i_glide_ligand_efficiency_sa>
-0.509535

> <r_i_glide_lipo>
-1.94139

> <r_i_glide_metal>
0

> <r_i_glide_rewards>
-0.83854

> <s_i_glide_gridfile>
wee1_glide-grid

> <s_m_Source_File>
wee1_decoys_glide_SP.sdf

> <s_m_Source_Path>
/Users/zhangxujun/Desktop

> <s_m_entry_id>
5164

> <s_m_entry_name>
wee1_decoys_glide_SP.4889

> <s_m_subgroup_title>
wee1_decoys_glide_SP

> <s_m_subgroupid>
wee1_decoys_glide_SP


$$$$
