@<TRIPOS>MOLECULE
ZINC65359919_6214
58   60    1
SMALL
USER_CHARGES


@<TRIPOS>ATOM
      1 C1          5.3807   54.0227   28.8819 C.3       1 UNK         0.0000 
      2 C2          5.1706   54.4250   27.4209 C.3       1 UNK         0.0000 
      3 C3          6.3893   54.0494   26.5721 C.3       1 UNK         0.0000 
      4 C4          6.2205   54.5530   25.1316 C.3       1 UNK         0.0000 
      5 N5          4.9397   53.9069   24.5231 N.4       1 UNK         0.0000 
      6 C6          3.6827   54.2207   25.3813 C.3       1 UNK         0.0000 
      7 C7          3.9266   53.7504   26.8249 C.3       1 UNK         0.0000 
      8 C8          4.6687   54.2322   23.0190 C.3       1 UNK         0.0000 
      9 C9          3.8734   53.0704   22.3769 C.3       1 UNK         0.0000 
     10 C10         5.9890   54.5330   22.2600 C.3       1 UNK         0.0000 
     11 N11         5.8375   54.6119   20.8059 N.am      1 UNK         0.0000 
     12 C12         5.9726   55.7252   20.0764 C.2       1 UNK         0.0000 
     13 O13         6.5766   56.7317   20.4625 O.2       1 UNK         0.0000 
     14 N14         5.2993   55.6030   18.9185 N.am      1 UNK         0.0000 
     15 C15         5.1042   56.5872   17.9416 C.ar      1 UNK         0.0000 
     16 C16         6.0623   57.5584   17.6189 C.ar      1 UNK         0.0000 
     17 C17         5.7878   58.4968   16.6272 C.ar      1 UNK         0.0000 
     18 C18         4.5647   58.4851   15.9591 C.ar      1 UNK         0.0000 
     19 C19         3.6066   57.5187   16.2770 C.ar      1 UNK         0.0000 
     20 C20         3.8881   56.5626   17.2565 C.ar      1 UNK         0.0000 
     21 S21         2.0263   57.4974   15.4331 S.o2      1 UNK         0.0000 
     22 O22         2.3096   57.3402   14.0025 O.2       1 UNK         0.0000 
     23 O23         1.1717   56.5364   16.1397 O.2       1 UNK         0.0000 
     24 N24         1.3137   59.0872   15.6817 N.pl3     1 UNK         0.0000 
     25 C25         1.7744   60.2675   14.9328 C.3       1 UNK         0.0000 
     26 C26         1.4127   60.3360   13.4618 C.3       1 UNK         0.0000 
     27 C27         0.6943   61.2146   14.4556 C.3       1 UNK         0.0000 
     28 H28         5.5004   52.9420   28.9861 H         1 UNK         0.0000 
     29 H29         4.5417   54.3317   29.5071 H         1 UNK         0.0000 
     30 H30         6.2795   54.4966   29.2810 H         1 UNK         0.0000 
     31 H31         5.0422   55.5028   27.3679 H         1 UNK         0.0000 
     32 H32         7.2892   54.4795   27.0134 H         1 UNK         0.0000 
     33 H33         6.5629   52.9714   26.5997 H         1 UNK         0.0000 
     34 H34         6.1248   55.6370   25.0560 H         1 UNK         0.0000 
     35 H35         7.0889   54.2115   24.5676 H         1 UNK         0.0000 
     36 H36         3.5009   55.2952   25.3142 H         1 UNK         0.0000 
     37 H37         2.8378   53.6730   24.9633 H         1 UNK         0.0000 
     38 H38         4.0203   52.6656   26.8818 H         1 UNK         0.0000 
     39 H39         3.0540   53.9754   27.4398 H         1 UNK         0.0000 
     40 H40         4.0278   55.1155   23.0345 H         1 UNK         0.0000 
     41 H41         3.4623   53.3755   21.4132 H         1 UNK         0.0000 
     42 H42         4.5051   52.2028   22.1841 H         1 UNK         0.0000 
     43 H43         3.0242   52.7445   22.9765 H         1 UNK         0.0000 
     44 H44         6.4360   55.4567   22.6396 H         1 UNK         0.0000 
     45 H45         6.7073   53.7430   22.4793 H         1 UNK         0.0000 
     46 H46         5.6238   53.7516   20.3210 H         1 UNK         0.0000 
     47 H47         4.7476   54.7661   18.7981 H         1 UNK         0.0000 
     48 H48         7.0147   57.5922   18.1253 H         1 UNK         0.0000 
     49 H49         6.5176   59.2591   16.3912 H         1 UNK         0.0000 
     50 H50         4.3661   59.2296   15.2036 H         1 UNK         0.0000 
     51 H51         3.1490   55.8100   17.4982 H         1 UNK         0.0000 
     52 H52         1.0207   59.2813   16.6512 H         1 UNK         0.0000 
     53 H53         2.7043   60.7155   15.2804 H         1 UNK         0.0000 
     54 H54         2.1397   60.7772   12.7791 H         1 UNK         0.0000 
     55 H55         0.8845   59.4927   13.0137 H         1 UNK         0.0000 
     56 H56        -0.3438   60.9927   14.7057 H         1 UNK         0.0000 
     57 H57         0.9060   62.2829   14.4741 H         1 UNK         0.0000 
     58 H58         5.0863   52.9067   24.5782 H         1 UNK         0.0000 
@<TRIPOS>BOND
     1    1    2 1    
     2    1   28 1    
     3    1   29 1    
     4    1   30 1    
     5    2    7 1    
     6    2    3 1    
     7    2   31 1    
     8    3    4 1    
     9    3   32 1    
    10    3   33 1    
    11    4    5 1    
    12    4   34 1    
    13    4   35 1    
    14    5    6 1    
    15    5    8 1    
    16    5   58 1    
    17    6    7 1    
    18    6   36 1    
    19    6   37 1    
    20    7   38 1    
    21    7   39 1    
    22    8    9 1    
    23    8   10 1    
    24    8   40 1    
    25    9   41 1    
    26    9   42 1    
    27    9   43 1    
    28   10   11 1    
    29   10   44 1    
    30   10   45 1    
    31   11   12 am   BACKBONE|DICT|INTERRES
    32   11   46 1    
    33   12   13 2    
    34   12   14 am   BACKBONE|DICT|INTERRES
    35   14   15 1    
    36   14   47 1    
    37   15   20 ar   
    38   15   16 ar   
    39   16   17 ar   
    40   16   48 1    
    41   17   18 ar   
    42   17   49 1    
    43   18   19 ar   
    44   18   50 1    
    45   19   20 ar   
    46   19   21 1    
    47   20   51 1    
    48   21   22 2    
    49   21   23 2    
    50   21   24 1    
    51   24   25 1    
    52   24   52 1    
    53   25   27 1    
    54   25   26 1    
    55   25   53 1    
    56   26   27 1    
    57   26   54 1    
    58   26   55 1    
    59   27   56 1    
    60   27   57 1    
@<TRIPOS>SUBSTRUCTURE
     1 UNK         1 GROUP             0       ****    0 ROOT    
