ZINC02852761_5374
                    3D
 Schrodinger Suite 2024-2.
 67 70  0  0  1  0            999 V2000
    0.6247   52.8893   31.4521 C   0  0  0  0  0  0
    0.1253   52.5707   30.0566 C   0  0  0  0  0  0
   -0.8952   51.6390   29.8691 C   0  0  0  0  0  0
   -1.3216   51.2993   28.5840 C   0  0  0  0  0  0
   -0.7550   51.9458   27.4817 C   0  0  0  0  0  0
    0.2615   52.8821   27.6754 C   0  0  0  0  0  0
    0.7084   53.1904   28.9546 C   0  0  0  0  0  0
   -1.3347   51.6031   25.8125 S   0  0  0  0  0  0
   -1.6967   52.8906   25.2082 O   0  0  0  0  0  0
   -2.3262   50.5240   25.8835 O   0  0  0  0  0  0
    0.0702   50.9699   24.9125 N   0  0  0  0  0  0
    0.5827   49.6909   25.4004 C   0  0  0  0  0  0
    0.0932   51.1145   23.5070 C   0  0  0  0  0  0
   -0.6927   50.2440   22.7385 C   0  0  0  0  0  0
   -0.6924   50.3186   21.3481 C   0  0  0  0  0  0
    0.0912   51.2686   20.7031 C   0  0  0  0  0  0
    0.8652   52.1524   21.4472 C   0  0  0  0  0  0
    0.8747   52.1005   22.8509 C   0  0  0  0  0  0
    1.6992   53.1082   23.6150 C   0  0  0  0  0  0
    1.2175   53.6971   24.5747 O   0  0  0  0  0  0
    2.9534   53.2955   23.1620 N   0  0  0  0  0  0
    4.0485   53.9655   23.7543 C   0  0  0  0  0  0
    4.0773   54.2895   25.1237 C   0  0  0  0  0  0
    5.1929   54.8995   25.6904 C   0  0  0  0  0  0
    6.3037   55.1850   24.9043 C   0  0  0  0  0  0
    6.3028   54.8613   23.5516 C   0  0  0  0  0  0
    5.1795   54.2599   22.9532 C   0  0  0  0  0  0
    5.1999   53.9757   21.4661 C   0  0  0  0  0  0
    4.7082   52.9443   21.0043 O   0  0  0  0  0  0
    5.7580   54.9329   20.7072 N   0  0  0  0  0  0
    5.8870   54.9322   19.2513 C   0  0  1  0  0  0
    6.3809   54.0030   18.9531 H   0  0  0  0  0  0
    4.5156   54.9541   18.5360 C   0  0  0  0  0  0
    6.8268   56.0716   18.8440 C   0  0  0  0  0  0
    6.3359   57.3197   18.4387 C   0  0  0  0  0  0
    7.2161   58.3312   18.0624 C   0  0  0  0  0  0
    8.5888   58.0945   18.0814 C   0  0  0  0  0  0
    9.0892   56.8569   18.4786 C   0  0  0  0  0  0
    8.2094   55.8474   18.8603 C   0  0  0  0  0  0
    0.3059   52.1383   32.1739 H   0  0  0  0  0  0
    1.7147   52.8967   31.4717 H   0  0  0  0  0  0
    0.2687   53.8672   31.7772 H   0  0  0  0  0  0
   -1.3370   51.1409   30.7258 H   0  0  0  0  0  0
   -2.0948   50.5544   28.4542 H   0  0  0  0  0  0
    0.7078   53.3771   26.8354 H   0  0  0  0  0  0
    1.5039   53.9111   29.0851 H   0  0  0  0  0  0
    1.5026   49.4072   24.8880 H   0  0  0  0  0  0
    0.7927   49.7427   26.4703 H   0  0  0  0  0  0
   -0.1462   48.8942   25.2471 H   0  0  0  0  0  0
   -1.3067   49.4995   23.2254 H   0  0  0  0  0  0
   -1.2983   49.6346   20.7727 H   0  0  0  0  0  0
    0.0961   51.3249   19.6241 H   0  0  0  0  0  0
    1.4482   52.8945   20.9154 H   0  0  0  0  0  0
    3.1842   52.8592   22.2775 H   0  0  0  0  0  0
    3.2515   54.0560   25.7758 H   0  0  0  0  0  0
    5.1997   55.1397   26.7446 H   0  0  0  0  0  0
    7.1690   55.6556   25.3431 H   0  0  0  0  0  0
    7.1894   55.0896   22.9739 H   0  0  0  0  0  0
    6.2080   55.6960   21.1824 H   0  0  0  0  0  0
    4.6364   55.0510   17.4570 H   0  0  0  0  0  0
    3.9573   54.0332   18.7142 H   0  0  0  0  0  0
    3.8900   55.7753   18.8810 H   0  0  0  0  0  0
    5.2748   57.5213   18.4142 H   0  0  0  0  0  0
    6.8325   59.2934   17.7491 H   0  0  0  0  0  0
    9.2695   58.8781   17.7841 H   0  0  0  0  0  0
   10.1564   56.6781   18.4928 H   0  0  0  0  0  0
    8.6075   54.8912   19.1701 H   0  0  0  0  0  0
  1  2  1  0  0  0
  1 40  1  0  0  0
  1 41  1  0  0  0
  1 42  1  0  0  0
  2  7  2  0  0  0
  2  3  1  0  0  0
  3  4  2  0  0  0
  3 43  1  0  0  0
  4  5  1  0  0  0
  4 44  1  0  0  0
  5  6  2  0  0  0
  5  8  1  0  0  0
  6  7  1  0  0  0
  6 45  1  0  0  0
  7 46  1  0  0  0
  8  9  2  0  0  0
  8 10  2  0  0  0
  8 11  1  0  0  0
 11 12  1  0  0  0
 11 13  1  0  0  0
 12 47  1  0  0  0
 12 48  1  0  0  0
 12 49  1  0  0  0
 13 18  2  0  0  0
 13 14  1  0  0  0
 14 15  2  0  0  0
 14 50  1  0  0  0
 15 16  1  0  0  0
 15 51  1  0  0  0
 16 17  2  0  0  0
 16 52  1  0  0  0
 17 18  1  0  0  0
 17 53  1  0  0  0
 18 19  1  0  0  0
 19 20  2  0  0  0
 19 21  1  0  0  0
 21 22  1  0  0  0
 21 54  1  0  0  0
 22 27  2  0  0  0
 22 23  1  0  0  0
 23 24  2  0  0  0
 23 55  1  0  0  0
 24 25  1  0  0  0
 24 56  1  0  0  0
 25 26  2  0  0  0
 25 57  1  0  0  0
 26 27  1  0  0  0
 26 58  1  0  0  0
 27 28  1  0  0  0
 28 29  2  0  0  0
 28 30  1  0  0  0
 30 31  1  0  0  0
 30 59  1  0  0  0
 31 32  1  0  0  0
 31 33  1  0  0  0
 31 34  1  0  0  0
 33 60  1  0  0  0
 33 61  1  0  0  0
 33 62  1  0  0  0
 34 39  2  0  0  0
 34 35  1  0  0  0
 35 36  2  0  0  0
 35 63  1  0  0  0
 36 37  1  0  0  0
 36 64  1  0  0  0
 37 38  2  0  0  0
 37 65  1  0  0  0
 38 39  1  0  0  0
 38 66  1  0  0  0
 39 67  1  0  0  0
M  END
> <i_i_glide_confnum>
259

> <i_i_glide_lignum>
5375

> <i_i_glide_posenum>
126

> <i_i_glide_rotatable_bonds>
10

> <i_m_Source_File_Index>
2517

> <b_m_subgroup_collapsed>
0

> <r_i_docking_score>
-3.5724

> <r_i_glide_ecoul>
-3.92412

> <r_i_glide_eff_state_penalty>
0

> <r_i_glide_einternal>
7.35562

> <r_i_glide_emodel>
-55.5119

> <r_i_glide_energy>
-52.4611

> <r_i_glide_erotb>
0.665837

> <r_i_glide_esite>
-0.0742497

> <r_i_glide_evdw>
-48.537

> <r_i_glide_gscore>
-3.5724

> <r_i_glide_hbond>
0

> <r_i_glide_ligand_efficiency>
-0.0940106

> <r_i_glide_ligand_efficiency_ln>
-0.770315

> <r_i_glide_ligand_efficiency_sa>
-0.316061

> <r_i_glide_lipo>
-2.28079

> <r_i_glide_metal>
0

> <r_i_glide_rewards>
1.13226

> <s_i_glide_gridfile>
wee1_glide-grid

> <s_m_Source_File>
wee1_decoys_glide_SP.sdf

> <s_m_Source_Path>
/Users/zhangxujun/Desktop

> <s_m_entry_id>
2792

> <s_m_entry_name>
wee1_decoys_glide_SP.2517

> <s_m_subgroup_title>
wee1_decoys_glide_SP

> <s_m_subgroupid>
wee1_decoys_glide_SP


$$$$
