@<TRIPOS>MOLECULE
ZINC20978075_4829
55   58    1
SMALL
USER_CHARGES


@<TRIPOS>ATOM
      1 C1          7.0952   53.8688   24.2473 C.3       1 UNK         0.0000 
      2 C2          6.2144   54.1020   25.4618 C.ar      1 UNK         0.0000 
      3 C3          4.9645   54.6876   25.2833 C.ar      1 UNK         0.0000 
      4 C4          4.1182   54.8709   26.3705 C.ar      1 UNK         0.0000 
      5 C5          4.5188   54.4739   27.6480 C.ar      1 UNK         0.0000 
      6 C6          5.7849   53.9110   27.8320 C.ar      1 UNK         0.0000 
      7 C7          6.6256   53.7171   26.7398 C.ar      1 UNK         0.0000 
      8 C8          3.5944   54.6618   28.8494 C.3       1 UNK         0.0000 
      9 N9          2.4579   53.6182   29.0174 N.4       1 UNK         0.0000 
     10 C10         2.8599   52.1516   28.7836 C.3       1 UNK         0.0000 
     11 C11         1.5185   51.4604   28.5745 C.3       1 UNK         0.0000 
     12 C12         0.7108   52.4444   27.7300 C.3       1 UNK         0.0000 
     13 H13         1.0087   52.3009   26.6917 H         1 UNK         0.0000 
     14 C14         1.2084   53.8473   28.1381 C.3       1 UNK         0.0000 
     15 C15        -0.8191   52.3098   27.8711 C.3       1 UNK         0.0000 
     16 N16        -1.3728   51.0717   27.2811 N.pl3     1 UNK         0.0000 
     17 S17        -2.0776   51.0570   25.6731 S.o2      1 UNK         0.0000 
     18 O18        -2.8490   52.2915   25.4869 O.2       1 UNK         0.0000 
     19 O19        -2.6428   49.7311   25.4100 O.2       1 UNK         0.0000 
     20 C20        -0.5922   51.1957   24.6687 C.2       1 UNK         0.0000 
     21 C21         0.2553   50.1548   24.3178 C.2       1 UNK         0.0000 
     22 C22         1.3437   50.5915   23.5535 C.2       1 UNK         0.0000 
     23 C23         1.3533   51.9711   23.3425 C.2       1 UNK         0.0000 
     24 S24        -0.0394   52.7217   24.0756 S.3       1 UNK         0.0000 
     25 C25         2.3402   52.7747   22.6450 C.2       1 UNK         0.0000 
     26 C26         3.1994   52.3697   21.6212 C.2       1 UNK         0.0000 
     27 C27         3.9053   53.5042   21.2732 C.2       1 UNK         0.0000 
     28 O28         3.5028   54.5123   22.0824 O.3       1 UNK         0.0000 
     29 N29         2.5019   54.0489   22.9292 N.2       1 UNK         0.0000 
     30 C30         4.9451   53.8565   20.2319 C.3       1 UNK         0.0000 
     31 F31         5.9336   54.5699   20.7696 F         1 UNK         0.0000 
     32 F32         4.4120   54.5792   19.2488 F         1 UNK         0.0000 
     33 F33         5.4819   52.7659   19.6943 F         1 UNK         0.0000 
     34 H34         7.9035   53.1668   24.4426 H         1 UNK         0.0000 
     35 H35         6.5032   53.4451   23.4346 H         1 UNK         0.0000 
     36 H36         7.5034   54.8137   23.8903 H         1 UNK         0.0000 
     37 H37         4.6457   54.9902   24.2982 H         1 UNK         0.0000 
     38 H38         3.1463   55.2959   26.2022 H         1 UNK         0.0000 
     39 H39         6.1186   53.6053   28.8135 H         1 UNK         0.0000 
     40 H40         7.5825   53.2460   26.8922 H         1 UNK         0.0000 
     41 H41         3.1051   55.6383   28.8369 H         1 UNK         0.0000 
     42 H42         4.1615   54.5783   29.7785 H         1 UNK         0.0000 
     43 H43         3.4568   51.8058   29.6280 H         1 UNK         0.0000 
     44 H44         3.4710   52.1192   27.8814 H         1 UNK         0.0000 
     45 H45         1.0542   51.3055   29.5502 H         1 UNK         0.0000 
     46 H46         1.6113   50.4967   28.0791 H         1 UNK         0.0000 
     47 H47         1.5035   54.4209   27.2633 H         1 UNK         0.0000 
     48 H48         0.5119   54.4085   28.7622 H         1 UNK         0.0000 
     49 H49        -1.2959   53.1583   27.3808 H         1 UNK         0.0000 
     50 H50        -1.1117   52.3428   28.9223 H         1 UNK         0.0000 
     51 H51        -1.2789   50.1713   27.7731 H         1 UNK         0.0000 
     52 H52         0.0935   49.1250   24.6059 H         1 UNK         0.0000 
     53 H53         2.1131   49.9238   23.1917 H         1 UNK         0.0000 
     54 H54         3.2725   51.3934   21.1646 H         1 UNK         0.0000 
     55 H55         2.1415   53.6587   29.9756 H         1 UNK         0.0000 
@<TRIPOS>BOND
     1    1    2 1    
     2    1   34 1    
     3    1   35 1    
     4    1   36 1    
     5    2    7 ar   
     6    2    3 ar   
     7    3    4 ar   
     8    3   37 1    
     9    4    5 ar   
    10    4   38 1    
    11    5    6 ar   
    12    5    8 1    
    13    6    7 ar   
    14    6   39 1    
    15    7   40 1    
    16    8    9 1    
    17    8   41 1    
    18    8   42 1    
    19    9   14 1    
    20    9   10 1    
    21    9   55 1    
    22   10   11 1    
    23   10   43 1    
    24   10   44 1    
    25   11   12 1    
    26   11   45 1    
    27   11   46 1    
    28   12   13 1    
    29   12   14 1    
    30   12   15 1    
    31   14   47 1    
    32   14   48 1    
    33   15   16 1    
    34   15   49 1    
    35   15   50 1    
    36   16   17 1    
    37   16   51 1    
    38   17   18 2    
    39   17   19 2    
    40   17   20 1    
    41   20   24 1    
    42   20   21 2    
    43   21   22 1    
    44   21   52 1    
    45   22   23 2    
    46   22   53 1    
    47   23   24 1    
    48   23   25 1    
    49   25   29 2    
    50   25   26 1    
    51   26   27 2    
    52   26   54 1    
    53   27   28 1    
    54   27   30 1    
    55   28   29 1    
    56   30   31 1    
    57   30   32 1    
    58   30   33 1    
@<TRIPOS>SUBSTRUCTURE
     1 UNK         1 GROUP             0       ****    0 ROOT    
