@<TRIPOS>MOLECULE
ZINC37306742_1892
39   40    1
SMALL
USER_CHARGES


@<TRIPOS>ATOM
      1 C1          3.5094   53.7586   22.9234 C.3       1 UNK         0.0000 
      2 C2          2.0072   53.6776   22.5872 C.3       1 UNK         0.0000 
      3 H3          1.6971   54.5852   22.0817 H         1 UNK         0.0000 
      4 C4          1.7064   52.4967   21.6407 C.3       1 UNK         0.0000 
      5 C5          1.7846   51.1476   22.3712 C.3       1 UNK         0.0000 
      6 C6          0.9937   51.1431   23.6983 C.3       1 UNK         0.0000 
      7 N7          1.3382   52.2764   24.5780 N.pl3     1 UNK         0.0000 
      8 C8          1.1244   53.5379   23.8455 C.3       1 UNK         0.0000 
      9 C9          1.1044   52.2571   25.9503 C.ar      1 UNK         0.0000 
     10 C10         0.3280   51.2776   26.5643 C.ar      1 UNK         0.0000 
     11 C11         0.1260   51.2967   27.9372 C.ar      1 UNK         0.0000 
     12 C12         0.6703   52.2920   28.7789 C.ar      1 UNK         0.0000 
     13 C13         1.5025   53.2684   28.1573 C.ar      1 UNK         0.0000 
     14 C14         1.6974   53.2209   26.7672 C.ar      1 UNK         0.0000 
     15 C15         2.1853   54.4282   28.9118 C.3       1 UNK         0.0000 
     16 F16         1.3048   55.1158   29.6409 F         1 UNK         0.0000 
     17 F17         3.1581   53.9705   29.7008 F         1 UNK         0.0000 
     18 F18         2.7516   55.2967   28.0817 F         1 UNK         0.0000 
     19 C19         0.3407   52.2572   30.2441 C.2       1 UNK         0.0000 
     20 N20         1.1602   52.7110   31.1044 N.2       1 UNK         0.0000 
     21 O21         0.7044   52.7166   32.4460 O.3       1 UNK         0.0000 
     22 N22        -0.8956   51.6967   30.4817 N.pl3     1 UNK         0.0000 
     23 H23         3.8525   52.8967   23.4874 H         1 UNK         0.0000 
     24 H24         4.1142   53.8306   22.0189 H         1 UNK         0.0000 
     25 H25         3.7223   54.6422   23.5257 H         1 UNK         0.0000 
     26 H26         2.3849   52.5035   20.7861 H         1 UNK         0.0000 
     27 H27         0.7044   52.6197   21.2263 H         1 UNK         0.0000 
     28 H28         2.8173   50.8485   22.5474 H         1 UNK         0.0000 
     29 H29         1.3857   50.3684   21.7209 H         1 UNK         0.0000 
     30 H30         1.2470   50.2162   24.2156 H         1 UNK         0.0000 
     31 H31        -0.0825   51.1251   23.5180 H         1 UNK         0.0000 
     32 H32         0.0670   53.6457   23.5997 H         1 UNK         0.0000 
     33 H33         1.3456   54.3975   24.4771 H         1 UNK         0.0000 
     34 H34        -0.1373   50.4904   25.9896 H         1 UNK         0.0000 
     35 H35        -0.4859   50.4967   28.3287 H         1 UNK         0.0000 
     36 H36         2.3446   53.9439   26.2943 H         1 UNK         0.0000 
     37 H37        -0.1921   52.3402   32.4234 H         1 UNK         0.0000 
     38 H38        -1.2763   51.6092   31.4288 H         1 UNK         0.0000 
     39 H39        -1.3645   51.1716   29.7585 H         1 UNK         0.0000 
@<TRIPOS>BOND
     1    1    2 1    
     2    1   23 1    
     3    1   24 1    
     4    1   25 1    
     5    2    3 1    
     6    2    8 1    
     7    2    4 1    
     8    4    5 1    
     9    4   26 1    
    10    4   27 1    
    11    5    6 1    
    12    5   28 1    
    13    5   29 1    
    14    6    7 1    
    15    6   30 1    
    16    6   31 1    
    17    7    8 1    
    18    7    9 1    
    19    8   32 1    
    20    8   33 1    
    21    9   14 ar   
    22    9   10 ar   
    23   10   11 ar   
    24   10   34 1    
    25   11   12 ar   
    26   11   35 1    
    27   12   13 ar   
    28   12   19 1    
    29   13   14 ar   
    30   13   15 1    
    31   14   36 1    
    32   15   16 1    
    33   15   17 1    
    34   15   18 1    
    35   19   20 2    
    36   19   22 1    
    37   20   21 1    
    38   21   37 1    
    39   22   38 1    
    40   22   39 1    
@<TRIPOS>SUBSTRUCTURE
     1 UNK         1 GROUP             0       ****    0 ROOT    
