ZINC09789063_59
                    3D
 Schrodinger Suite 2024-2.
 54 58  0  0  1  0            999 V2000
    4.2812   53.4799   29.6986 C   0  0  0  0  0  0
    3.0192   53.6529   28.8177 C   0  0  1  0  0  0
    2.0979   52.4558   29.0028 C   0  0  0  0  0  0
    2.3045   51.3029   28.6263 O   0  0  0  0  0  0
    0.9714   52.9349   29.5734 N   0  0  0  0  0  0
    1.0323   54.2581   29.8678 C   0  0  0  0  0  0
    0.3047   54.8914   30.6270 O   0  0  0  0  0  0
    2.1842   54.6953   29.3452 N   0  0  0  0  0  0
   -0.2908   52.1536   29.5552 C   0  0  0  0  0  0
   -0.8954   52.0768   28.1355 C   0  0  0  0  0  0
   -0.5765   52.8966   27.2819 O   0  0  0  0  0  0
   -1.7425   51.0668   27.8907 N   0  0  0  0  0  0
   -2.3817   50.7062   26.6191 C   0  0  1  0  0  0
   -2.8410   49.7505   26.8815 H   0  0  0  0  0  0
   -3.5445   51.6264   26.2017 C   0  0  0  0  0  0
   -4.8607   51.1678   26.3457 C   0  0  0  0  0  0
   -5.9344   51.9605   25.9472 C   0  0  0  0  0  0
   -5.6987   53.2190   25.4002 C   0  0  0  0  0  0
   -4.3980   53.6923   25.2562 C   0  0  0  0  0  0
   -3.3268   52.8971   25.6566 C   0  0  0  0  0  0
   -1.3502   50.3240   25.5492 C   0  0  0  0  0  0
   -0.7505   49.0742   25.3714 C   0  0  0  0  0  0
    0.1637   48.9986   24.3210 C   0  0  0  0  0  0
    0.3053   50.1999   23.6565 C   0  0  0  0  0  0
   -0.7098   51.4207   24.3408 S   0  0  0  0  0  0
    3.3511   53.8265   27.3298 C   0  0  0  0  0  0
    2.6081   53.6958   26.1566 C   0  0  0  0  0  0
    3.5047   53.9112   25.0685 C   0  0  0  0  0  0
    3.4315   53.8641   23.6672 C   0  0  0  0  0  0
    4.5977   54.0969   22.9295 C   0  0  0  0  0  0
    5.8072   54.4129   23.5558 C   0  0  0  0  0  0
    5.9030   54.4965   24.9463 C   0  0  0  0  0  0
    4.7394   54.2262   25.6766 C   0  0  0  0  0  0
    4.6331   54.2060   27.0366 O   0  0  0  0  0  0
    4.9093   52.6659   29.3303 H   0  0  0  0  0  0
    4.8914   54.3850   29.6877 H   0  0  0  0  0  0
    4.0401   53.2609   30.7403 H   0  0  0  0  0  0
    2.3317   55.6614   29.0929 H   0  0  0  0  0  0
   -1.0121   52.5824   30.2491 H   0  0  0  0  0  0
   -0.0987   51.1409   29.9003 H   0  0  0  0  0  0
   -1.8089   50.3326   28.5880 H   0  0  0  0  0  0
   -5.0590   50.1911   26.7637 H   0  0  0  0  0  0
   -6.9459   51.5972   26.0570 H   0  0  0  0  0  0
   -6.5314   53.8289   25.0813 H   0  0  0  0  0  0
   -4.2163   54.6693   24.8330 H   0  0  0  0  0  0
   -2.3280   53.2876   25.5457 H   0  0  0  0  0  0
   -0.9656   48.2340   26.0186 H   0  0  0  0  0  0
    0.7052   48.0998   24.0702 H   0  0  0  0  0  0
    0.9486   50.4236   22.8183 H   0  0  0  0  0  0
    1.5657   53.4197   26.1036 H   0  0  0  0  0  0
    2.5030   53.6253   23.1693 H   0  0  0  0  0  0
    4.5605   54.0452   21.8499 H   0  0  0  0  0  0
    6.6844   54.5948   22.9502 H   0  0  0  0  0  0
    6.8348   54.7275   25.4382 H   0  0  0  0  0  0
  1  2  1  0  0  0
  1 35  1  0  0  0
  1 36  1  0  0  0
  1 37  1  0  0  0
  2  8  1  0  0  0
  2  3  1  0  0  0
  2 26  1  0  0  0
  3  4  2  0  0  0
  3  5  1  0  0  0
  5  6  1  0  0  0
  5  9  1  0  0  0
  6  7  2  0  0  0
  6  8  1  0  0  0
  8 38  1  0  0  0
  9 10  1  0  0  0
  9 39  1  0  0  0
  9 40  1  0  0  0
 10 11  2  0  0  0
 10 12  1  0  0  0
 12 13  1  0  0  0
 12 41  1  0  0  0
 13 14  1  0  0  0
 13 15  1  0  0  0
 13 21  1  0  0  0
 15 20  2  0  0  0
 15 16  1  0  0  0
 16 17  2  0  0  0
 16 42  1  0  0  0
 17 18  1  0  0  0
 17 43  1  0  0  0
 18 19  2  0  0  0
 18 44  1  0  0  0
 19 20  1  0  0  0
 19 45  1  0  0  0
 20 46  1  0  0  0
 21 25  1  0  0  0
 21 22  2  0  0  0
 22 23  1  0  0  0
 22 47  1  0  0  0
 23 24  2  0  0  0
 23 48  1  0  0  0
 24 25  1  0  0  0
 24 49  1  0  0  0
 26 34  1  0  0  0
 26 27  2  0  0  0
 27 28  1  0  0  0
 27 50  1  0  0  0
 28 33  2  0  0  0
 28 29  1  0  0  0
 29 30  2  0  0  0
 29 51  1  0  0  0
 30 31  1  0  0  0
 30 52  1  0  0  0
 31 32  2  0  0  0
 31 53  1  0  0  0
 32 33  1  0  0  0
 32 54  1  0  0  0
 33 34  1  0  0  0
M  END
> <i_i_glide_confnum>
49

> <i_i_glide_lignum>
60

> <i_i_glide_posenum>
72

> <i_i_glide_rotatable_bonds>
7

> <i_m_Source_File_Index>
1862

> <b_m_subgroup_collapsed>
0

> <r_i_docking_score>
-6.11027

> <r_i_glide_ecoul>
-3.86356

> <r_i_glide_eff_state_penalty>
0

> <r_i_glide_einternal>
4.82271

> <r_i_glide_emodel>
-64.3639

> <r_i_glide_energy>
-48.8718

> <r_i_glide_erotb>
0.667033

> <r_i_glide_esite>
-0.136922

> <r_i_glide_evdw>
-45.0082

> <r_i_glide_gscore>
-6.11027

> <r_i_glide_hbond>
-0.0977702

> <r_i_glide_ligand_efficiency>
-0.18516

> <r_i_glide_ligand_efficiency_ln>
-1.35889

> <r_i_glide_ligand_efficiency_sa>
-0.593906

> <r_i_glide_lipo>
-2.59556

> <r_i_glide_metal>
0

> <r_i_glide_rewards>
-1.11711

> <s_i_glide_gridfile>
wee1_glide-grid

> <s_m_Source_File>
wee1_decoys_glide_SP.sdf

> <s_m_Source_Path>
/Users/zhangxujun/Desktop

> <s_m_entry_id>
2137

> <s_m_entry_name>
wee1_decoys_glide_SP.1862

> <s_m_subgroup_title>
wee1_decoys_glide_SP

> <s_m_subgroupid>
wee1_decoys_glide_SP


$$$$
