@<TRIPOS>MOLECULE
ZINC39675252_391
77   80    1
SMALL
USER_CHARGES


@<TRIPOS>ATOM
      1 C1         -2.6258   50.0820   18.3597 C.3       1 UNK         0.0000 
      2 C2         -2.2812   49.1288   19.5214 C.3       1 UNK         0.0000 
      3 H3         -3.1868   49.0120   20.1229 H         1 UNK         0.0000 
      4 C4         -1.8960   47.7256   18.9876 C.3       1 UNK         0.0000 
      5 C5         -1.4165   46.6898   20.0354 C.3       1 UNK         0.0000 
      6 C6         -2.5184   46.1149   20.9202 C.ar      1 UNK         0.0000 
      7 C7         -2.9920   46.8358   22.0187 C.ar      1 UNK         0.0000 
      8 C8         -3.9605   46.2808   22.8498 C.ar      1 UNK         0.0000 
      9 C9         -4.4704   45.0072   22.5961 C.ar      1 UNK         0.0000 
     10 C10        -4.0040   44.2919   21.4822 C.ar      1 UNK         0.0000 
     11 C11        -3.0341   44.8443   20.6506 C.ar      1 UNK         0.0000 
     12 O12        -5.3955   44.5252   23.5000 O.3       1 UNK         0.0000 
     13 C13        -5.9648   43.2355   23.2984 C.3       1 UNK         0.0000 
     14 N14        -1.2293   49.6716   20.3843 N.am      1 UNK         0.0000 
     15 C15        -1.3327   50.7179   21.2200 C.2       1 UNK         0.0000 
     16 O16        -2.3260   51.4465   21.2692 O.2       1 UNK         0.0000 
     17 C17        -0.0765   50.9910   22.0854 C.3       1 UNK         0.0000 
     18 H18         0.8052   50.6242   21.5528 H         1 UNK         0.0000 
     19 C19         0.0779   52.4967   22.3291 C.3       1 UNK         0.0000 
     20 N20         0.9235   52.5568   23.5282 N.am      1 UNK         0.0000 
     21 C21         0.9476   51.2662   24.2303 C.3       1 UNK         0.0000 
     22 C22        -0.1160   50.3902   23.5171 C.3       1 UNK         0.0000 
     23 C23        -1.5096   50.5167   24.2184 C.3       1 UNK         0.0000 
     24 C24        -1.4863   50.0199   25.6788 C.3       1 UNK         0.0000 
     25 N25        -1.0189   48.5492   25.6817 N.4       1 UNK         0.0000 
     26 C26         0.3044   48.2954   24.9244 C.3       1 UNK         0.0000 
     27 C27         0.2012   48.8804   23.5089 C.3       1 UNK         0.0000 
     28 C28         1.8000   53.5832   23.6995 C.2       1 UNK         0.0000 
     29 O29         1.8737   54.4966   22.8821 O.2       1 UNK         0.0000 
     30 C30         2.7043   53.6362   24.9142 C.ar      1 UNK         0.0000 
     31 C31         2.1860   53.3876   26.1937 C.ar      1 UNK         0.0000 
     32 C32         2.9969   53.4826   27.3219 C.ar      1 UNK         0.0000 
     33 C33         4.3421   53.8221   27.2063 C.ar      1 UNK         0.0000 
     34 C34         4.8590   54.0965   25.9336 C.ar      1 UNK         0.0000 
     35 C35         4.0609   54.0087   24.7816 C.ar      1 UNK         0.0000 
     36 O36         4.5728   54.2214   23.5108 O.3       1 UNK         0.0000 
     37 C37         5.9591   54.4963   23.3280 C.3       1 UNK         0.0000 
     38 O38         5.0828   53.8620   28.3717 O.3       1 UNK         0.0000 
     39 C39         6.4861   54.0938   28.2830 C.3       1 UNK         0.0000 
     40 H40        -3.3695   49.6347   17.6996 H         1 UNK         0.0000 
     41 H41        -3.0510   51.0214   18.7137 H         1 UNK         0.0000 
     42 H42        -1.7509   50.2988   17.7463 H         1 UNK         0.0000 
     43 H43        -1.0899   47.8511   18.2624 H         1 UNK         0.0000 
     44 H44        -2.7312   47.3036   18.4271 H         1 UNK         0.0000 
     45 H45        -0.6280   47.1021   20.6658 H         1 UNK         0.0000 
     46 H46        -0.9304   45.8650   19.5106 H         1 UNK         0.0000 
     47 H47        -2.6147   47.8249   22.2289 H         1 UNK         0.0000 
     48 H48        -4.3229   46.8418   23.6990 H         1 UNK         0.0000 
     49 H49        -4.3781   43.3055   21.2524 H         1 UNK         0.0000 
     50 H50        -2.6791   44.2817   19.7980 H         1 UNK         0.0000 
     51 H51        -6.6733   43.0265   24.1002 H         1 UNK         0.0000 
     52 H52        -5.2054   42.4529   23.3183 H         1 UNK         0.0000 
     53 H53        -6.5097   43.1825   22.3542 H         1 UNK         0.0000 
     54 H54        -0.3489   49.1800   20.3567 H         1 UNK         0.0000 
     55 H55         0.4925   52.9703   21.4349 H         1 UNK         0.0000 
     56 H56        -0.8965   52.8965   22.6137 H         1 UNK         0.0000 
     57 H57         0.8925   51.2800   25.3148 H         1 UNK         0.0000 
     58 H58         1.9201   50.8268   24.0025 H         1 UNK         0.0000 
     59 H59        -1.8240   51.5610   24.2310 H         1 UNK         0.0000 
     60 H60        -2.2916   49.9936   23.6656 H         1 UNK         0.0000 
     61 H61        -0.8097   50.5663   26.3358 H         1 UNK         0.0000 
     62 H62        -2.4760   50.0170   26.1394 H         1 UNK         0.0000 
     63 H63        -0.9406   48.2503   26.6577 H         1 UNK         0.0000 
     64 H64         1.1040   48.7324   25.5241 H         1 UNK         0.0000 
     65 H65         0.4385   47.2158   24.8817 H         1 UNK         0.0000 
     66 H66        -0.5149   48.3238   22.9076 H         1 UNK         0.0000 
     67 H67         1.1648   48.7251   23.0210 H         1 UNK         0.0000 
     68 H68         1.1409   53.1526   26.3324 H         1 UNK         0.0000 
     69 H69         2.5804   53.2866   28.2988 H         1 UNK         0.0000 
     70 H70         5.8978   54.3612   25.8365 H         1 UNK         0.0000 
     71 H71         6.1633   54.6174   22.2644 H         1 UNK         0.0000 
     72 H72         6.2605   55.4207   23.8220 H         1 UNK         0.0000 
     73 H73         6.5815   53.6769   23.6902 H         1 UNK         0.0000 
     74 H74         6.9261   54.0967   29.2782 H         1 UNK         0.0000 
     75 H75         6.9842   53.3090   27.7114 H         1 UNK         0.0000 
     76 H76         6.7042   55.0599   27.8267 H         1 UNK         0.0000 
     77 H77        -1.7488   47.9755   25.2864 H         1 UNK         0.0000 
@<TRIPOS>BOND
     1    1    2 1    
     2    1   40 1    
     3    1   41 1    
     4    1   42 1    
     5    2    3 1    
     6    2    4 1    
     7    2   14 1    
     8    4    5 1    
     9    4   43 1    
    10    4   44 1    
    11    5    6 1    
    12    5   45 1    
    13    5   46 1    
    14    6   11 ar   
    15    6    7 ar   
    16    7    8 ar   
    17    7   47 1    
    18    8    9 ar   
    19    8   48 1    
    20    9   10 ar   
    21    9   12 1    
    22   10   11 ar   
    23   10   49 1    
    24   11   50 1    
    25   12   13 1    
    26   13   51 1    
    27   13   52 1    
    28   13   53 1    
    29   14   15 am   BACKBONE|DICT|INTERRES
    30   14   54 1    
    31   15   16 2    
    32   15   17 1    
    33   17   18 1    
    34   17   22 1    
    35   17   19 1    
    36   19   20 1    
    37   19   55 1    
    38   19   56 1    
    39   20   21 1    
    40   20   28 am   BACKBONE|DICT|INTERRES
    41   21   22 1    
    42   21   57 1    
    43   21   58 1    
    44   22   27 1    
    45   22   23 1    
    46   23   24 1    
    47   23   59 1    
    48   23   60 1    
    49   24   25 1    
    50   24   61 1    
    51   24   62 1    
    52   25   26 1    
    53   25   63 1    
    54   25   77 1    
    55   26   27 1    
    56   26   64 1    
    57   26   65 1    
    58   27   66 1    
    59   27   67 1    
    60   28   29 2    
    61   28   30 1    
    62   30   35 ar   
    63   30   31 ar   
    64   31   32 ar   
    65   31   68 1    
    66   32   33 ar   
    67   32   69 1    
    68   33   34 ar   
    69   33   38 1    
    70   34   35 ar   
    71   34   70 1    
    72   35   36 1    
    73   36   37 1    
    74   37   71 1    
    75   37   72 1    
    76   37   73 1    
    77   38   39 1    
    78   39   74 1    
    79   39   75 1    
    80   39   76 1    
@<TRIPOS>SUBSTRUCTURE
     1 UNK         1 GROUP             0       ****    0 ROOT    
