ZINC60241778_3847
                    3D
 Schrodinger Suite 2024-2.
 31 33  0  0  1  0            999 V2000
    3.0063   54.4659   28.5100 C   0  0  0  0  0  0
    3.1721   54.4967   27.1252 C   0  0  0  0  0  0
    2.4101   53.6629   26.3058 C   0  0  0  0  0  0
    1.5089   52.7537   26.8797 C   0  0  0  0  0  0
    1.3145   52.7630   28.2616 C   0  0  0  0  0  0
    2.0755   53.5982   29.0802 C   0  0  0  0  0  0
    0.3263   51.7117   28.6518 C   0  0  0  0  0  0
   -0.2538   51.2372   27.3087 C   0  0  2  0  0  0
   -0.2526   50.1476   27.2801 H   0  0  0  0  0  0
    0.6329   51.8251   26.2684 N   0  0  0  0  0  0
    0.7042   51.3836   24.9712 C   0  0  0  0  0  0
    1.4764   51.8361   24.1253 O   0  0  0  0  0  0
   -0.1856   50.3196   24.5763 C   0  0  0  0  0  0
   -0.0638   48.9854   25.0097 C   0  0  0  0  0  0
   -1.0824   48.1652   24.5509 C   0  0  0  0  0  0
   -2.2088   49.0254   23.5574 S   0  0  0  0  0  0
   -1.3164   50.4983   23.7722 C   0  0  0  0  0  0
   -1.8950   51.9449   23.0337 Cl  0  0  0  0  0  0
   -1.3115   46.4965   24.8815 Cl  0  0  0  0  0  0
   -1.7393   51.6472   27.1620 C   0  0  0  0  0  0
   -2.0969   52.5928   26.4653 O   0  0  0  0  0  0
   -2.6286   50.8968   27.8059 N   0  0  0  0  0  0
    3.6000   55.1154   29.1371 H   0  0  0  0  0  0
    3.8858   55.1762   26.6815 H   0  0  0  0  0  0
    2.5533   53.7236   25.2376 H   0  0  0  0  0  0
    1.9514   53.5760   30.1525 H   0  0  0  0  0  0
    0.8761   50.8966   29.1171 H   0  0  0  0  0  0
   -0.4190   52.0440   29.3790 H   0  0  0  0  0  0
    0.7294   48.6220   25.6496 H   0  0  0  0  0  0
   -2.3354   50.0080   28.2178 H   0  0  0  0  0  0
   -3.6097   51.1139   27.7376 H   0  0  0  0  0  0
  1  6  2  0  0  0
  1  2  1  0  0  0
  1 23  1  0  0  0
  2  3  2  0  0  0
  2 24  1  0  0  0
  3  4  1  0  0  0
  3 25  1  0  0  0
  4 10  1  0  0  0
  4  5  2  0  0  0
  5  6  1  0  0  0
  5  7  1  0  0  0
  6 26  1  0  0  0
  7  8  1  0  0  0
  7 27  1  0  0  0
  7 28  1  0  0  0
  8  9  1  0  0  0
  8 10  1  0  0  0
  8 20  1  0  0  0
 10 11  1  0  0  0
 11 12  2  0  0  0
 11 13  1  0  0  0
 13 17  2  0  0  0
 13 14  1  0  0  0
 14 15  2  0  0  0
 14 29  1  0  0  0
 15 16  1  0  0  0
 15 19  1  0  0  0
 16 17  1  0  0  0
 17 18  1  0  0  0
 20 21  2  0  0  0
 20 22  1  0  0  0
 22 30  1  0  0  0
 22 31  1  0  0  0
M  END
> <i_i_glide_confnum>
1

> <i_i_glide_lignum>
3848

> <i_i_glide_posenum>
353

> <i_i_glide_rotatable_bonds>
3

> <i_m_Source_File_Index>
792

> <b_m_subgroup_collapsed>
0

> <r_i_docking_score>
-4.49157

> <r_i_glide_ecoul>
-4.88107

> <r_i_glide_eff_state_penalty>
0

> <r_i_glide_einternal>
1.23162

> <r_i_glide_emodel>
-41.9866

> <r_i_glide_energy>
-32.884

> <r_i_glide_erotb>
0.325479

> <r_i_glide_esite>
-0.156572

> <r_i_glide_evdw>
-28.0029

> <r_i_glide_gscore>
-4.49157

> <r_i_glide_hbond>
-0.16

> <r_i_glide_ligand_efficiency>
-0.213885

> <r_i_glide_ligand_efficiency_ln>
-1.11053

> <r_i_glide_ligand_efficiency_sa>
-0.590091

> <r_i_glide_lipo>
-1.14939

> <r_i_glide_metal>
0

> <r_i_glide_rewards>
-1.21878

> <s_i_glide_gridfile>
wee1_glide-grid

> <s_m_Source_File>
wee1_decoys_glide_SP.sdf

> <s_m_Source_Path>
/Users/zhangxujun/Desktop

> <s_m_entry_id>
1067

> <s_m_entry_name>
wee1_decoys_glide_SP.792

> <s_m_subgroup_title>
wee1_decoys_glide_SP

> <s_m_subgroupid>
wee1_decoys_glide_SP


$$$$
