@<TRIPOS>MOLECULE
ZINC31818108_1969
38   41    1
SMALL
USER_CHARGES


@<TRIPOS>ATOM
      1 C1          0.3024   48.9010   25.2816 C.3       1 UNK         0.0000 
      2 C2         -0.6267   49.8637   24.5896 C.ar      1 UNK         0.0000 
      3 C3         -0.6225   50.2988   23.2618 C.ar      1 UNK         0.0000 
      4 C4         -1.6787   51.2045   23.1544 C.ar      1 UNK         0.0000 
      5 N5         -2.2408   51.2801   24.4221 N.pl3     1 UNK         0.0000 
      6 N6         -1.6016   50.4323   25.2619 N.2       1 UNK         0.0000 
      7 C7         -3.2912   52.0834   24.9002 C.ar      1 UNK         0.0000 
      8 C8         -3.6227   53.3395   24.2611 C.ar      1 UNK         0.0000 
      9 C9         -4.5926   54.1131   24.7929 C.ar      1 UNK         0.0000 
     10 C10        -5.2965   53.6976   25.9941 C.ar      1 UNK         0.0000 
     11 N11        -4.9678   52.5018   26.5047 N.2       1 UNK         0.0000 
     12 N12        -3.9667   51.7530   25.9685 N.ar      1 UNK         0.0000 
     13 O13        -6.1194   54.4955   26.4388 O.2       1 UNK         0.0000 
     14 N14        -2.0961   51.8650   22.0328 N.2       1 UNK         0.0000 
     15 C15        -1.6285   51.4319   20.9271 C.2       1 UNK         0.0000 
     16 C16        -0.7004   50.2082   20.7621 C.3       1 UNK         0.0000 
     17 C17         0.2510   50.0662   22.0147 C.3       1 UNK         0.0000 
     18 H18         0.6620   49.0540   22.0322 H         1 UNK         0.0000 
     19 C19         1.4759   50.9896   21.9057 C.ar      1 UNK         0.0000 
     20 C20         2.4734   50.7004   20.9640 C.ar      1 UNK         0.0000 
     21 C21         3.5819   51.5347   20.8210 C.ar      1 UNK         0.0000 
     22 C22         3.7129   52.6678   21.6220 C.ar      1 UNK         0.0000 
     23 C23         2.7273   52.9672   22.5639 C.ar      1 UNK         0.0000 
     24 C24         1.6180   52.1357   22.7025 C.ar      1 UNK         0.0000 
     25 Br25        2.8863   54.4966   23.6860 Br        1 UNK         0.0000 
     26 F26         4.7994   53.4637   21.4885 F         1 UNK         0.0000 
     27 O27        -1.9549   52.0965   19.7752 O.3       1 UNK         0.0000 
     28 H28        -0.0817   47.8812   25.2558 H         1 UNK         0.0000 
     29 H29         1.2814   48.8961   24.8037 H         1 UNK         0.0000 
     30 H30         0.4658   49.1552   26.3308 H         1 UNK         0.0000 
     31 H31        -3.1160   53.7050   23.3812 H         1 UNK         0.0000 
     32 H32        -4.8520   55.0518   24.3298 H         1 UNK         0.0000 
     33 H33        -1.3350   49.3238   20.6989 H         1 UNK         0.0000 
     34 H34        -0.1302   50.2674   19.8349 H         1 UNK         0.0000 
     35 H35         2.3876   49.8300   20.3295 H         1 UNK         0.0000 
     36 H36         4.3365   51.3053   20.0822 H         1 UNK         0.0000 
     37 H37         0.8726   52.3959   23.4387 H         1 UNK         0.0000 
     38 H38        -1.5146   51.6792   19.0308 H         1 UNK         0.0000 
@<TRIPOS>BOND
     1    1    2 1    
     2    1   28 1    
     3    1   29 1    
     4    1   30 1    
     5    2    6 ar   
     6    2    3 ar   
     7    3   17 1    
     8    3    4 ar   
     9    4    5 ar   
    10    4   14 1    
    11    5    6 ar   
    12    5    7 1    
    13    7   12 ar   
    14    7    8 ar   
    15    8    9 ar   
    16    8   31 1    
    17    9   10 ar   
    18    9   32 1    
    19   10   11 ar   
    20   10   13 2    
    21   11   12 ar   
    22   14   15 2    
    23   15   16 1    
    24   15   27 1    
    25   16   17 1    
    26   16   33 1    
    27   16   34 1    
    28   17   18 1    
    29   17   19 1    
    30   19   24 ar   
    31   19   20 ar   
    32   20   21 ar   
    33   20   35 1    
    34   21   22 ar   
    35   21   36 1    
    36   22   23 ar   
    37   22   26 1    
    38   23   24 ar   
    39   23   25 1    
    40   24   37 1    
    41   27   38 1    
@<TRIPOS>SUBSTRUCTURE
     1 UNK         1 GROUP             0       ****    0 ROOT    
