@<TRIPOS>MOLECULE
ZINC32938687_3733
61   64    1
SMALL
USER_CHARGES


@<TRIPOS>ATOM
      1 C1          9.5999   54.4256   17.4892 C.2       1 UNK         0.0000 
      2 C2          8.6850   53.4687   17.2640 C.2       1 UNK         0.0000 
      3 C3          7.2827   53.7220   16.7362 C.3       1 UNK         0.0000 
      4 N4          6.2297   53.2936   17.6548 N.am      1 UNK         0.0000 
      5 C5          5.9006   53.9295   18.7882 C.2       1 UNK         0.0000 
      6 O6          6.3317   55.0399   19.1018 O.2       1 UNK         0.0000 
      7 N7          5.0718   53.1792   19.5369 N.am      1 UNK         0.0000 
      8 C8          4.6575   53.4263   20.8556 C.ar      1 UNK         0.0000 
      9 C9          5.4593   54.0981   21.7865 C.ar      1 UNK         0.0000 
     10 C10         5.0465   54.2147   23.1067 C.ar      1 UNK         0.0000 
     11 C11         3.8063   53.6966   23.5043 C.ar      1 UNK         0.0000 
     12 C12         2.9961   53.0497   22.5676 C.ar      1 UNK         0.0000 
     13 C13         3.4275   52.8996   21.2517 C.ar      1 UNK         0.0000 
     14 N14         3.3554   53.6941   24.8362 N.am      1 UNK         0.0000 
     15 C15         3.8339   54.3538   25.9099 C.2       1 UNK         0.0000 
     16 O16         4.6256   55.2946   25.8137 O.2       1 UNK         0.0000 
     17 C17         3.3809   53.8853   27.2910 C.ar      1 UNK         0.0000 
     18 C18         4.1836   54.2797   28.3771 C.ar      1 UNK         0.0000 
     19 C19         3.8944   53.9001   29.6811 C.ar      1 UNK         0.0000 
     20 C20         2.7917   53.0993   29.9442 C.ar      1 UNK         0.0000 
     21 C21         1.9720   52.6942   28.8984 C.ar      1 UNK         0.0000 
     22 C22         2.2440   53.0660   27.5735 C.ar      1 UNK         0.0000 
     23 S23         1.1037   52.4972   26.3206 S.3       1 UNK         0.0000 
     24 C24        -0.3458   51.6843   27.0655 C.3       1 UNK         0.0000 
     25 C25        -1.3643   51.2738   25.9906 C.2       1 UNK         0.0000 
     26 O26        -2.2634   52.0783   25.7358 O.2       1 UNK         0.0000 
     27 N27        -1.2344   50.0740   25.3562 N.am      1 UNK         0.0000 
     28 C28        -0.0828   49.1937   25.6017 C.3       1 UNK         0.0000 
     29 C29        -0.2547   48.0063   24.6680 C.3       1 UNK         0.0000 
     30 C30        -1.2985   48.4788   23.7031 C.ar      1 UNK         0.0000 
     31 C31        -1.8755   49.6648   24.1665 C.ar      1 UNK         0.0000 
     32 C32        -3.0120   50.1769   23.5249 C.ar      1 UNK         0.0000 
     33 C33        -3.5055   49.5488   22.3794 C.ar      1 UNK         0.0000 
     34 C34        -2.8968   48.3881   21.8964 C.ar      1 UNK         0.0000 
     35 C35        -1.8039   47.8414   22.5684 C.ar      1 UNK         0.0000 
     36 H36         9.3836   55.4671   17.3001 H         1 UNK         0.0000 
     37 H37        10.5802   54.1786   17.8731 H         1 UNK         0.0000 
     38 H38         8.9404   52.4388   17.4705 H         1 UNK         0.0000 
     39 H39         7.1363   54.7645   16.4403 H         1 UNK         0.0000 
     40 H40         7.1703   53.1316   15.8248 H         1 UNK         0.0000 
     41 H41         5.8967   52.3441   17.5416 H         1 UNK         0.0000 
     42 H42         4.6888   52.3524   19.0985 H         1 UNK         0.0000 
     43 H43         6.4252   54.4959   21.5141 H         1 UNK         0.0000 
     44 H44         5.7216   54.6899   23.8007 H         1 UNK         0.0000 
     45 H45         2.0443   52.6282   22.8589 H         1 UNK         0.0000 
     46 H46         2.8015   52.3745   20.5448 H         1 UNK         0.0000 
     47 H47         2.6036   53.0470   25.0332 H         1 UNK         0.0000 
     48 H48         5.0608   54.8956   28.2230 H         1 UNK         0.0000 
     49 H49         4.5374   54.2319   30.4802 H         1 UNK         0.0000 
     50 H50         2.5642   52.7920   30.9549 H         1 UNK         0.0000 
     51 H51         1.1232   52.0771   29.1443 H         1 UNK         0.0000 
     52 H52        -0.0568   50.8227   27.6688 H         1 UNK         0.0000 
     53 H53        -0.8307   52.3742   27.7585 H         1 UNK         0.0000 
     54 H54         0.7887   49.7475   25.2452 H         1 UNK         0.0000 
     55 H55         0.1318   48.9273   26.6362 H         1 UNK         0.0000 
     56 H56         0.6975   47.6991   24.2385 H         1 UNK         0.0000 
     57 H57        -0.6415   47.1643   25.2414 H         1 UNK         0.0000 
     58 H58        -3.5179   51.0582   23.8887 H         1 UNK         0.0000 
     59 H59        -4.3676   49.9545   21.8739 H         1 UNK         0.0000 
     60 H60        -3.2894   47.8982   21.0164 H         1 UNK         0.0000 
     61 H61        -1.3687   46.9173   22.2147 H         1 UNK         0.0000 
@<TRIPOS>BOND
     1    1    2 2    
     2    1   36 1    
     3    1   37 1    
     4    2    3 1    
     5    2   38 1    
     6    3    4 1    
     7    3   39 1    
     8    3   40 1    
     9    4    5 am   BACKBONE|DICT|INTERRES
    10    4   41 1    
    11    5    6 2    
    12    5    7 am   BACKBONE|DICT|INTERRES
    13    7    8 1    
    14    7   42 1    
    15    8   13 ar   
    16    8    9 ar   
    17    9   10 ar   
    18    9   43 1    
    19   10   11 ar   
    20   10   44 1    
    21   11   12 ar   
    22   11   14 1    
    23   12   13 ar   
    24   12   45 1    
    25   13   46 1    
    26   14   15 am   BACKBONE|DICT|INTERRES
    27   14   47 1    
    28   15   16 2    
    29   15   17 1    
    30   17   22 ar   
    31   17   18 ar   
    32   18   19 ar   
    33   18   48 1    
    34   19   20 ar   
    35   19   49 1    
    36   20   21 ar   
    37   20   50 1    
    38   21   22 ar   
    39   21   51 1    
    40   22   23 1    
    41   23   24 1    
    42   24   25 1    
    43   24   52 1    
    44   24   53 1    
    45   25   26 2    
    46   25   27 am   BACKBONE|DICT|INTERRES
    47   27   31 1    
    48   27   28 1    
    49   28   29 1    
    50   28   54 1    
    51   28   55 1    
    52   29   30 1    
    53   29   56 1    
    54   29   57 1    
    55   30   35 ar   
    56   30   31 ar   
    57   31   32 ar   
    58   32   33 ar   
    59   32   58 1    
    60   33   34 ar   
    61   33   59 1    
    62   34   35 ar   
    63   34   60 1    
    64   35   61 1    
@<TRIPOS>SUBSTRUCTURE
     1 UNK         1 GROUP             0       ****    0 ROOT    
