@<TRIPOS>MOLECULE
ZINC08557885_2826
59   64    1
SMALL
USER_CHARGES


@<TRIPOS>ATOM
      1 C1          0.3036   52.7936   31.1361 C.3       1 UNK         0.0000 
      2 C2          0.7059   52.8710   29.6755 C.ar      1 UNK         0.0000 
      3 C3          1.2993   54.0282   29.1756 C.ar      1 UNK         0.0000 
      4 C4          1.6541   54.0968   27.8313 C.ar      1 UNK         0.0000 
      5 C5          1.4164   53.0184   26.9676 C.ar      1 UNK         0.0000 
      6 C6          0.8341   51.8609   27.4872 C.ar      1 UNK         0.0000 
      7 C7          0.4666   51.7906   28.8278 C.ar      1 UNK         0.0000 
      8 C8          1.7764   53.1446   25.5148 C.ar      1 UNK         0.0000 
      9 C9          1.2792   52.6328   24.2957 C.ar      1 UNK         0.0000 
     10 C10         2.1669   53.1656   23.3373 C.ar      1 UNK         0.0000 
     11 N11         3.1266   53.9004   23.8298 N.2       1 UNK         0.0000 
     12 N12         2.8846   53.8685   25.1370 N.pl3     1 UNK         0.0000 
     13 H13         3.4956   54.3348   25.7915 H         1 UNK         0.0000 
     14 O14         2.1028   52.9641   21.9819 O.3       1 UNK         0.0000 
     15 C15         0.9524   52.3982   21.5355 C.2       1 UNK         0.0000 
     16 C16        -0.0294   51.8611   22.2979 C.2       1 UNK         0.0000 
     17 C17         0.1193   51.7131   23.8293 C.3       1 UNK         0.0000 
     18 C18        -1.1626   51.8518   24.5935 C.ar      1 UNK         0.0000 
     19 C19        -2.0788   52.8963   24.6666 C.ar      1 UNK         0.0000 
     20 C20        -3.1905   52.7910   25.5054 C.ar      1 UNK         0.0000 
     21 C21        -3.3799   51.6368   26.2683 C.ar      1 UNK         0.0000 
     22 C22        -2.4827   50.5729   26.1606 C.ar      1 UNK         0.0000 
     23 C23        -1.3974   50.6772   25.2847 C.ar      1 UNK         0.0000 
     24 N24        -0.4067   49.7464   24.9604 N.am      1 UNK         0.0000 
     25 C25         0.5186   50.2575   24.1085 C.2       1 UNK         0.0000 
     26 O26         1.5035   49.6967   23.6255 O.2       1 UNK         0.0000 
     27 C27        -0.2978   48.3607   25.4305 C.3       1 UNK         0.0000 
     28 C28        -1.5363   47.4515   25.2279 C.3       1 UNK         0.0000 
     29 C29        -2.1052   47.2971   23.8167 C.ar      1 UNK         0.0000 
     30 C30        -3.3855   46.7514   23.6821 C.ar      1 UNK         0.0000 
     31 C31        -3.9502   46.5832   22.4205 C.ar      1 UNK         0.0000 
     32 C32        -3.2319   46.9613   21.2890 C.ar      1 UNK         0.0000 
     33 C33        -1.9556   47.5048   21.4094 C.ar      1 UNK         0.0000 
     34 C34        -1.3927   47.6725   22.6715 C.ar      1 UNK         0.0000 
     35 C35        -1.2124   51.3821   21.6531 C.1       1 UNK         0.0000 
     36 N36        -2.1776   51.0554   21.1055 N.1       1 UNK         0.0000 
     37 N37         0.9606   52.4963   20.1721 N.pl3     1 UNK         0.0000 
     38 H38        -0.4954   52.0667   31.2814 H         1 UNK         0.0000 
     39 H39        -0.0814   53.7514   31.4865 H         1 UNK         0.0000 
     40 H40         1.1516   52.5138   31.7612 H         1 UNK         0.0000 
     41 H41         1.4810   54.8743   29.8221 H         1 UNK         0.0000 
     42 H42         2.1081   55.0047   27.4676 H         1 UNK         0.0000 
     43 H43         0.6781   50.9985   26.8669 H         1 UNK         0.0000 
     44 H44        -0.0038   50.8955   29.2055 H         1 UNK         0.0000 
     45 H45        -1.9258   53.7890   24.0814 H         1 UNK         0.0000 
     46 H46        -3.8947   53.6066   25.5751 H         1 UNK         0.0000 
     47 H47        -4.2247   51.5608   26.9369 H         1 UNK         0.0000 
     48 H48        -2.6416   49.6967   26.7701 H         1 UNK         0.0000 
     49 H49         0.5842   47.8569   25.0297 H         1 UNK         0.0000 
     50 H50        -0.0953   48.4098   26.4996 H         1 UNK         0.0000 
     51 H51        -1.2953   46.4590   25.6082 H         1 UNK         0.0000 
     52 H52        -2.3325   47.7869   25.8893 H         1 UNK         0.0000 
     53 H53        -3.9514   46.4700   24.5585 H         1 UNK         0.0000 
     54 H54        -4.9440   46.1715   22.3203 H         1 UNK         0.0000 
     55 H55        -3.6707   46.8402   20.3094 H         1 UNK         0.0000 
     56 H56        -1.4066   47.8047   20.5287 H         1 UNK         0.0000 
     57 H57        -0.4043   48.0961   22.7399 H         1 UNK         0.0000 
     58 H58         0.2944   51.9951   19.6040 H         1 UNK         0.0000 
     59 H59         1.4996   53.2307   19.7315 H         1 UNK         0.0000 
@<TRIPOS>BOND
     1    1    2 1    
     2    1   38 1    
     3    1   39 1    
     4    1   40 1    
     5    2    7 ar   
     6    2    3 ar   
     7    3    4 ar   
     8    3   41 1    
     9    4    5 ar   
    10    4   42 1    
    11    5    6 ar   
    12    5    8 1    
    13    6    7 ar   
    14    6   43 1    
    15    7   44 1    
    16    8   12 ar   
    17    8    9 ar   
    18    9   17 1    
    19    9   10 ar   
    20   10   11 ar   
    21   10   14 1    
    22   11   12 ar   
    23   12   13 1    
    24   14   15 1    
    25   15   16 2    
    26   15   37 1    
    27   16   17 1    
    28   16   35 1    
    29   17   25 1    
    30   17   18 1    
    31   18   23 ar   
    32   18   19 ar   
    33   19   20 ar   
    34   19   45 1    
    35   20   21 ar   
    36   20   46 1    
    37   21   22 ar   
    38   21   47 1    
    39   22   23 ar   
    40   22   48 1    
    41   23   24 1    
    42   24   25 am   BACKBONE|DICT|INTERRES
    43   24   27 1    
    44   25   26 2    
    45   27   28 1    
    46   27   49 1    
    47   27   50 1    
    48   28   29 1    
    49   28   51 1    
    50   28   52 1    
    51   29   34 ar   
    52   29   30 ar   
    53   30   31 ar   
    54   30   53 1    
    55   31   32 ar   
    56   31   54 1    
    57   32   33 ar   
    58   32   55 1    
    59   33   34 ar   
    60   33   56 1    
    61   34   57 1    
    62   35   36 3    
    63   37   58 1    
    64   37   59 1    
@<TRIPOS>SUBSTRUCTURE
     1 UNK         1 GROUP             0       ****    0 ROOT    
