@<TRIPOS>MOLECULE
ZINC39609217_3664
68   71    1
SMALL
USER_CHARGES


@<TRIPOS>ATOM
      1 C1          5.7306   54.2858   27.0452 C.3       1 UNK         0.0000 
      2 C2          4.9394   54.2024   25.7462 C.ar      1 UNK         0.0000 
      3 C3          3.5427   54.1743   25.7979 C.ar      1 UNK         0.0000 
      4 C4          2.7941   54.0987   24.6250 C.ar      1 UNK         0.0000 
      5 C5          3.4290   54.0321   23.3808 C.ar      1 UNK         0.0000 
      6 C6          4.8243   54.0630   23.3278 C.ar      1 UNK         0.0000 
      7 C7          5.5838   54.1496   24.4980 C.ar      1 UNK         0.0000 
      8 C8          7.0977   54.1736   24.3883 C.3       1 UNK         0.0000 
      9 C9          2.6255   54.0019   22.0832 C.3       1 UNK         0.0000 
     10 C10         1.7391   52.7599   21.8320 C.3       1 UNK         0.0000 
     11 N11         0.7356   52.5747   22.8739 N.am      1 UNK         0.0000 
     12 C12        -0.5677   52.2937   22.7263 C.2       1 UNK         0.0000 
     13 O13        -1.0998   52.0961   21.6335 O.2       1 UNK         0.0000 
     14 C14        -1.3567   52.2312   24.0562 C.3       1 UNK         0.0000 
     15 H15        -1.2625   53.2106   24.5297 H         1 UNK         0.0000 
     16 C16        -2.8623   52.0106   23.7863 C.3       1 UNK         0.0000 
     17 N17        -3.3408   51.4640   25.0628 N.am      1 UNK         0.0000 
     18 C18        -2.2260   51.0019   25.8989 C.3       1 UNK         0.0000 
     19 C19        -0.9711   51.0687   25.0028 C.3       1 UNK         0.0000 
     20 C20        -0.7417   49.7200   24.2414 C.3       1 UNK         0.0000 
     21 C21        -0.5054   48.5416   25.1991 C.3       1 UNK         0.0000 
     22 N22         0.7047   48.8967   26.0818 N.4       1 UNK         0.0000 
     23 C23         0.5749   50.2357   26.8410 C.3       1 UNK         0.0000 
     24 C24         0.3313   51.3349   25.7986 C.3       1 UNK         0.0000 
     25 C25        -4.6138   51.6808   25.4919 C.2       1 UNK         0.0000 
     26 O26        -5.4359   52.2898   24.8041 O.2       1 UNK         0.0000 
     27 C27        -5.0302   51.2177   26.8732 C.ar      1 UNK         0.0000 
     28 C28        -4.7027   49.9467   27.3700 C.ar      1 UNK         0.0000 
     29 C29        -5.0565   49.5729   28.6662 C.ar      1 UNK         0.0000 
     30 C30        -5.7835   50.4470   29.4837 C.ar      1 UNK         0.0000 
     31 C31        -6.1576   51.6965   28.9751 C.ar      1 UNK         0.0000 
     32 C32        -5.7959   52.0688   27.6808 C.ar      1 UNK         0.0000 
     33 F33        -6.8542   52.5699   29.7399 F         1 UNK         0.0000 
     34 C34        -6.1728   50.0573   30.9083 C.3       1 UNK         0.0000 
     35 F35        -5.7002   48.8597   31.2589 F         1 UNK         0.0000 
     36 F36        -5.6957   50.9619   31.7622 F         1 UNK         0.0000 
     37 F37        -7.5010   50.0272   31.0165 F         1 UNK         0.0000 
     38 H38         6.3379   55.1915   27.0655 H         1 UNK         0.0000 
     39 H39         5.0860   54.2910   27.9250 H         1 UNK         0.0000 
     40 H40         6.4065   53.4337   27.1307 H         1 UNK         0.0000 
     41 H41         3.0316   54.2292   26.7480 H         1 UNK         0.0000 
     42 H42         1.7180   54.1301   24.6956 H         1 UNK         0.0000 
     43 H43         5.3222   54.0270   22.3693 H         1 UNK         0.0000 
     44 H44         7.4455   54.1745   23.3543 H         1 UNK         0.0000 
     45 H45         7.5041   55.0573   24.8796 H         1 UNK         0.0000 
     46 H46         7.5042   53.2964   24.8844 H         1 UNK         0.0000 
     47 H47         2.0032   54.8931   22.0818 H         1 UNK         0.0000 
     48 H48         3.2905   54.1332   21.2285 H         1 UNK         0.0000 
     49 H49         1.3223   52.7785   20.8222 H         1 UNK         0.0000 
     50 H50         2.3683   51.8700   21.8845 H         1 UNK         0.0000 
     51 H51         1.0864   52.6563   23.8141 H         1 UNK         0.0000 
     52 H52        -3.3268   52.9521   23.4863 H         1 UNK         0.0000 
     53 H53        -2.9769   51.2238   23.0386 H         1 UNK         0.0000 
     54 H54        -2.3408   50.0663   26.4372 H         1 UNK         0.0000 
     55 H55        -2.1063   51.7588   26.6768 H         1 UNK         0.0000 
     56 H56        -1.6185   49.4794   23.6385 H         1 UNK         0.0000 
     57 H57         0.0831   49.7869   23.5299 H         1 UNK         0.0000 
     58 H58        -1.3316   48.3223   25.8776 H         1 UNK         0.0000 
     59 H59        -0.2349   47.6241   24.6756 H         1 UNK         0.0000 
     60 H60         0.8085   48.1394   26.7515 H         1 UNK         0.0000 
     61 H61        -0.2420   50.1168   27.5548 H         1 UNK         0.0000 
     62 H62         1.5045   50.3820   27.3900 H         1 UNK         0.0000 
     63 H63         1.1996   51.4392   25.1500 H         1 UNK         0.0000 
     64 H64         0.2459   52.2845   26.3301 H         1 UNK         0.0000 
     65 H65        -4.1747   49.2274   26.7617 H         1 UNK         0.0000 
     66 H66        -4.7550   48.5989   29.0270 H         1 UNK         0.0000 
     67 H67        -6.0938   53.0437   27.3204 H         1 UNK         0.0000 
     68 H68         1.5434   48.8847   25.5149 H         1 UNK         0.0000 
@<TRIPOS>BOND
     1    1    2 1    
     2    1   38 1    
     3    1   39 1    
     4    1   40 1    
     5    2    7 ar   
     6    2    3 ar   
     7    3    4 ar   
     8    3   41 1    
     9    4    5 ar   
    10    4   42 1    
    11    5    6 ar   
    12    5    9 1    
    13    6    7 ar   
    14    6   43 1    
    15    7    8 1    
    16    8   44 1    
    17    8   45 1    
    18    8   46 1    
    19    9   10 1    
    20    9   47 1    
    21    9   48 1    
    22   10   11 1    
    23   10   49 1    
    24   10   50 1    
    25   11   12 am   BACKBONE|DICT|INTERRES
    26   11   51 1    
    27   12   13 2    
    28   12   14 1    
    29   14   15 1    
    30   14   19 1    
    31   14   16 1    
    32   16   17 1    
    33   16   52 1    
    34   16   53 1    
    35   17   18 1    
    36   17   25 am   BACKBONE|DICT|INTERRES
    37   18   19 1    
    38   18   54 1    
    39   18   55 1    
    40   19   24 1    
    41   19   20 1    
    42   20   21 1    
    43   20   56 1    
    44   20   57 1    
    45   21   22 1    
    46   21   58 1    
    47   21   59 1    
    48   22   23 1    
    49   22   60 1    
    50   22   68 1    
    51   23   24 1    
    52   23   61 1    
    53   23   62 1    
    54   24   63 1    
    55   24   64 1    
    56   25   26 2    
    57   25   27 1    
    58   27   32 ar   
    59   27   28 ar   
    60   28   29 ar   
    61   28   65 1    
    62   29   30 ar   
    63   29   66 1    
    64   30   31 ar   
    65   30   34 1    
    66   31   32 ar   
    67   31   33 1    
    68   32   67 1    
    69   34   35 1    
    70   34   36 1    
    71   34   37 1    
@<TRIPOS>SUBSTRUCTURE
     1 UNK         1 GROUP             0       ****    0 ROOT    
