@<TRIPOS>MOLECULE
ZINC61827665_1660
46   46    1
SMALL
USER_CHARGES


@<TRIPOS>ATOM
      1 C1          3.4162   55.0216   17.3085 C.3       1 UNK         0.0000 
      2 C2          4.5726   55.4479   18.2298 C.3       1 UNK         0.0000 
      3 H3          4.4433   56.5023   18.4826 H         1 UNK         0.0000 
      4 C4          5.9360   55.2866   17.5311 C.3       1 UNK         0.0000 
      5 C5          7.0689   55.8219   18.4232 C.3       1 UNK         0.0000 
      6 C6          7.0973   55.1156   19.7960 C.3       1 UNK         0.0000 
      7 C7          5.7138   55.0613   20.5059 C.3       1 UNK         0.0000 
      8 H8          5.5044   56.1070   20.7428 H         1 UNK         0.0000 
      9 C9          4.5825   54.6299   19.5409 C.3       1 UNK         0.0000 
     10 N10         5.6690   54.3641   21.7991 N.am      1 UNK         0.0000 
     11 C11         6.2889   54.7819   22.9163 C.2       1 UNK         0.0000 
     12 O12         7.1044   55.6967   22.9003 O.2       1 UNK         0.0000 
     13 N13         5.8328   54.1608   24.0243 N.am      1 UNK         0.0000 
     14 C14         6.0566   54.5073   25.3169 C.2       1 UNK         0.0000 
     15 O15         6.7045   55.4905   25.6840 O.2       1 UNK         0.0000 
     16 C16         5.4711   53.5289   26.3590 C.3       1 UNK         0.0000 
     17 C17         4.7143   54.0390   27.6277 C.3       1 UNK         0.0000 
     18 C18         5.6743   54.8504   28.5314 C.3       1 UNK         0.0000 
     19 C19         3.5035   54.8958   27.1761 C.3       1 UNK         0.0000 
     20 C20         4.2253   52.7527   28.3897 C.3       1 UNK         0.0000 
     21 C21         3.5437   52.9186   29.7621 C.2       1 UNK         0.0000 
     22 O22         3.0688   54.0304   30.0818 O.co2     1 UNK         0.0000 
     23 O23         3.5016   51.8943   30.4819 O.co2     1 UNK         0.0000 
     24 H24         3.4925   53.9688   17.0330 H         1 UNK         0.0000 
     25 H25         2.4495   55.1672   17.7916 H         1 UNK         0.0000 
     26 H26         3.4099   55.6064   16.3878 H         1 UNK         0.0000 
     27 H27         6.1057   54.2425   17.2609 H         1 UNK         0.0000 
     28 H28         5.9303   55.8226   16.5808 H         1 UNK         0.0000 
     29 H29         6.9425   56.8961   18.5677 H         1 UNK         0.0000 
     30 H30         8.0291   55.6949   17.9215 H         1 UNK         0.0000 
     31 H31         7.8465   55.5948   20.4273 H         1 UNK         0.0000 
     32 H32         7.4374   54.0970   19.6246 H         1 UNK         0.0000 
     33 H33         4.6836   53.5699   19.2992 H         1 UNK         0.0000 
     34 H34         3.6106   54.7133   20.0278 H         1 UNK         0.0000 
     35 H35         5.1744   53.4848   21.8076 H         1 UNK         0.0000 
     36 H36         5.2383   53.3612   23.8806 H         1 UNK         0.0000 
     37 H37         6.3019   52.8968   26.6696 H         1 UNK         0.0000 
     38 H38         4.7651   52.8967   25.8309 H         1 UNK         0.0000 
     39 H39         6.1114   55.6969   28.0153 H         1 UNK         0.0000 
     40 H40         5.1817   55.2545   29.4150 H         1 UNK         0.0000 
     41 H41         6.5005   54.2296   28.8808 H         1 UNK         0.0000 
     42 H42         3.7857   55.6492   26.4415 H         1 UNK         0.0000 
     43 H43         2.7352   54.2794   26.7082 H         1 UNK         0.0000 
     44 H44         3.0318   55.4176   28.0079 H         1 UNK         0.0000 
     45 H45         5.0814   52.0967   28.5513 H         1 UNK         0.0000 
     46 H46         3.5233   52.1964   27.7676 H         1 UNK         0.0000 
@<TRIPOS>BOND
     1    1    2 1    
     2    1   24 1    
     3    1   25 1    
     4    1   26 1    
     5    2    3 1    
     6    2    9 1    
     7    2    4 1    
     8    4    5 1    
     9    4   27 1    
    10    4   28 1    
    11    5    6 1    
    12    5   29 1    
    13    5   30 1    
    14    6    7 1    
    15    6   31 1    
    16    6   32 1    
    17    7    8 1    
    18    7    9 1    
    19    7   10 1    
    20    9   33 1    
    21    9   34 1    
    22   10   11 am   BACKBONE|DICT|INTERRES
    23   10   35 1    
    24   11   12 2    
    25   11   13 am   BACKBONE|DICT|INTERRES
    26   13   14 am   BACKBONE|DICT|INTERRES
    27   13   36 1    
    28   14   15 2    
    29   14   16 1    
    30   16   17 1    
    31   16   37 1    
    32   16   38 1    
    33   17   18 1    
    34   17   19 1    
    35   17   20 1    
    36   18   39 1    
    37   18   40 1    
    38   18   41 1    
    39   19   42 1    
    40   19   43 1    
    41   19   44 1    
    42   20   21 1    
    43   20   45 1    
    44   20   46 1    
    45   21   22 2    
    46   21   23 1    
@<TRIPOS>SUBSTRUCTURE
     1 UNK         1 GROUP             0       ****    0 ROOT    
