@<TRIPOS>MOLECULE
ZINC35867388_5600
71   75    1
SMALL
USER_CHARGES


@<TRIPOS>ATOM
      1 C1          6.5479   56.5141   15.7605 C.3       1 UNK         0.0000 
      2 C2          6.3150   55.6808   17.0327 C.3       1 UNK         0.0000 
      3 H3          6.5394   54.6456   16.7663 H         1 UNK         0.0000 
      4 C4          4.8598   55.8022   17.5239 C.3       1 UNK         0.0000 
      5 C5          4.5728   54.7706   18.6302 C.3       1 UNK         0.0000 
      6 C6          5.6264   54.9167   19.7352 C.2       1 UNK         0.0000 
      7 C7          6.8615   55.5266   19.4858 C.2       1 UNK         0.0000 
      8 S8          7.8663   55.6966   20.8965 S.3       1 UNK         0.0000 
      9 C9          6.6032   55.0159   21.8881 C.ar      1 UNK         0.0000 
     10 C10         5.4911   54.5405   21.1234 C.ar      1 UNK         0.0000 
     11 C11         4.4822   53.8856   21.8889 C.ar      1 UNK         0.0000 
     12 N12         4.5126   53.9410   23.2495 N.ar      1 UNK         0.0000 
     13 C13         5.5952   54.4999   23.8456 C.ar      1 UNK         0.0000 
     14 N14         6.7000   54.9824   23.2164 N.ar      1 UNK         0.0000 
     15 C15         5.5037   54.8135   25.3495 C.3       1 UNK         0.0000 
     16 C16         4.2104   54.3420   26.0547 C.3       1 UNK         0.0000 
     17 C17         6.7516   54.3667   26.1268 C.3       1 UNK         0.0000 
     18 N18         3.4275   53.1745   21.3156 N.pl3     1 UNK         0.0000 
     19 C19         3.6602   52.2492   20.1969 C.3       1 UNK         0.0000 
     20 C20         3.5362   50.7593   20.5688 C.3       1 UNK         0.0000 
     21 N21         2.2379   50.5258   21.2268 N.am      1 UNK         0.0000 
     22 C22         1.9868   51.3671   22.4094 C.3       1 UNK         0.0000 
     23 C23         2.1693   52.8501   22.0119 C.3       1 UNK         0.0000 
     24 C24         1.4090   49.4804   20.9316 C.2       1 UNK         0.0000 
     25 O25         0.4629   49.1719   21.6547 O.2       1 UNK         0.0000 
     26 N26         1.6924   48.8402   19.7730 N.am      1 UNK         0.0000 
     27 C27         1.0968   47.7187   19.1698 C.ar      1 UNK         0.0000 
     28 C28         1.6781   47.3002   17.9732 C.ar      1 UNK         0.0000 
     29 C29         1.1893   46.1836   17.2809 C.ar      1 UNK         0.0000 
     30 C30         0.1101   45.4836   17.8176 C.ar      1 UNK         0.0000 
     31 C31        -0.4902   45.8739   19.0153 C.ar      1 UNK         0.0000 
     32 C32         0.0013   47.0068   19.6815 C.ar      1 UNK         0.0000 
     33 O33        -1.5386   45.0948   19.4657 O.3       1 UNK         0.0000 
     34 C34        -2.1771   45.4343   20.6917 C.3       1 UNK         0.0000 
     35 O35         1.7176   45.7074   16.0971 O.3       1 UNK         0.0000 
     36 C36         2.8265   46.3908   15.5163 C.3       1 UNK         0.0000 
     37 C37         7.2933   56.1239   18.1484 C.3       1 UNK         0.0000 
     38 H38         6.3643   57.5731   15.9407 H         1 UNK         0.0000 
     39 H39         7.5733   56.4112   15.4052 H         1 UNK         0.0000 
     40 H40         5.8914   56.1997   14.9481 H         1 UNK         0.0000 
     41 H41         4.1776   55.6155   16.6941 H         1 UNK         0.0000 
     42 H42         4.6361   56.8237   17.8342 H         1 UNK         0.0000 
     43 H43         3.5659   54.9208   19.0184 H         1 UNK         0.0000 
     44 H44         4.6009   53.7757   18.1858 H         1 UNK         0.0000 
     45 H45         5.4854   55.9046   25.3962 H         1 UNK         0.0000 
     46 H46         3.3181   54.7346   25.5635 H         1 UNK         0.0000 
     47 H47         4.1364   53.2552   26.0689 H         1 UNK         0.0000 
     48 H48         4.1811   54.6849   27.0894 H         1 UNK         0.0000 
     49 H49         7.6539   54.6839   25.6106 H         1 UNK         0.0000 
     50 H50         6.7702   54.7931   27.1286 H         1 UNK         0.0000 
     51 H51         6.7923   53.2876   26.2292 H         1 UNK         0.0000 
     52 H52         2.9446   52.5031   19.4138 H         1 UNK         0.0000 
     53 H53         4.6638   52.3715   19.7907 H         1 UNK         0.0000 
     54 H54         3.7044   50.1537   19.6827 H         1 UNK         0.0000 
     55 H55         4.3265   50.5058   21.2717 H         1 UNK         0.0000 
     56 H56         2.7039   51.1171   23.1892 H         1 UNK         0.0000 
     57 H57         0.9880   51.2243   22.8250 H         1 UNK         0.0000 
     58 H58         2.0413   53.4797   22.8930 H         1 UNK         0.0000 
     59 H59         1.3742   53.1330   21.3180 H         1 UNK         0.0000 
     60 H60         2.4701   49.2097   19.2491 H         1 UNK         0.0000 
     61 H61         2.5234   47.8523   17.5887 H         1 UNK         0.0000 
     62 H62        -0.2679   44.6176   17.2946 H         1 UNK         0.0000 
     63 H63        -0.4646   47.3155   20.5994 H         1 UNK         0.0000 
     64 H64        -2.9726   44.7189   20.8889 H         1 UNK         0.0000 
     65 H65        -1.4793   45.3927   21.5302 H         1 UNK         0.0000 
     66 H66        -2.6317   46.4250   20.6505 H         1 UNK         0.0000 
     67 H67         3.1011   45.8973   14.5858 H         1 UNK         0.0000 
     68 H68         2.5811   47.4268   15.2761 H         1 UNK         0.0000 
     69 H69         3.6945   46.3726   16.1746 H         1 UNK         0.0000 
     70 H70         8.3107   55.8230   17.8945 H         1 UNK         0.0000 
     71 H71         7.2807   57.2134   18.2345 H         1 UNK         0.0000 
@<TRIPOS>BOND
     1    1    2 1    
     2    1   38 1    
     3    1   39 1    
     4    1   40 1    
     5    2    3 1    
     6    2   37 1    
     7    2    4 1    
     8    4    5 1    
     9    4   41 1    
    10    4   42 1    
    11    5    6 1    
    12    5   43 1    
    13    5   44 1    
    14    6   10 1    
    15    6    7 2    
    16    7    8 1    
    17    7   37 1    
    18    8    9 1    
    19    9   14 ar   
    20    9   10 ar   
    21   10   11 ar   
    22   11   12 ar   
    23   11   18 1    
    24   12   13 ar   
    25   13   14 ar   
    26   13   15 1    
    27   15   16 1    
    28   15   17 1    
    29   15   45 1    
    30   16   46 1    
    31   16   47 1    
    32   16   48 1    
    33   17   49 1    
    34   17   50 1    
    35   17   51 1    
    36   18   23 1    
    37   18   19 1    
    38   19   20 1    
    39   19   52 1    
    40   19   53 1    
    41   20   21 1    
    42   20   54 1    
    43   20   55 1    
    44   21   22 1    
    45   21   24 am   BACKBONE|DICT|INTERRES
    46   22   23 1    
    47   22   56 1    
    48   22   57 1    
    49   23   58 1    
    50   23   59 1    
    51   24   25 2    
    52   24   26 am   BACKBONE|DICT|INTERRES
    53   26   27 1    
    54   26   60 1    
    55   27   32 ar   
    56   27   28 ar   
    57   28   29 ar   
    58   28   61 1    
    59   29   30 ar   
    60   29   35 1    
    61   30   31 ar   
    62   30   62 1    
    63   31   32 ar   
    64   31   33 1    
    65   32   63 1    
    66   33   34 1    
    67   34   64 1    
    68   34   65 1    
    69   34   66 1    
    70   35   36 1    
    71   36   67 1    
    72   36   68 1    
    73   36   69 1    
    74   37   70 1    
    75   37   71 1    
@<TRIPOS>SUBSTRUCTURE
     1 UNK         1 GROUP             0       ****    0 ROOT    
