ZINC10505158_3606
                    3D
 Schrodinger Suite 2024-2.
 45 47  0  0  1  0            999 V2000
    5.1428   54.2049   25.1638 C   0  0  0  0  0  0
    3.9067   54.0963   25.7980 C   0  0  0  0  0  0
    2.7581   53.8819   25.0375 C   0  0  0  0  0  0
    2.8532   53.7897   23.6496 C   0  0  0  0  0  0
    4.0940   53.8975   23.0186 C   0  0  0  0  0  0
    5.2429   54.0978   23.7793 C   0  0  0  0  0  0
    1.6969   53.6253   22.8854 N   0  0  0  0  0  0
    1.3520   52.1344   21.9955 S   0  0  0  0  0  0
    2.6340   51.5075   21.6552 O   0  0  0  0  0  0
    0.3816   52.4965   20.9577 O   0  0  0  0  0  0
    0.4997   51.0625   23.1446 C   0  0  0  0  0  0
   -0.8826   51.1731   23.3020 C   0  0  0  0  0  0
   -1.5541   50.2988   24.1518 C   0  0  0  0  0  0
   -0.8366   49.3200   24.8435 C   0  0  0  0  0  0
    0.5469   49.2400   24.7260 C   0  0  0  0  0  0
    1.2134   50.0979   23.8563 C   0  0  0  0  0  0
   -1.5005   48.4166   25.6815 N   0  0  0  0  0  0
   -2.3452   47.3957   25.3533 C   0  0  0  0  0  0
   -2.6460   46.8966   23.7683 S   0  0  0  0  0  0
   -2.9186   46.8981   26.4927 N   0  0  0  0  0  0
   -3.9264   46.0168   26.6943 C   0  0  0  0  0  0
   -4.0959   44.9997   26.0145 O   0  0  0  0  0  0
   -4.8961   46.3568   27.8114 C   0  0  0  0  0  0
   -4.6246   47.3593   28.7652 C   0  0  0  0  0  0
   -5.5603   47.6890   29.7471 C   0  0  0  0  0  0
   -6.7816   47.0208   29.8007 C   0  0  0  0  0  0
   -7.0661   46.0247   28.8692 C   0  0  0  0  0  0
   -6.1324   45.6951   27.8859 C   0  0  0  0  0  0
   -8.5725   45.1867   28.9448 Cl  0  0  0  0  0  0
   -5.2162   48.9440   30.8795 Cl  0  0  0  0  0  0
    6.0317   54.3587   25.7562 H   0  0  0  0  0  0
    3.8396   54.1666   26.8738 H   0  0  0  0  0  0
    1.7978   53.8003   25.5280 H   0  0  0  0  0  0
    4.1649   53.8272   21.9431 H   0  0  0  0  0  0
    6.2062   54.1771   23.2965 H   0  0  0  0  0  0
    1.0929   54.4160   22.7306 H   0  0  0  0  0  0
   -1.4421   51.9162   22.7520 H   0  0  0  0  0  0
   -2.6265   50.3678   24.2590 H   0  0  0  0  0  0
    1.1033   48.4957   25.2777 H   0  0  0  0  0  0
    2.2836   50.0030   23.7347 H   0  0  0  0  0  0
   -1.2936   48.5034   26.6752 H   0  0  0  0  0  0
   -2.7206   47.4794   27.3019 H   0  0  0  0  0  0
   -3.6956   47.9103   28.7609 H   0  0  0  0  0  0
   -7.5098   47.2807   30.5557 H   0  0  0  0  0  0
   -6.3887   44.9249   27.1695 H   0  0  0  0  0  0
  1  6  2  0  0  0
  1  2  1  0  0  0
  1 31  1  0  0  0
  2  3  2  0  0  0
  2 32  1  0  0  0
  3  4  1  0  0  0
  3 33  1  0  0  0
  4  5  2  0  0  0
  4  7  1  0  0  0
  5  6  1  0  0  0
  5 34  1  0  0  0
  6 35  1  0  0  0
  7  8  1  0  0  0
  7 36  1  0  0  0
  8  9  2  0  0  0
  8 10  2  0  0  0
  8 11  1  0  0  0
 11 16  2  0  0  0
 11 12  1  0  0  0
 12 13  2  0  0  0
 12 37  1  0  0  0
 13 14  1  0  0  0
 13 38  1  0  0  0
 14 15  2  0  0  0
 14 17  1  0  0  0
 15 16  1  0  0  0
 15 39  1  0  0  0
 16 40  1  0  0  0
 17 18  1  0  0  0
 17 41  1  0  0  0
 18 19  2  0  0  0
 18 20  1  0  0  0
 20 21  1  0  0  0
 20 42  1  0  0  0
 21 22  2  0  0  0
 21 23  1  0  0  0
 23 28  2  0  0  0
 23 24  1  0  0  0
 24 25  2  0  0  0
 24 43  1  0  0  0
 25 26  1  0  0  0
 25 30  1  0  0  0
 26 27  2  0  0  0
 26 44  1  0  0  0
 27 28  1  0  0  0
 27 29  1  0  0  0
 28 45  1  0  0  0
M  END
> <i_i_glide_confnum>
208

> <i_i_glide_lignum>
3607

> <i_i_glide_posenum>
176

> <i_i_glide_rotatable_bonds>
8

> <i_m_Source_File_Index>
5568

> <b_m_subgroup_collapsed>
0

> <r_i_docking_score>
-3.19599

> <r_i_glide_ecoul>
-11.2657

> <r_i_glide_eff_state_penalty>
0

> <r_i_glide_einternal>
9.01157

> <r_i_glide_emodel>
-43.9954

> <r_i_glide_energy>
-45.1337

> <r_i_glide_erotb>
0.615109

> <r_i_glide_esite>
-0.413462

> <r_i_glide_evdw>
-33.868

> <r_i_glide_gscore>
-3.19599

> <r_i_glide_hbond>
-0.454702

> <r_i_glide_ligand_efficiency>
-0.106533

> <r_i_glide_ligand_efficiency_ln>
-0.726163

> <r_i_glide_ligand_efficiency_sa>
-0.331022

> <r_i_glide_lipo>
-1.52922

> <r_i_glide_metal>
0

> <r_i_glide_rewards>
1.96955

> <s_i_glide_gridfile>
wee1_glide-grid

> <s_m_Source_File>
wee1_decoys_glide_SP.sdf

> <s_m_Source_Path>
/Users/zhangxujun/Desktop

> <s_m_entry_id>
5843

> <s_m_entry_name>
wee1_decoys_glide_SP.5568

> <s_m_subgroup_title>
wee1_decoys_glide_SP

> <s_m_subgroupid>
wee1_decoys_glide_SP


$$$$
