@<TRIPOS>MOLECULE
ZINC41251280_5252
60   64    1
SMALL
USER_CHARGES


@<TRIPOS>ATOM
      1 C1          1.2858   53.1053   24.6777 C.ar      1 UNK         0.0000 
      2 C2          0.9431   52.5736   23.4342 C.ar      1 UNK         0.0000 
      3 C3          1.8578   52.6090   22.3806 C.ar      1 UNK         0.0000 
      4 C4          3.1143   53.1913   22.5723 C.ar      1 UNK         0.0000 
      5 C5          3.4378   53.7672   23.8055 C.ar      1 UNK         0.0000 
      6 C6          2.5351   53.6975   24.8670 C.ar      1 UNK         0.0000 
      7 C7          4.8558   54.2968   23.7849 C.3       1 UNK         0.0000 
      8 C8          5.1927   54.3161   22.2924 C.3       1 UNK         0.0000 
      9 C9          4.3089   53.2476   21.6393 C.3       1 UNK         0.0000 
     10 H10         4.8250   52.2866   21.6670 H         1 UNK         0.0000 
     11 N11         3.9057   53.6099   20.2829 N.am      1 UNK         0.0000 
     12 C12         4.7037   53.5487   19.2038 C.2       1 UNK         0.0000 
     13 O13         5.9040   53.2970   19.2793 O.2       1 UNK         0.0000 
     14 C14         4.0510   53.8127   17.8328 C.3       1 UNK         0.0000 
     15 C15         3.7488   55.3241   17.6869 C.3       1 UNK         0.0000 
     16 C16         2.9835   55.6132   16.3845 C.3       1 UNK         0.0000 
     17 N17         1.7106   54.7281   16.3401 N.4       1 UNK         0.0000 
     18 C18         2.0887   53.2265   16.3294 C.3       1 UNK         0.0000 
     19 C19         2.8036   52.9056   17.6520 C.3       1 UNK         0.0000 
     20 C20         0.8353   55.0582   15.1039 C.3       1 UNK         0.0000 
     21 C21         0.1872   56.4139   15.2815 C.2       1 UNK         0.0000 
     22 N22         0.6630   57.5786   14.9386 N.2       1 UNK         0.0000 
     23 C23        -0.2679   58.4014   15.3850 C.2       1 UNK         0.0000 
     24 N24        -1.3102   57.8359   15.9637 N.2       1 UNK         0.0000 
     25 O25        -1.0067   56.4760   15.9182 O.3       1 UNK         0.0000 
     26 C26        -0.1221   59.8885   15.2822 C.ar      1 UNK         0.0000 
     27 C27         1.1535   60.4660   15.2812 C.ar      1 UNK         0.0000 
     28 C28         1.3032   61.8480   15.2610 C.ar      1 UNK         0.0000 
     29 C29         0.1777   62.6771   15.2495 C.ar      1 UNK         0.0000 
     30 C30        -1.0979   62.1054   15.2339 C.ar      1 UNK         0.0000 
     31 C31        -1.2475   60.7202   15.2523 C.ar      1 UNK         0.0000 
     32 C32         0.3276   64.1984   15.2480 C.3       1 UNK         0.0000 
     33 F33        -0.5610   64.7572   14.4242 F         1 UNK         0.0000 
     34 F34         0.1058   64.6523   16.4817 F         1 UNK         0.0000 
     35 F35         1.5459   64.5849   14.8672 F         1 UNK         0.0000 
     36 H36         0.5878   53.0459   25.4993 H         1 UNK         0.0000 
     37 H37        -0.0221   52.1051   23.2966 H         1 UNK         0.0000 
     38 H38         1.5987   52.1525   21.4363 H         1 UNK         0.0000 
     39 H39         2.7955   54.0942   25.8384 H         1 UNK         0.0000 
     40 H40         4.9584   55.2846   24.2341 H         1 UNK         0.0000 
     41 H41         5.5263   53.6204   24.3156 H         1 UNK         0.0000 
     42 H42         4.9445   55.2958   21.8836 H         1 UNK         0.0000 
     43 H43         6.2519   54.1681   22.0807 H         1 UNK         0.0000 
     44 H44         2.9500   53.9276   20.1627 H         1 UNK         0.0000 
     45 H45         4.8016   53.5188   17.0949 H         1 UNK         0.0000 
     46 H46         3.1037   55.6841   18.4893 H         1 UNK         0.0000 
     47 H47         4.6719   55.9070   17.6453 H         1 UNK         0.0000 
     48 H48         3.5717   55.4032   15.4888 H         1 UNK         0.0000 
     49 H49         2.6727   56.6575   16.3829 H         1 UNK         0.0000 
     50 H50         2.7053   53.0304   15.4487 H         1 UNK         0.0000 
     51 H51         1.1620   52.6534   16.2676 H         1 UNK         0.0000 
     52 H52         3.0937   51.8520   17.6086 H         1 UNK         0.0000 
     53 H53         2.0575   53.0775   18.4302 H         1 UNK         0.0000 
     54 H54         1.4838   54.9904   14.2263 H         1 UNK         0.0000 
     55 H55         0.0835   54.2711   15.0212 H         1 UNK         0.0000 
     56 H56         2.0413   59.8509   15.3268 H         1 UNK         0.0000 
     57 H57         2.3044   62.2604   15.2827 H         1 UNK         0.0000 
     58 H58        -1.9766   62.7338   15.2167 H         1 UNK         0.0000 
     59 H59        -2.2393   60.2972   15.2522 H         1 UNK         0.0000 
     60 H60         1.1459   54.9095   17.1634 H         1 UNK         0.0000 
@<TRIPOS>BOND
     1    1    6 ar   
     2    1    2 ar   
     3    1   36 1    
     4    2    3 ar   
     5    2   37 1    
     6    3    4 ar   
     7    3   38 1    
     8    4    9 1    
     9    4    5 ar   
    10    5    6 ar   
    11    5    7 1    
    12    6   39 1    
    13    7    8 1    
    14    7   40 1    
    15    7   41 1    
    16    8    9 1    
    17    8   42 1    
    18    8   43 1    
    19    9   10 1    
    20    9   11 1    
    21   11   12 am   BACKBONE|DICT|INTERRES
    22   11   44 1    
    23   12   13 2    
    24   12   14 1    
    25   14   19 1    
    26   14   15 1    
    27   14   45 1    
    28   15   16 1    
    29   15   46 1    
    30   15   47 1    
    31   16   17 1    
    32   16   48 1    
    33   16   49 1    
    34   17   18 1    
    35   17   20 1    
    36   17   60 1    
    37   18   19 1    
    38   18   50 1    
    39   18   51 1    
    40   19   52 1    
    41   19   53 1    
    42   20   21 1    
    43   20   54 1    
    44   20   55 1    
    45   21   25 1    
    46   21   22 2    
    47   22   23 1    
    48   23   24 2    
    49   23   26 1    
    50   24   25 1    
    51   26   31 ar   
    52   26   27 ar   
    53   27   28 ar   
    54   27   56 1    
    55   28   29 ar   
    56   28   57 1    
    57   29   30 ar   
    58   29   32 1    
    59   30   31 ar   
    60   30   58 1    
    61   31   59 1    
    62   32   33 1    
    63   32   34 1    
    64   32   35 1    
@<TRIPOS>SUBSTRUCTURE
     1 UNK         1 GROUP             0       ****    0 ROOT    
