ZINC57336358_2379
                    3D
 Schrodinger Suite 2024-2.
 61 66  0  0  1  0            999 V2000
    0.9414   49.9739   22.4929 C   0  0  0  0  0  0
   -0.0959   49.1709   22.0363 C   0  0  0  0  0  0
   -0.9501   48.5546   22.9468 C   0  0  0  0  0  0
   -0.7865   48.7446   24.3315 C   0  0  0  0  0  0
    0.2190   49.6229   24.7906 C   0  0  0  0  0  0
    1.0955   50.1941   23.8586 C   0  0  0  0  0  0
    0.3759   49.9764   26.2816 C   0  0  0  0  0  0
   -0.0297   51.4240   26.6871 C   0  0  0  0  0  0
    1.1108   52.4290   26.4954 C   0  0  0  0  0  0
    1.5144   53.1175   25.3606 C   0  0  0  0  0  0
    2.6480   53.8466   25.6095 N   0  0  0  0  0  0
    3.1107   54.3974   24.8993 H   0  0  0  0  0  0
    3.0172   53.6961   26.9242 C   0  0  0  0  0  0
    2.0675   52.8043   27.5124 C   0  0  0  0  0  0
    2.2298   52.4641   28.8689 C   0  0  0  0  0  0
    3.2974   53.0048   29.5858 C   0  0  0  0  0  0
    4.1998   53.8766   28.9827 C   0  0  0  0  0  0
    4.0857   54.2423   27.6426 C   0  0  0  0  0  0
   -1.3820   51.8385   26.1024 C   0  0  0  0  0  0
   -1.6709   52.4860   24.9092 C   0  0  0  0  0  0
   -3.0226   52.6405   24.7530 N   0  0  0  0  0  0
   -3.4346   53.0887   23.9487 H   0  0  0  0  0  0
   -3.6795   52.0852   25.8251 C   0  0  0  0  0  0
   -2.6712   51.5594   26.6916 C   0  0  0  0  0  0
   -3.0833   50.9182   27.8724 C   0  0  0  0  0  0
   -4.4429   50.8187   28.1607 C   0  0  0  0  0  0
   -5.4000   51.3433   27.2959 C   0  0  0  0  0  0
   -5.0455   51.9885   26.1106 C   0  0  0  0  0  0
   -1.5960   48.0783   25.2804 N   0  0  0  0  0  0
   -2.2121   46.8846   25.1557 C   0  0  0  0  0  0
   -2.1594   46.1748   24.1452 O   0  0  0  0  0  0
   -2.9521   46.3731   26.4076 C   0  0  1  0  0  0
   -2.1982   46.1007   27.1500 H   0  0  0  0  0  0
   -3.9943   47.3651   26.9741 C   0  0  0  0  0  0
   -5.2759   46.5560   27.0483 C   0  0  0  0  0  0
   -4.8105   45.1092   26.9566 C   0  0  0  0  0  0
   -3.6964   45.1910   26.0821 O   0  0  0  0  0  0
    1.6216   50.4344   21.7906 H   0  0  0  0  0  0
   -0.2277   49.0106   20.9759 H   0  0  0  0  0  0
   -1.7380   47.9304   22.5564 H   0  0  0  0  0  0
    1.9049   50.8274   24.1795 H   0  0  0  0  0  0
    1.3812   49.7307   26.6168 H   0  0  0  0  0  0
   -0.2137   49.2961   26.8816 H   0  0  0  0  0  0
   -0.1860   51.3871   27.7665 H   0  0  0  0  0  0
    1.1092   53.1191   24.3595 H   0  0  0  0  0  0
    1.5380   51.7878   29.3482 H   0  0  0  0  0  0
    3.4278   52.7411   30.6259 H   0  0  0  0  0  0
    5.0160   54.2800   29.5667 H   0  0  0  0  0  0
    4.7995   54.9123   27.1867 H   0  0  0  0  0  0
   -1.0182   52.8491   24.1333 H   0  0  0  0  0  0
   -2.3566   50.4967   28.5530 H   0  0  0  0  0  0
   -4.7542   50.3179   29.0654 H   0  0  0  0  0  0
   -6.4447   51.2389   27.5489 H   0  0  0  0  0  0
   -5.7995   52.3831   25.4463 H   0  0  0  0  0  0
   -1.5753   48.4640   26.2192 H   0  0  0  0  0  0
   -3.7115   47.6691   27.9852 H   0  0  0  0  0  0
   -4.1657   48.2491   26.3561 H   0  0  0  0  0  0
   -5.8455   46.7534   27.9583 H   0  0  0  0  0  0
   -5.9212   46.7933   26.2010 H   0  0  0  0  0  0
   -4.4960   44.6826   27.9105 H   0  0  0  0  0  0
   -5.5724   44.4391   26.5557 H   0  0  0  0  0  0
  1  6  2  0  0  0
  1  2  1  0  0  0
  1 38  1  0  0  0
  2  3  2  0  0  0
  2 39  1  0  0  0
  3  4  1  0  0  0
  3 40  1  0  0  0
  4  5  2  0  0  0
  4 29  1  0  0  0
  5  6  1  0  0  0
  5  7  1  0  0  0
  6 41  1  0  0  0
  7  8  1  0  0  0
  7 42  1  0  0  0
  7 43  1  0  0  0
  8  9  1  0  0  0
  8 19  1  0  0  0
  8 44  1  0  0  0
  9 14  1  0  0  0
  9 10  2  0  0  0
 10 11  1  0  0  0
 10 45  1  0  0  0
 11 12  1  0  0  0
 11 13  1  0  0  0
 13 18  2  0  0  0
 13 14  1  0  0  0
 14 15  2  0  0  0
 15 16  1  0  0  0
 15 46  1  0  0  0
 16 17  2  0  0  0
 16 47  1  0  0  0
 17 18  1  0  0  0
 17 48  1  0  0  0
 18 49  1  0  0  0
 19 24  1  0  0  0
 19 20  2  0  0  0
 20 21  1  0  0  0
 20 50  1  0  0  0
 21 22  1  0  0  0
 21 23  1  0  0  0
 23 28  2  0  0  0
 23 24  1  0  0  0
 24 25  2  0  0  0
 25 26  1  0  0  0
 25 51  1  0  0  0
 26 27  2  0  0  0
 26 52  1  0  0  0
 27 28  1  0  0  0
 27 53  1  0  0  0
 28 54  1  0  0  0
 29 30  1  0  0  0
 29 55  1  0  0  0
 30 31  2  0  0  0
 30 32  1  0  0  0
 32 33  1  0  0  0
 32 37  1  0  0  0
 32 34  1  0  0  0
 34 35  1  0  0  0
 34 56  1  0  0  0
 34 57  1  0  0  0
 35 36  1  0  0  0
 35 58  1  0  0  0
 35 59  1  0  0  0
 36 37  1  0  0  0
 36 60  1  0  0  0
 36 61  1  0  0  0
M  END
> <i_i_glide_confnum>
30

> <i_i_glide_lignum>
2380

> <i_i_glide_posenum>
295

> <i_i_glide_rotatable_bonds>
7

> <i_m_Source_File_Index>
4843

> <b_m_subgroup_collapsed>
0

> <r_i_docking_score>
-4.78593

> <r_i_glide_ecoul>
-7.58847

> <r_i_glide_eff_state_penalty>
0

> <r_i_glide_einternal>
6.1052

> <r_i_glide_emodel>
-57.3133

> <r_i_glide_energy>
-45.0846

> <r_i_glide_erotb>
0.694209

> <r_i_glide_esite>
-0.184791

> <r_i_glide_evdw>
-37.4962

> <r_i_glide_gscore>
-4.78593

> <r_i_glide_hbond>
-0.268941

> <r_i_glide_ligand_efficiency>
-0.140763

> <r_i_glide_ligand_efficiency_ln>
-1.05735

> <r_i_glide_ligand_efficiency_sa>
-0.456016

> <r_i_glide_lipo>
-1.66931

> <r_i_glide_metal>
0

> <r_i_glide_rewards>
-0.344021

> <s_i_glide_gridfile>
wee1_glide-grid

> <s_m_Source_File>
wee1_decoys_glide_SP.sdf

> <s_m_Source_Path>
/Users/zhangxujun/Desktop

> <s_m_entry_id>
5118

> <s_m_entry_name>
wee1_decoys_glide_SP.4843

> <s_m_subgroup_title>
wee1_decoys_glide_SP

> <s_m_subgroupid>
wee1_decoys_glide_SP


$$$$
