@<TRIPOS>MOLECULE
ZINC62824278_3795
33   35    1
SMALL
USER_CHARGES


@<TRIPOS>ATOM
      1 C1         -1.5132   51.2985   27.6436 C.ar      1 UNK         0.0000 
      2 C2         -1.2959   51.6380   28.9781 C.ar      1 UNK         0.0000 
      3 C3         -0.0570   52.1033   29.4104 C.ar      1 UNK         0.0000 
      4 C4          1.0012   52.2131   28.4864 C.ar      1 UNK         0.0000 
      5 C5          0.7686   51.8751   27.1460 C.ar      1 UNK         0.0000 
      6 C6         -0.4810   51.4316   26.7222 C.ar      1 UNK         0.0000 
      7 I7         -0.7870   50.9417   24.7133 I         1 UNK         0.0000 
      8 C8          2.3964   52.5969   28.8665 C.ar      1 UNK         0.0000 
      9 N9          3.0177   52.0967   29.9029 N.2       1 UNK         0.0000 
     10 N10         4.3043   52.6039   29.8946 N.2       1 UNK         0.0000 
     11 C11         4.4048   53.4277   28.8816 C.ar      1 UNK         0.0000 
     12 N12         3.2207   53.4700   28.1803 N.pl3     1 UNK         0.0000 
     13 C13         2.9247   54.3481   27.0592 C.3       1 UNK         0.0000 
     14 C14         3.8006   54.0969   25.8194 C.3       1 UNK         0.0000 
     15 C15         5.2505   54.6101   25.9305 C.3       1 UNK         0.0000 
     16 C16         6.1167   53.9697   27.0325 C.3       1 UNK         0.0000 
     17 C17         5.6490   54.2049   28.4816 C.3       1 UNK         0.0000 
     18 N18         0.0865   52.4504   30.7587 N.pl3     1 UNK         0.0000 
     19 H19        -2.4745   50.9153   27.3342 H         1 UNK         0.0000 
     20 H20        -2.0969   51.4899   29.6818 H         1 UNK         0.0000 
     21 H21         1.5651   51.9358   26.4212 H         1 UNK         0.0000 
     22 H22         3.0569   55.3673   27.4144 H         1 UNK         0.0000 
     23 H23         1.8676   54.2731   26.8115 H         1 UNK         0.0000 
     24 H24         3.3334   54.5869   24.9639 H         1 UNK         0.0000 
     25 H25         3.7980   53.0335   25.5787 H         1 UNK         0.0000 
     26 H26         5.2377   55.6917   26.0679 H         1 UNK         0.0000 
     27 H27         5.7444   54.4474   24.9714 H         1 UNK         0.0000 
     28 H28         7.1296   54.3624   26.9341 H         1 UNK         0.0000 
     29 H29         6.2045   52.8973   26.8541 H         1 UNK         0.0000 
     30 H30         6.4790   53.9437   29.1398 H         1 UNK         0.0000 
     31 H31         5.5000   55.2732   28.6499 H         1 UNK         0.0000 
     32 H32         1.0181   52.6537   31.0863 H         1 UNK         0.0000 
     33 H33        -0.6084   52.1213   31.4300 H         1 UNK         0.0000 
@<TRIPOS>BOND
     1    1    6 ar   
     2    1    2 ar   
     3    1   19 1    
     4    2    3 ar   
     5    2   20 1    
     6    3    4 ar   
     7    3   18 1    
     8    4    5 ar   
     9    4    8 1    
    10    5    6 ar   
    11    5   21 1    
    12    6    7 1    
    13    8   12 ar   
    14    8    9 ar   
    15    9   10 ar   
    16   10   11 ar   
    17   11   17 1    
    18   11   12 ar   
    19   12   13 1    
    20   13   14 1    
    21   13   22 1    
    22   13   23 1    
    23   14   15 1    
    24   14   24 1    
    25   14   25 1    
    26   15   16 1    
    27   15   26 1    
    28   15   27 1    
    29   16   17 1    
    30   16   28 1    
    31   16   29 1    
    32   17   30 1    
    33   17   31 1    
    34   18   32 1    
    35   18   33 1    
@<TRIPOS>SUBSTRUCTURE
     1 UNK         1 GROUP             0       ****    0 ROOT    
