ZINC23482006_4127
                    3D
 Schrodinger Suite 2024-2.
 55 56  0  0  1  0            999 V2000
    5.4978   53.9812   22.8276 C   0  0  0  0  0  0
    5.4170   54.4161   21.3687 C   0  0  0  0  0  0
    6.3875   55.2970   20.8790 C   0  0  0  0  0  0
    6.3317   55.7504   19.5611 C   0  0  0  0  0  0
    5.2861   55.3571   18.7298 C   0  0  0  0  0  0
    4.3084   54.4870   19.2053 C   0  0  0  0  0  0
    4.3804   53.9919   20.5099 C   0  0  0  0  0  0
    3.3769   53.0875   20.8820 N   0  0  0  0  0  0
    3.5759   51.8031   21.2439 C   0  0  0  0  0  0
    4.6977   51.2969   21.2818 O   0  0  0  0  0  0
    2.3504   50.8674   21.3746 C   0  0  0  0  0  0
    1.0420   51.5353   21.5721 N   0  0  0  0  0  0
    0.4473   52.2230   20.4214 C   0  0  0  0  0  0
    0.4590   51.6972   22.7945 C   0  0  0  0  0  0
   -0.4794   52.4792   22.9860 O   0  0  0  0  0  0
    0.8962   50.7735   23.9774 C   0  0  2  0  0  0
    1.9856   50.7835   24.0057 H   0  0  0  0  0  0
    0.4038   49.2846   23.7489 C   0  0  0  0  0  0
    0.3048   48.4423   25.0433 C   0  0  0  0  0  0
   -0.9028   49.0826   22.9416 C   0  0  0  0  0  0
    0.5330   51.2486   25.3213 N   0  0  0  0  0  0
    0.8673   52.3982   25.9327 C   0  0  0  0  0  0
    1.5077   53.2929   25.3786 O   0  0  0  0  0  0
    0.4901   52.4716   27.4009 C   0  0  0  0  0  0
   -0.6276   51.7767   27.9146 C   0  0  0  0  0  0
   -0.8950   51.7714   29.2817 C   0  0  0  0  0  0
   -0.0955   52.4965   30.1593 C   0  0  0  0  0  0
    0.9834   53.2242   29.6650 C   0  0  0  0  0  0
    1.2847   53.2070   28.3032 C   0  0  0  0  0  0
    2.3727   53.8991   27.8886 F   0  0  0  0  0  0
   -1.4732   51.0964   27.1044 F   0  0  0  0  0  0
    7.6854   56.8976   18.8815 Br  0  0  0  0  0  0
    6.0454   54.7057   23.4315 H   0  0  0  0  0  0
    4.5003   53.9041   23.2639 H   0  0  0  0  0  0
    5.9883   53.0106   22.9131 H   0  0  0  0  0  0
    7.2001   55.6169   21.5156 H   0  0  0  0  0  0
    5.2387   55.7162   17.7121 H   0  0  0  0  0  0
    3.5090   54.1791   18.5465 H   0  0  0  0  0  0
    2.4291   53.4070   20.7442 H   0  0  0  0  0  0
    2.5743   50.0224   22.0233 H   0  0  0  0  0  0
    2.2662   50.3898   20.3970 H   0  0  0  0  0  0
    0.4279   53.2966   20.5922 H   0  0  0  0  0  0
    1.0055   52.0304   19.5029 H   0  0  0  0  0  0
   -0.5798   51.8916   20.2648 H   0  0  0  0  0  0
    1.1859   48.7951   23.1664 H   0  0  0  0  0  0
   -0.5265   48.7596   25.6751 H   0  0  0  0  0  0
    0.1466   47.3876   24.8175 H   0  0  0  0  0  0
    1.2127   48.5053   25.6443 H   0  0  0  0  0  0
   -1.7298   49.6323   23.3938 H   0  0  0  0  0  0
   -0.8028   49.4100   21.9061 H   0  0  0  0  0  0
   -1.1892   48.0310   22.9096 H   0  0  0  0  0  0
   -0.0541   50.6144   25.8445 H   0  0  0  0  0  0
   -1.7288   51.1973   29.6633 H   0  0  0  0  0  0
   -0.3140   52.4903   31.2198 H   0  0  0  0  0  0
    1.6017   53.7929   30.3416 H   0  0  0  0  0  0
  1  2  1  0  0  0
  1 33  1  0  0  0
  1 34  1  0  0  0
  1 35  1  0  0  0
  2  7  2  0  0  0
  2  3  1  0  0  0
  3  4  2  0  0  0
  3 36  1  0  0  0
  4  5  1  0  0  0
  4 32  1  0  0  0
  5  6  2  0  0  0
  5 37  1  0  0  0
  6  7  1  0  0  0
  6 38  1  0  0  0
  7  8  1  0  0  0
  8  9  1  0  0  0
  8 39  1  0  0  0
  9 10  2  0  0  0
  9 11  1  0  0  0
 11 12  1  0  0  0
 11 40  1  0  0  0
 11 41  1  0  0  0
 12 13  1  0  0  0
 12 14  1  0  0  0
 13 42  1  0  0  0
 13 43  1  0  0  0
 13 44  1  0  0  0
 14 15  2  0  0  0
 14 16  1  0  0  0
 16 17  1  0  0  0
 16 18  1  0  0  0
 16 21  1  0  0  0
 18 19  1  0  0  0
 18 20  1  0  0  0
 18 45  1  0  0  0
 19 46  1  0  0  0
 19 47  1  0  0  0
 19 48  1  0  0  0
 20 49  1  0  0  0
 20 50  1  0  0  0
 20 51  1  0  0  0
 21 22  1  0  0  0
 21 52  1  0  0  0
 22 23  2  0  0  0
 22 24  1  0  0  0
 24 29  2  0  0  0
 24 25  1  0  0  0
 25 26  2  0  0  0
 25 31  1  0  0  0
 26 27  1  0  0  0
 26 53  1  0  0  0
 27 28  2  0  0  0
 27 54  1  0  0  0
 28 29  1  0  0  0
 28 55  1  0  0  0
 29 30  1  0  0  0
M  END
> <i_i_glide_confnum>
120

> <i_i_glide_lignum>
4128

> <i_i_glide_posenum>
342

> <i_i_glide_rotatable_bonds>
10

> <i_m_Source_File_Index>
4529

> <b_m_subgroup_collapsed>
0

> <r_i_docking_score>
-4.27443

> <r_i_glide_ecoul>
-5.99065

> <r_i_glide_eff_state_penalty>
0

> <r_i_glide_einternal>
16.5885

> <r_i_glide_emodel>
-49.7677

> <r_i_glide_energy>
-45.865

> <r_i_glide_erotb>
0.662178

> <r_i_glide_esite>
-0.101993

> <r_i_glide_evdw>
-39.8743

> <r_i_glide_gscore>
-4.27443

> <r_i_glide_hbond>
-0.144043

> <r_i_glide_ligand_efficiency>
-0.137885

> <r_i_glide_ligand_efficiency_ln>
-0.964014

> <r_i_glide_ligand_efficiency_sa>
-0.433148

> <r_i_glide_lipo>
-1.35656

> <r_i_glide_metal>
0

> <r_i_glide_rewards>
-0.441698

> <s_i_glide_gridfile>
wee1_glide-grid

> <s_m_Source_File>
wee1_decoys_glide_SP.sdf

> <s_m_Source_Path>
/Users/zhangxujun/Desktop

> <s_m_entry_id>
4804

> <s_m_entry_name>
wee1_decoys_glide_SP.4529

> <s_m_subgroup_title>
wee1_decoys_glide_SP

> <s_m_subgroupid>
wee1_decoys_glide_SP


$$$$
