ZINC40097441_3830
                    3D
 Schrodinger Suite 2024-2.
 34 35  0  0  1  0            999 V2000
    6.8485   54.4330   27.3216 C   0  0  0  0  0  0
    5.9429   54.4900   26.1196 C   0  0  0  0  0  0
    4.5692   54.4975   25.9529 C   0  0  0  0  0  0
    4.3335   54.4946   24.5794 C   0  0  0  0  0  0
    5.5736   54.4964   23.9522 C   0  0  0  0  0  0
    6.5473   54.5162   24.9025 O   0  0  0  0  0  0
    6.0400   54.3815   22.5074 C   0  0  2  0  0  0
    6.7211   53.5330   22.4833 H   0  0  0  0  0  0
    6.8803   55.5791   22.0347 C   0  0  0  0  0  0
    4.9269   54.0978   21.5867 N   0  0  0  0  0  0
    4.4735   52.8528   21.3576 C   0  0  0  0  0  0
    5.1042   51.8437   21.6766 O   0  0  0  0  0  0
    3.2620   52.8137   20.7726 N   0  0  0  0  0  0
    2.5986   51.5999   20.5381 C   0  0  0  0  0  0
    2.4628   51.1492   19.2222 C   0  0  0  0  0  0
    1.9040   49.8954   18.9688 C   0  0  0  0  0  0
    1.4577   49.0992   20.0246 C   0  0  0  0  0  0
    1.5535   49.5638   21.3365 C   0  0  0  0  0  0
    2.1185   50.8119   21.5986 C   0  0  0  0  0  0
    2.2066   51.2407   22.8803 F   0  0  0  0  0  0
    0.7337   47.3725   19.6795 Br  0  0  0  0  0  0
    6.2858   54.4131   28.2548 H   0  0  0  0  0  0
    7.5044   55.2970   27.3661 H   0  0  0  0  0  0
    7.4772   53.5429   27.3069 H   0  0  0  0  0  0
    3.8271   54.4756   26.7370 H   0  0  0  0  0  0
    3.3701   54.4615   24.0919 H   0  0  0  0  0  0
    7.7198   55.7643   22.7030 H   0  0  0  0  0  0
    7.2927   55.3957   21.0413 H   0  0  0  0  0  0
    6.3044   56.4966   21.9789 H   0  0  0  0  0  0
    4.2869   54.8599   21.4254 H   0  0  0  0  0  0
    2.8464   53.6578   20.4043 H   0  0  0  0  0  0
    2.8481   51.7334   18.3980 H   0  0  0  0  0  0
    1.8506   49.5319   17.9522 H   0  0  0  0  0  0
    1.2074   48.9533   22.1567 H   0  0  0  0  0  0
  1  2  1  0  0  0
  1 22  1  0  0  0
  1 23  1  0  0  0
  1 24  1  0  0  0
  2  6  1  0  0  0
  2  3  2  0  0  0
  3  4  1  0  0  0
  3 25  1  0  0  0
  4  5  2  0  0  0
  4 26  1  0  0  0
  5  6  1  0  0  0
  5  7  1  0  0  0
  7  8  1  0  0  0
  7  9  1  0  0  0
  7 10  1  0  0  0
  9 27  1  0  0  0
  9 28  1  0  0  0
  9 29  1  0  0  0
 10 11  1  0  0  0
 10 30  1  0  0  0
 11 12  2  0  0  0
 11 13  1  0  0  0
 13 14  1  0  0  0
 13 31  1  0  0  0
 14 19  2  0  0  0
 14 15  1  0  0  0
 15 16  2  0  0  0
 15 32  1  0  0  0
 16 17  1  0  0  0
 16 33  1  0  0  0
 17 18  2  0  0  0
 17 21  1  0  0  0
 18 19  1  0  0  0
 18 34  1  0  0  0
 19 20  1  0  0  0
M  END
> <i_i_glide_confnum>
23

> <i_i_glide_lignum>
3831

> <i_i_glide_posenum>
395

> <i_i_glide_rotatable_bonds>
5

> <i_m_Source_File_Index>
5494

> <b_m_subgroup_collapsed>
0

> <r_i_docking_score>
-4.98501

> <r_i_glide_ecoul>
-4.50281

> <r_i_glide_eff_state_penalty>
0

> <r_i_glide_einternal>
6.92762

> <r_i_glide_emodel>
-43.9744

> <r_i_glide_energy>
-35.519

> <r_i_glide_erotb>
0.651084

> <r_i_glide_esite>
0

> <r_i_glide_evdw>
-31.0162

> <r_i_glide_gscore>
-4.98501

> <r_i_glide_hbond>
-0.211995

> <r_i_glide_ligand_efficiency>
-0.24925

> <r_i_glide_ligand_efficiency_ln>
-1.24758

> <r_i_glide_ligand_efficiency_sa>
-0.67657

> <r_i_glide_lipo>
-1.77714

> <r_i_glide_metal>
0

> <r_i_glide_rewards>
-1.42072

> <s_i_glide_gridfile>
wee1_glide-grid

> <s_m_Source_File>
wee1_decoys_glide_SP.sdf

> <s_m_Source_Path>
/Users/zhangxujun/Desktop

> <s_m_entry_id>
5769

> <s_m_entry_name>
wee1_decoys_glide_SP.5494

> <s_m_subgroup_title>
wee1_decoys_glide_SP

> <s_m_subgroupid>
wee1_decoys_glide_SP


$$$$
