@<TRIPOS>MOLECULE
ZINC27637487_2054
59   62    1
SMALL
USER_CHARGES


@<TRIPOS>ATOM
      1 C1          8.1914   57.0096   17.9257 C.3       1 UNK         0.0000 
      2 C2          8.1598   55.4683   17.9773 C.3       1 UNK         0.0000 
      3 C3          9.4491   54.8944   18.5840 C.3       1 UNK         0.0000 
      4 C4          6.9313   54.9117   18.6970 C.ar      1 UNK         0.0000 
      5 C5          6.2335   53.8434   18.1296 C.ar      1 UNK         0.0000 
      6 C6          5.1305   53.3025   18.7829 C.ar      1 UNK         0.0000 
      7 C7          4.7320   53.8201   20.0184 C.ar      1 UNK         0.0000 
      8 C8          5.4211   54.8915   20.5890 C.ar      1 UNK         0.0000 
      9 C9          6.5219   55.4310   19.9324 C.ar      1 UNK         0.0000 
     10 N10         3.6181   53.2966   20.6882 N.am      1 UNK         0.0000 
     11 C11         3.4808   52.0045   21.0633 C.2       1 UNK         0.0000 
     12 O12         4.3479   51.1525   20.8817 O.2       1 UNK         0.0000 
     13 C13         2.2176   51.6425   21.8113 C.ar      1 UNK         0.0000 
     14 C14         2.1860   50.4918   22.6129 C.ar      1 UNK         0.0000 
     15 C15         1.0550   50.1811   23.3609 C.ar      1 UNK         0.0000 
     16 C16        -0.0677   51.0156   23.3169 C.ar      1 UNK         0.0000 
     17 C17        -0.0651   52.1175   22.4711 C.ar      1 UNK         0.0000 
     18 C18         1.0656   52.4320   21.7263 C.ar      1 UNK         0.0000 
     19 N19        -1.2259   50.8162   24.0771 N.pl3     1 UNK         0.0000 
     20 S20        -1.2874   50.0651   25.6815 S.o2      1 UNK         0.0000 
     21 O21        -2.7160   49.9704   26.0002 O.2       1 UNK         0.0000 
     22 O22        -0.4464   48.8665   25.6498 O.2       1 UNK         0.0000 
     23 C23        -0.5585   51.2137   26.8613 C.ar      1 UNK         0.0000 
     24 C24        -1.0968   51.2968   28.1433 C.ar      1 UNK         0.0000 
     25 C25        -0.4931   52.0996   29.1080 C.ar      1 UNK         0.0000 
     26 C26         0.6366   52.8629   28.8071 C.ar      1 UNK         0.0000 
     27 C27         1.1795   52.7977   27.4957 C.ar      1 UNK         0.0000 
     28 C28         0.5816   51.9611   26.5491 C.ar      1 UNK         0.0000 
     29 O29         2.3269   53.4598   27.1014 O.3       1 UNK         0.0000 
     30 C30         3.3774   53.5921   28.0519 C.3       1 UNK         0.0000 
     31 C31         3.1590   54.7763   29.0015 C.3       1 UNK         0.0000 
     32 C32         1.6975   54.9270   29.4436 C.3       1 UNK         0.0000 
     33 O33         1.1179   53.6806   29.8113 O.3       1 UNK         0.0000 
     34 H34         7.2573   57.4095   17.5245 H         1 UNK         0.0000 
     35 H35         8.9988   57.3653   17.2843 H         1 UNK         0.0000 
     36 H36         8.3466   57.4532   18.9110 H         1 UNK         0.0000 
     37 H37         8.1163   55.1385   16.9374 H         1 UNK         0.0000 
     38 H38         9.4857   53.8078   18.4792 H         1 UNK         0.0000 
     39 H39        10.3348   55.3024   18.0954 H         1 UNK         0.0000 
     40 H40         9.5072   55.1238   19.6488 H         1 UNK         0.0000 
     41 H41         6.5377   53.4224   17.1821 H         1 UNK         0.0000 
     42 H42         4.5866   52.4917   18.3255 H         1 UNK         0.0000 
     43 H43         5.1165   55.2967   21.5405 H         1 UNK         0.0000 
     44 H44         7.0607   56.2458   20.3935 H         1 UNK         0.0000 
     45 H45         2.8936   53.9559   20.9375 H         1 UNK         0.0000 
     46 H46         3.0451   49.8402   22.6832 H         1 UNK         0.0000 
     47 H47         1.0917   49.2951   23.9754 H         1 UNK         0.0000 
     48 H48        -0.9369   52.7489   22.4074 H         1 UNK         0.0000 
     49 H49         1.0307   53.2965   21.0842 H         1 UNK         0.0000 
     50 H50        -2.0285   51.3761   23.8493 H         1 UNK         0.0000 
     51 H51        -1.9549   50.6950   28.4113 H         1 UNK         0.0000 
     52 H52        -0.9063   52.1288   30.1095 H         1 UNK         0.0000 
     53 H53         1.0346   51.8912   25.5696 H         1 UNK         0.0000 
     54 H54         4.3101   53.7316   27.5056 H         1 UNK         0.0000 
     55 H55         3.5157   52.6576   28.6023 H         1 UNK         0.0000 
     56 H56         3.4731   55.6964   28.5088 H         1 UNK         0.0000 
     57 H57         3.8066   54.6614   29.8707 H         1 UNK         0.0000 
     58 H58         1.0942   55.4172   28.6745 H         1 UNK         0.0000 
     59 H59         1.6441   55.5903   30.3071 H         1 UNK         0.0000 
@<TRIPOS>BOND
     1    1    2 1    
     2    1   34 1    
     3    1   35 1    
     4    1   36 1    
     5    2    3 1    
     6    2    4 1    
     7    2   37 1    
     8    3   38 1    
     9    3   39 1    
    10    3   40 1    
    11    4    9 ar   
    12    4    5 ar   
    13    5    6 ar   
    14    5   41 1    
    15    6    7 ar   
    16    6   42 1    
    17    7    8 ar   
    18    7   10 1    
    19    8    9 ar   
    20    8   43 1    
    21    9   44 1    
    22   10   11 am   BACKBONE|DICT|INTERRES
    23   10   45 1    
    24   11   12 2    
    25   11   13 1    
    26   13   18 ar   
    27   13   14 ar   
    28   14   15 ar   
    29   14   46 1    
    30   15   16 ar   
    31   15   47 1    
    32   16   17 ar   
    33   16   19 1    
    34   17   18 ar   
    35   17   48 1    
    36   18   49 1    
    37   19   20 1    
    38   19   50 1    
    39   20   21 2    
    40   20   22 2    
    41   20   23 1    
    42   23   28 ar   
    43   23   24 ar   
    44   24   25 ar   
    45   24   51 1    
    46   25   26 ar   
    47   25   52 1    
    48   26   33 1    
    49   26   27 ar   
    50   27   28 ar   
    51   27   29 1    
    52   28   53 1    
    53   29   30 1    
    54   30   31 1    
    55   30   54 1    
    56   30   55 1    
    57   31   32 1    
    58   31   56 1    
    59   31   57 1    
    60   32   33 1    
    61   32   58 1    
    62   32   59 1    
@<TRIPOS>SUBSTRUCTURE
     1 UNK         1 GROUP             0       ****    0 ROOT    
