ZINC21734403_3261
                    3D
 Schrodinger Suite 2024-2.
 62 65  0  0  1  0            999 V2000
    6.6817   53.8058   26.6869 C   0  0  0  0  0  0
    5.7408   54.9758   26.3164 C   0  0  0  0  0  0
    6.2299   55.6626   25.0261 C   0  0  0  0  0  0
    4.1971   54.6861   26.2900 C   0  0  2  0  0  0
    3.7308   55.6629   26.1419 H   0  0  0  0  0  0
    3.6788   54.1441   27.6325 C   0  0  0  0  0  0
    4.0943   52.8966   28.0796 C   0  0  0  0  0  0
    3.6602   52.3707   29.2856 C   0  0  0  0  0  0
    2.7699   53.0762   30.0817 C   0  0  0  0  0  0
    2.3260   54.3467   29.6454 C   0  0  0  0  0  0
    2.7905   54.8696   28.4336 C   0  0  0  0  0  0
    1.4466   55.1101   30.3671 O   0  0  0  0  0  0
    0.1968   54.5050   30.6352 C   0  0  0  0  0  0
    0.2516   53.5511   31.8171 C   0  0  0  0  0  0
    1.0287   52.2711   31.5212 C   0  0  0  0  0  0
    2.4099   52.4968   31.2770 O   0  0  0  0  0  0
    3.7550   53.8926   25.1219 N   0  0  0  0  0  0
    2.4692   53.6485   24.7889 C   0  0  0  0  0  0
    1.5243   54.0935   25.4279 O   0  0  0  0  0  0
    2.1886   52.7813   23.5452 C   0  0  0  0  0  0
    0.8594   52.0936   23.5601 N   0  0  0  0  0  0
    0.3027   51.4128   24.6016 C   0  0  0  0  0  0
    0.7044   51.2969   25.7599 O   0  0  0  0  0  0
   -0.9662   50.7640   24.0757 C   0  0  1  0  0  0
   -0.7733   51.0110   22.6734 N   0  0  0  0  0  0
    0.2032   51.8777   22.3898 C   0  0  0  0  0  0
    0.3142   52.4964   21.3357 O   0  0  0  0  0  0
   -0.8873   49.2343   24.3502 C   0  0  0  0  0  0
   -2.2039   51.4750   24.6820 C   0  0  0  0  0  0
   -2.7632   51.0258   25.8917 C   0  0  0  0  0  0
   -3.8370   51.6958   26.4784 C   0  0  0  0  0  0
   -4.3677   52.8324   25.8719 C   0  0  0  0  0  0
   -3.8255   53.2969   24.6747 C   0  0  0  0  0  0
   -2.7602   52.6190   24.0828 C   0  0  0  0  0  0
   -4.3132   54.4174   24.0939 F   0  0  0  0  0  0
   -5.3945   53.4915   26.4565 F   0  0  0  0  0  0
    6.5247   52.9100   26.0820 H   0  0  0  0  0  0
    7.7173   54.1108   26.5864 H   0  0  0  0  0  0
    6.5884   53.5259   27.7356 H   0  0  0  0  0  0
    5.8979   55.6967   27.1159 H   0  0  0  0  0  0
    6.0738   55.0406   24.1440 H   0  0  0  0  0  0
    5.7023   56.6022   24.8817 H   0  0  0  0  0  0
    7.2911   55.9056   25.0697 H   0  0  0  0  0  0
    4.7587   52.3078   27.4731 H   0  0  0  0  0  0
    4.0154   51.4024   29.6023 H   0  0  0  0  0  0
    2.4325   55.8365   28.1130 H   0  0  0  0  0  0
   -0.4954   55.2967   30.8843 H   0  0  0  0  0  0
   -0.2229   54.0325   29.7441 H   0  0  0  0  0  0
    0.6792   54.0489   32.6877 H   0  0  0  0  0  0
   -0.7690   53.2967   32.0816 H   0  0  0  0  0  0
    0.9569   51.6129   32.3880 H   0  0  0  0  0  0
    0.5782   51.7238   30.6903 H   0  0  0  0  0  0
    4.4843   53.5721   24.5034 H   0  0  0  0  0  0
    2.1905   53.4935   22.7182 H   0  0  0  0  0  0
    2.9975   52.0947   23.3294 H   0  0  0  0  0  0
   -1.1785   50.4052   21.9760 H   0  0  0  0  0  0
   -0.7439   49.0015   25.4078 H   0  0  0  0  0  0
   -1.8014   48.7329   24.0325 H   0  0  0  0  0  0
   -0.0593   48.7608   23.8182 H   0  0  0  0  0  0
   -2.3578   50.1665   26.4081 H   0  0  0  0  0  0
   -4.2476   51.3392   27.4121 H   0  0  0  0  0  0
   -2.3531   53.0177   23.1661 H   0  0  0  0  0  0
  1  2  1  0  0  0
  1 37  1  0  0  0
  1 38  1  0  0  0
  1 39  1  0  0  0
  2  3  1  0  0  0
  2  4  1  0  0  0
  2 40  1  0  0  0
  3 41  1  0  0  0
  3 42  1  0  0  0
  3 43  1  0  0  0
  4  5  1  0  0  0
  4  6  1  0  0  0
  4 17  1  0  0  0
  6 11  2  0  0  0
  6  7  1  0  0  0
  7  8  2  0  0  0
  7 44  1  0  0  0
  8  9  1  0  0  0
  8 45  1  0  0  0
  9 16  1  0  0  0
  9 10  2  0  0  0
 10 11  1  0  0  0
 10 12  1  0  0  0
 11 46  1  0  0  0
 12 13  1  0  0  0
 13 14  1  0  0  0
 13 47  1  0  0  0
 13 48  1  0  0  0
 14 15  1  0  0  0
 14 49  1  0  0  0
 14 50  1  0  0  0
 15 16  1  0  0  0
 15 51  1  0  0  0
 15 52  1  0  0  0
 17 18  1  0  0  0
 17 53  1  0  0  0
 18 19  2  0  0  0
 18 20  1  0  0  0
 20 21  1  0  0  0
 20 54  1  0  0  0
 20 55  1  0  0  0
 21 26  1  0  0  0
 21 22  1  0  0  0
 22 23  2  0  0  0
 22 24  1  0  0  0
 24 25  1  0  0  0
 24 28  1  0  0  0
 24 29  1  0  0  0
 25 26  1  0  0  0
 25 56  1  0  0  0
 26 27  2  0  0  0
 28 57  1  0  0  0
 28 58  1  0  0  0
 28 59  1  0  0  0
 29 34  2  0  0  0
 29 30  1  0  0  0
 30 31  2  0  0  0
 30 60  1  0  0  0
 31 32  1  0  0  0
 31 61  1  0  0  0
 32 33  2  0  0  0
 32 36  1  0  0  0
 33 34  1  0  0  0
 33 35  1  0  0  0
 34 62  1  0  0  0
M  END
> <i_i_glide_confnum>
110

> <i_i_glide_lignum>
3262

> <i_i_glide_posenum>
191

> <i_i_glide_rotatable_bonds>
7

> <i_m_Source_File_Index>
2528

> <b_m_subgroup_collapsed>
0

> <r_i_docking_score>
-6.15262

> <r_i_glide_ecoul>
-3.11708

> <r_i_glide_eff_state_penalty>
0

> <r_i_glide_einternal>
4.7379

> <r_i_glide_emodel>
-56.785

> <r_i_glide_energy>
-42.2487

> <r_i_glide_erotb>
0.427721

> <r_i_glide_esite>
0

> <r_i_glide_evdw>
-39.1317

> <r_i_glide_gscore>
-6.15262

> <r_i_glide_hbond>
-0.199205

> <r_i_glide_ligand_efficiency>
-0.175789

> <r_i_glide_ligand_efficiency_ln>
-1.35064

> <r_i_glide_ligand_efficiency_sa>
-0.575018

> <r_i_glide_lipo>
-2.92877

> <r_i_glide_metal>
0

> <r_i_glide_rewards>
-1.02822

> <s_i_glide_gridfile>
wee1_glide-grid

> <s_m_Source_File>
wee1_decoys_glide_SP.sdf

> <s_m_Source_Path>
/Users/zhangxujun/Desktop

> <s_m_entry_id>
2803

> <s_m_entry_name>
wee1_decoys_glide_SP.2528

> <s_m_subgroup_title>
wee1_decoys_glide_SP

> <s_m_subgroupid>
wee1_decoys_glide_SP


$$$$
