ZINC65074841_4105
                    3D
 Schrodinger Suite 2024-2.
 67 71  0  0  1  0            999 V2000
   -0.1667   52.3821   29.7266 C   0  0  0  0  0  0
   -0.0334   53.0188   28.3305 C   0  0  0  0  0  0
    1.3022   53.7654   28.1741 C   0  0  0  0  0  0
   -0.2838   52.0005   27.2147 C   0  0  0  0  0  0
    0.5634   50.8972   27.0588 C   0  0  0  0  0  0
    0.3047   49.9420   26.0798 C   0  0  0  0  0  0
   -0.8053   50.0893   25.2440 C   0  0  0  0  0  0
   -1.6428   51.1984   25.3774 C   0  0  0  0  0  0
   -1.3853   52.1480   26.3663 C   0  0  0  0  0  0
   -1.1576   48.8458   23.9968 S   0  0  0  0  0  0
   -0.5544   47.5875   24.4581 O   0  0  0  0  0  0
   -2.5920   48.9410   23.6964 O   0  0  0  0  0  0
   -0.2700   49.3815   22.5558 N   0  0  0  0  0  0
   -0.8056   50.5086   21.7510 C   0  0  0  0  0  0
    0.0882   51.7625   21.8400 C   0  0  0  0  0  0
    1.5872   51.4750   21.5339 C   0  0  0  0  0  0
    2.0504   50.3668   22.5077 C   0  0  0  0  0  0
    1.1842   49.1044   22.4486 C   0  0  0  0  0  0
    2.4834   52.7092   21.7117 C   0  0  0  0  0  0
    3.5053   53.0027   20.8929 N   0  3  0  0  0  0
    3.7971   52.3066   19.6458 C   0  0  0  0  0  0
    3.0684   50.9621   19.6417 C   0  0  0  0  0  0
    1.6974   51.1280   20.1056 N   0  0  0  0  0  0
    2.2327   53.4665   22.7871 N   0  0  0  0  0  0
    2.9266   54.6860   23.1836 C   0  0  0  0  0  0
    4.0952   54.4475   24.1168 C   0  0  0  0  0  0
    5.4129   54.4965   23.6289 C   0  0  0  0  0  0
    6.5016   54.3934   24.5000 C   0  0  0  0  0  0
    6.2332   54.2178   25.8545 C   0  0  0  0  0  0
    4.9559   54.1349   26.3303 C   0  0  0  0  0  0
    3.8582   54.2473   25.4860 C   0  0  0  0  0  0
    4.9847   54.0096   27.6821 O   0  0  0  0  0  0
    6.3321   53.7906   28.0061 C   0  0  0  0  0  0
    7.1044   54.1514   26.8915 O   0  0  0  0  0  0
   -1.0958   51.8179   29.8252 H   0  0  0  0  0  0
   -0.1610   53.1386   30.5129 H   0  0  0  0  0  0
    0.6564   51.6964   29.9342 H   0  0  0  0  0  0
   -0.8022   53.7865   28.2560 H   0  0  0  0  0  0
    1.2844   54.3916   27.2840 H   0  0  0  0  0  0
    1.4903   54.4273   29.0201 H   0  0  0  0  0  0
    2.1513   53.0853   28.0980 H   0  0  0  0  0  0
    1.4074   50.7627   27.7160 H   0  0  0  0  0  0
    0.9456   49.0741   25.9903 H   0  0  0  0  0  0
   -2.5088   51.3142   24.7393 H   0  0  0  0  0  0
   -2.0571   52.9856   26.4796 H   0  0  0  0  0  0
   -0.9407   50.1645   20.7258 H   0  0  0  0  0  0
   -1.8067   50.7469   22.1094 H   0  0  0  0  0  0
   -0.2859   52.5298   21.1623 H   0  0  0  0  0  0
   -0.0273   52.1736   22.8436 H   0  0  0  0  0  0
    2.0232   50.7520   23.5283 H   0  0  0  0  0  0
    3.0963   50.1086   22.3437 H   0  0  0  0  0  0
    1.4748   48.4902   23.2916 H   0  0  0  0  0  0
    1.3638   48.5092   21.5533 H   0  0  0  0  0  0
    3.4396   52.9389   18.8315 H   0  0  0  0  0  0
    4.8745   52.1769   19.5324 H   0  0  0  0  0  0
    3.0685   50.5431   18.6316 H   0  0  0  0  0  0
    3.5997   50.2251   20.2421 H   0  0  0  0  0  0
    1.1806   50.2745   19.9404 H   0  0  0  0  0  0
    1.4731   53.1597   23.3793 H   0  0  0  0  0  0
    3.2224   55.2213   22.2808 H   0  0  0  0  0  0
    2.1844   55.2965   23.6949 H   0  0  0  0  0  0
    5.5988   54.6549   22.5770 H   0  0  0  0  0  0
    7.5052   54.4634   24.1193 H   0  0  0  0  0  0
    2.8535   54.2102   25.8631 H   0  0  0  0  0  0
    6.4798   52.7294   28.2093 H   0  0  0  0  0  0
    6.6207   54.3770   28.8798 H   0  0  0  0  0  0
    4.0240   53.8435   21.0979 H   0  0  0  0  0  0
  1  2  1  0  0  0
  1 35  1  0  0  0
  1 36  1  0  0  0
  1 37  1  0  0  0
  2  3  1  0  0  0
  2  4  1  0  0  0
  2 38  1  0  0  0
  3 39  1  0  0  0
  3 40  1  0  0  0
  3 41  1  0  0  0
  4  9  2  0  0  0
  4  5  1  0  0  0
  5  6  2  0  0  0
  5 42  1  0  0  0
  6  7  1  0  0  0
  6 43  1  0  0  0
  7  8  2  0  0  0
  7 10  1  0  0  0
  8  9  1  0  0  0
  8 44  1  0  0  0
  9 45  1  0  0  0
 10 11  2  0  0  0
 10 12  2  0  0  0
 10 13  1  0  0  0
 13 18  1  0  0  0
 13 14  1  0  0  0
 14 15  1  0  0  0
 14 46  1  0  0  0
 14 47  1  0  0  0
 15 16  1  0  0  0
 15 48  1  0  0  0
 15 49  1  0  0  0
 16 23  1  0  0  0
 16 17  1  0  0  0
 16 19  1  0  0  0
 17 18  1  0  0  0
 17 50  1  0  0  0
 17 51  1  0  0  0
 18 52  1  0  0  0
 18 53  1  0  0  0
 19 20  2  0  0  0
 19 24  1  0  0  0
 20 21  1  0  0  0
 20 67  1  0  0  0
 21 22  1  0  0  0
 21 54  1  0  0  0
 21 55  1  0  0  0
 22 23  1  0  0  0
 22 56  1  0  0  0
 22 57  1  0  0  0
 23 58  1  0  0  0
 24 25  1  0  0  0
 24 59  1  0  0  0
 25 26  1  0  0  0
 25 60  1  0  0  0
 25 61  1  0  0  0
 26 31  2  0  0  0
 26 27  1  0  0  0
 27 28  2  0  0  0
 27 62  1  0  0  0
 28 29  1  0  0  0
 28 63  1  0  0  0
 29 34  1  0  0  0
 29 30  2  0  0  0
 30 31  1  0  0  0
 30 32  1  0  0  0
 31 64  1  0  0  0
 32 33  1  0  0  0
 33 34  1  0  0  0
 33 65  1  0  0  0
 33 66  1  0  0  0
M  CHG  1  20   1
M  END
> <i_i_glide_confnum>
131

> <i_i_glide_lignum>
4106

> <i_i_glide_posenum>
332

> <i_i_glide_rotatable_bonds>
6

> <i_m_Source_File_Index>
4005

> <b_m_subgroup_collapsed>
0

> <r_i_docking_score>
-4.61342

> <r_i_glide_ecoul>
-0.862515

> <r_i_glide_eff_state_penalty>
0

> <r_i_glide_einternal>
1.74328

> <r_i_glide_emodel>
-53.8324

> <r_i_glide_energy>
-41.5137

> <r_i_glide_erotb>
0.430748

> <r_i_glide_esite>
-0.0848252

> <r_i_glide_evdw>
-40.6511

> <r_i_glide_gscore>
-4.61342

> <r_i_glide_hbond>
-0.0581135

> <r_i_glide_ligand_efficiency>
-0.135689

> <r_i_glide_ligand_efficiency_ln>
-1.01923

> <r_i_glide_ligand_efficiency_sa>
-0.439579

> <r_i_glide_lipo>
-2.05069

> <r_i_glide_metal>
0

> <r_i_glide_rewards>
-0.688602

> <s_i_glide_gridfile>
wee1_glide-grid

> <s_m_Source_File>
wee1_decoys_glide_SP.sdf

> <s_m_Source_Path>
/Users/zhangxujun/Desktop

> <s_m_entry_id>
4280

> <s_m_entry_name>
wee1_decoys_glide_SP.4005

> <s_m_subgroup_title>
wee1_decoys_glide_SP

> <s_m_subgroupid>
wee1_decoys_glide_SP


$$$$
