@<TRIPOS>MOLECULE
ZINC01033923_3196
64   68    1
SMALL
USER_CHARGES


@<TRIPOS>ATOM
      1 C1         -0.1750   52.1139   30.1568 C.3       1 UNK         0.0000 
      2 C2          1.1583   52.5199   29.5692 C.2       1 UNK         0.0000 
      3 C3          1.6498   52.6931   28.2777 C.2       1 UNK         0.0000 
      4 C4          2.9807   53.1533   28.4851 C.2       1 UNK         0.0000 
      5 N5          3.2752   53.1654   29.7720 N.2       1 UNK         0.0000 
      6 O6          2.1358   52.7818   30.4663 O.3       1 UNK         0.0000 
      7 C7          4.0499   53.6153   27.5312 C.ar      1 UNK         0.0000 
      8 C8          3.7324   54.3568   26.3905 C.ar      1 UNK         0.0000 
      9 C9          4.7301   54.7616   25.5068 C.ar      1 UNK         0.0000 
     10 C10         6.0621   54.4701   25.7851 C.ar      1 UNK         0.0000 
     11 C11         6.4012   53.7672   26.9380 C.ar      1 UNK         0.0000 
     12 C12         5.3983   53.3382   27.8028 C.ar      1 UNK         0.0000 
     13 C13         0.8472   52.5134   27.0842 C.2       1 UNK         0.0000 
     14 O14        -0.3818   52.4964   27.1564 O.2       1 UNK         0.0000 
     15 N15         1.5031   52.2895   25.9296 N.am      1 UNK         0.0000 
     16 C16         0.8382   51.9105   24.6664 C.3       1 UNK         0.0000 
     17 H17         0.0977   51.1599   24.9618 H         1 UNK         0.0000 
     18 C18         1.7497   51.2020   23.6200 C.3       1 UNK         0.0000 
     19 C19         2.7030   52.1664   22.8704 C.3       1 UNK         0.0000 
     20 C20         1.9809   53.3636   22.2751 C.3       1 UNK         0.0000 
     21 C21         1.1361   54.0344   23.3659 C.3       1 UNK         0.0000 
     22 C22         0.0757   53.0685   23.9573 C.3       1 UNK         0.0000 
     23 H23        -0.5263   53.6118   24.6841 H         1 UNK         0.0000 
     24 N24        -0.8292   52.4925   22.9561 N.am      1 UNK         0.0000 
     25 C25        -2.1187   52.1947   23.1600 C.2       1 UNK         0.0000 
     26 O26        -2.7811   52.6152   24.1062 O.2       1 UNK         0.0000 
     27 C27        -2.6668   51.2679   22.2074 C.2       1 UNK         0.0000 
     28 C28        -2.4499   51.1873   20.8372 C.2       1 UNK         0.0000 
     29 O29        -3.2720   50.2440   20.3206 O.3       1 UNK         0.0000 
     30 N30        -4.0104   49.6728   21.3510 N.2       1 UNK         0.0000 
     31 C31        -3.6180   50.2577   22.4629 C.2       1 UNK         0.0000 
     32 C32        -4.1557   49.7757   23.7754 C.ar      1 UNK         0.0000 
     33 C33        -5.5171   49.4910   23.9370 C.ar      1 UNK         0.0000 
     34 C34        -5.9917   49.0156   25.1570 C.ar      1 UNK         0.0000 
     35 C35        -5.1050   48.8157   26.2136 C.ar      1 UNK         0.0000 
     36 C36        -3.7479   49.0880   26.0610 C.ar      1 UNK         0.0000 
     37 C37        -3.2761   49.5670   24.8444 C.ar      1 UNK         0.0000 
     38 C38        -1.5571   51.8773   19.8327 C.3       1 UNK         0.0000 
     39 H39        -0.8840   52.9382   30.1307 H         1 UNK         0.0000 
     40 H40        -0.6250   51.2865   29.6071 H         1 UNK         0.0000 
     41 H41        -0.0965   51.7926   31.1963 H         1 UNK         0.0000 
     42 H42         2.7094   54.6271   26.1887 H         1 UNK         0.0000 
     43 H43         4.4703   55.2987   24.6083 H         1 UNK         0.0000 
     44 H44         6.8349   54.7866   25.1002 H         1 UNK         0.0000 
     45 H45         7.4340   53.5402   27.1581 H         1 UNK         0.0000 
     46 H46         5.6779   52.7816   28.6849 H         1 UNK         0.0000 
     47 H47         2.4972   52.4616   25.8953 H         1 UNK         0.0000 
     48 H48         2.3043   50.3876   24.0820 H         1 UNK         0.0000 
     49 H49         1.1251   50.6970   22.8817 H         1 UNK         0.0000 
     50 H50         3.2488   51.6328   22.0896 H         1 UNK         0.0000 
     51 H51         3.4451   52.5776   23.5515 H         1 UNK         0.0000 
     52 H52         1.3595   53.0545   21.4340 H         1 UNK         0.0000 
     53 H53         2.7064   54.0722   21.8708 H         1 UNK         0.0000 
     54 H54         0.7050   54.9421   22.9629 H         1 UNK         0.0000 
     55 H55         1.7872   54.3994   24.1568 H         1 UNK         0.0000 
     56 H56        -0.3764   52.0628   22.1652 H         1 UNK         0.0000 
     57 H57        -6.2045   49.6413   23.1171 H         1 UNK         0.0000 
     58 H58        -7.0425   48.7989   25.2806 H         1 UNK         0.0000 
     59 H59        -5.4677   48.4453   27.1617 H         1 UNK         0.0000 
     60 H60        -3.0551   48.9245   26.8739 H         1 UNK         0.0000 
     61 H61        -2.2195   49.7677   24.7375 H         1 UNK         0.0000 
     62 H62        -0.8575   52.5725   20.2909 H         1 UNK         0.0000 
     63 H63        -0.9520   51.1512   19.2885 H         1 UNK         0.0000 
     64 H64        -2.1341   52.4306   19.0909 H         1 UNK         0.0000 
@<TRIPOS>BOND
     1    1    2 1    
     2    1   39 1    
     3    1   40 1    
     4    1   41 1    
     5    2    6 1    
     6    2    3 2    
     7    3    4 1    
     8    3   13 1    
     9    4    5 2    
    10    4    7 1    
    11    5    6 1    
    12    7   12 ar   
    13    7    8 ar   
    14    8    9 ar   
    15    8   42 1    
    16    9   10 ar   
    17    9   43 1    
    18   10   11 ar   
    19   10   44 1    
    20   11   12 ar   
    21   11   45 1    
    22   12   46 1    
    23   13   14 2    
    24   13   15 am   BACKBONE|DICT|INTERRES
    25   15   16 1    
    26   15   47 1    
    27   16   17 1    
    28   16   22 1    
    29   16   18 1    
    30   18   19 1    
    31   18   48 1    
    32   18   49 1    
    33   19   20 1    
    34   19   50 1    
    35   19   51 1    
    36   20   21 1    
    37   20   52 1    
    38   20   53 1    
    39   21   22 1    
    40   21   54 1    
    41   21   55 1    
    42   22   23 1    
    43   22   24 1    
    44   24   25 am   BACKBONE|DICT|INTERRES
    45   24   56 1    
    46   25   26 2    
    47   25   27 1    
    48   27   31 1    
    49   27   28 2    
    50   28   29 1    
    51   28   38 1    
    52   29   30 1    
    53   30   31 2    
    54   31   32 1    
    55   32   37 ar   
    56   32   33 ar   
    57   33   34 ar   
    58   33   57 1    
    59   34   35 ar   
    60   34   58 1    
    61   35   36 ar   
    62   35   59 1    
    63   36   37 ar   
    64   36   60 1    
    65   37   61 1    
    66   38   62 1    
    67   38   63 1    
    68   38   64 1    
@<TRIPOS>SUBSTRUCTURE
     1 UNK         1 GROUP             0       ****    0 ROOT    
