@<TRIPOS>MOLECULE
ZINC34979902_4190
78   82    1
SMALL
USER_CHARGES


@<TRIPOS>ATOM
      1 C1          2.4432   51.3344   21.7121 C.3       1 UNK         0.0000 
      2 C2          2.8456   52.8149   21.5750 C.3       1 UNK         0.0000 
      3 C3          4.3127   53.0290   21.1189 C.3       1 UNK         0.0000 
      4 H4          4.9092   52.2732   21.6347 H         1 UNK         0.0000 
      5 C5          4.3768   52.6130   19.6268 C.3       1 UNK         0.0000 
      6 C6          4.9129   54.4730   21.4264 C.3       1 UNK         0.0000 
      7 H7          4.1230   55.1727   21.6835 H         1 UNK         0.0000 
      8 C8          5.8938   54.3676   22.6498 C.2       1 UNK         0.0000 
      9 O9          7.1006   54.4951   22.4545 O.2       1 UNK         0.0000 
     10 N10         5.4428   54.0382   23.8871 N.am      1 UNK         0.0000 
     11 C11         4.0595   54.2167   24.3759 C.3       1 UNK         0.0000 
     12 C12         4.0702   55.1372   25.6305 C.3       1 UNK         0.0000 
     13 N13         5.1287   54.7537   26.5711 N.am      1 UNK         0.0000 
     14 C14         6.4838   54.7928   25.9792 C.3       1 UNK         0.0000 
     15 H15         7.2361   54.5081   26.7216 H         1 UNK         0.0000 
     16 C16         6.4369   53.6976   24.9295 C.3       1 UNK         0.0000 
     17 C17         6.9359   56.0971   25.3367 C.3       1 UNK         0.0000 
     18 C18         4.8805   54.1065   27.7461 C.2       1 UNK         0.0000 
     19 O19         5.7804   53.6969   28.4817 O.2       1 UNK         0.0000 
     20 C20         3.4461   53.9329   28.1851 C.ar      1 UNK         0.0000 
     21 C21         2.5858   53.0641   27.5031 C.ar      1 UNK         0.0000 
     22 C22         1.2635   52.9213   27.9168 C.ar      1 UNK         0.0000 
     23 C23         0.7989   53.6485   29.0077 C.ar      1 UNK         0.0000 
     24 C24         1.6494   54.5119   29.6952 C.ar      1 UNK         0.0000 
     25 C25         2.9760   54.6450   29.2886 C.ar      1 UNK         0.0000 
     26 N26         5.5122   55.0538   20.1987 N.am      1 UNK         0.0000 
     27 C27         6.2999   56.1238   20.0016 C.2       1 UNK         0.0000 
     28 O28         6.6787   56.8949   20.8814 O.2       1 UNK         0.0000 
     29 N29         6.6220   56.2348   18.6990 N.am      1 UNK         0.0000 
     30 C30         7.6705   57.0616   18.0841 C.3       1 UNK         0.0000 
     31 C31         9.0945   56.7226   18.6369 C.3       1 UNK         0.0000 
     32 C32        10.1904   57.5793   17.9605 C.3       1 UNK         0.0000 
     33 C33        10.1949   57.2805   16.4417 C.3       1 UNK         0.0000 
     34 C34         8.8092   57.6315   15.8419 C.3       1 UNK         0.0000 
     35 C35         7.7086   56.7911   16.5442 C.3       1 UNK         0.0000 
     36 C36         8.5268   59.1380   16.0649 C.3       1 UNK         0.0000 
     37 C37         8.5157   59.4434   17.5843 C.3       1 UNK         0.0000 
     38 C38         9.8908   59.0812   18.2045 C.3       1 UNK         0.0000 
     39 C39         7.4065   58.5943   18.2566 C.3       1 UNK         0.0000 
     40 H40         1.7755   51.1898   22.5650 H         1 UNK         0.0000 
     41 H41         1.9238   50.9870   20.8210 H         1 UNK         0.0000 
     42 H42         3.3061   50.6812   21.8623 H         1 UNK         0.0000 
     43 H43         2.6229   53.2901   22.5147 H         1 UNK         0.0000 
     44 H44         2.1749   53.2976   20.8646 H         1 UNK         0.0000 
     45 H45         3.8577   53.3219   18.9833 H         1 UNK         0.0000 
     46 H46         5.4075   52.5283   19.2806 H         1 UNK         0.0000 
     47 H47         3.9097   51.6489   19.4536 H         1 UNK         0.0000 
     48 H48         3.4465   54.7454   23.6510 H         1 UNK         0.0000 
     49 H49         3.6270   53.2458   24.6085 H         1 UNK         0.0000 
     50 H50         4.4038   56.0967   25.2823 H         1 UNK         0.0000 
     51 H51         3.1048   55.2981   26.0956 H         1 UNK         0.0000 
     52 H52         6.0149   52.8967   25.4853 H         1 UNK         0.0000 
     53 H53         7.4046   53.3628   24.5554 H         1 UNK         0.0000 
     54 H54         7.9048   56.0319   24.8589 H         1 UNK         0.0000 
     55 H55         6.2765   56.4806   24.5566 H         1 UNK         0.0000 
     56 H56         7.0079   56.8582   26.0817 H         1 UNK         0.0000 
     57 H57         2.9423   52.4965   26.6543 H         1 UNK         0.0000 
     58 H58         0.5987   52.2481   27.3971 H         1 UNK         0.0000 
     59 H59        -0.2253   53.5315   29.3256 H         1 UNK         0.0000 
     60 H60         1.2878   55.0620   30.5508 H         1 UNK         0.0000 
     61 H61         3.6437   55.2948   29.8319 H         1 UNK         0.0000 
     62 H62         5.3242   54.4835   19.3897 H         1 UNK         0.0000 
     63 H63         6.0980   55.6767   18.0421 H         1 UNK         0.0000 
     64 H64         9.3100   55.6589   18.5041 H         1 UNK         0.0000 
     65 H65         9.1453   56.8897   19.7082 H         1 UNK         0.0000 
     66 H66        11.1632   57.3270   18.3860 H         1 UNK         0.0000 
     67 H67        10.4226   56.2254   16.2761 H         1 UNK         0.0000 
     68 H68        10.9795   57.8503   15.9405 H         1 UNK         0.0000 
     69 H69         8.8085   57.4143   14.7748 H         1 UNK         0.0000 
     70 H70         6.7399   57.0184   16.0949 H         1 UNK         0.0000 
     71 H71         7.8841   55.7311   16.3460 H         1 UNK         0.0000 
     72 H72         7.5700   59.4146   15.6151 H         1 UNK         0.0000 
     73 H73         9.2814   59.7398   15.5567 H         1 UNK         0.0000 
     74 H74         8.3051   60.5042   17.7373 H         1 UNK         0.0000 
     75 H75        10.6790   59.6924   17.7658 H         1 UNK         0.0000 
     76 H76         9.8991   59.2910   19.2770 H         1 UNK         0.0000 
     77 H77         7.3351   58.8661   19.3030 H         1 UNK         0.0000 
     78 H78         6.4410   58.8662   17.8301 H         1 UNK         0.0000 
@<TRIPOS>BOND
     1    1    2 1    
     2    1   40 1    
     3    1   41 1    
     4    1   42 1    
     5    2    3 1    
     6    2   43 1    
     7    2   44 1    
     8    3    4 1    
     9    3    5 1    
    10    3    6 1    
    11    5   45 1    
    12    5   46 1    
    13    5   47 1    
    14    6    7 1    
    15    6    8 1    
    16    6   26 1    
    17    8    9 2    
    18    8   10 am   BACKBONE|DICT|INTERRES
    19   10   16 1    
    20   10   11 1    
    21   11   12 1    
    22   11   48 1    
    23   11   49 1    
    24   12   13 1    
    25   12   50 1    
    26   12   51 1    
    27   13   14 1    
    28   13   18 am   BACKBONE|DICT|INTERRES
    29   14   15 1    
    30   14   16 1    
    31   14   17 1    
    32   16   52 1    
    33   16   53 1    
    34   17   54 1    
    35   17   55 1    
    36   17   56 1    
    37   18   19 2    
    38   18   20 1    
    39   20   25 ar   
    40   20   21 ar   
    41   21   22 ar   
    42   21   57 1    
    43   22   23 ar   
    44   22   58 1    
    45   23   24 ar   
    46   23   59 1    
    47   24   25 ar   
    48   24   60 1    
    49   25   61 1    
    50   26   27 am   BACKBONE|DICT|INTERRES
    51   26   62 1    
    52   27   28 2    
    53   27   29 am   BACKBONE|DICT|INTERRES
    54   29   30 1    
    55   29   63 1    
    56   30   35 1    
    57   30   39 1    
    58   30   31 1    
    59   31   32 1    
    60   31   64 1    
    61   31   65 1    
    62   32   38 1    
    63   32   33 1    
    64   32   66 1    
    65   33   34 1    
    66   33   67 1    
    67   33   68 1    
    68   34   35 1    
    69   34   36 1    
    70   34   69 1    
    71   35   70 1    
    72   35   71 1    
    73   36   37 1    
    74   36   72 1    
    75   36   73 1    
    76   37   38 1    
    77   37   39 1    
    78   37   74 1    
    79   38   75 1    
    80   38   76 1    
    81   39   77 1    
    82   39   78 1    
@<TRIPOS>SUBSTRUCTURE
     1 UNK         1 GROUP             0       ****    0 ROOT    
