@<TRIPOS>MOLECULE
ZINC65733854_1452
53   56    1
SMALL
USER_CHARGES


@<TRIPOS>ATOM
      1 C1         -0.6264   51.8964   29.4920 C.3       1 UNK         0.0000 
      2 C2         -0.0796   51.9462   28.0744 C.2       1 UNK         0.0000 
      3 O3          0.5861   52.9052   27.6921 O.2       1 UNK         0.0000 
      4 N4         -0.3827   50.8968   27.3028 N.am      1 UNK         0.0000 
      5 C5         -0.0140   50.7103   25.8949 C.3       1 UNK         0.0000 
      6 H6          1.0267   51.0361   25.8128 H         1 UNK         0.0000 
      7 C7         -0.8256   51.5852   24.9016 C.3       1 UNK         0.0000 
      8 H8         -0.5955   52.6300   25.1201 H         1 UNK         0.0000 
      9 C9         -0.4290   51.2927   23.4414 C.3       1 UNK         0.0000 
     10 H10        -1.1274   51.7899   22.7660 H         1 UNK         0.0000 
     11 C11        -0.4032   49.7809   23.1511 C.3       1 UNK         0.0000 
     12 H12        -1.4258   49.3973   23.1510 H         1 UNK         0.0000 
     13 C13         0.2445   49.5608   21.7722 C.3       1 UNK         0.0000 
     14 O14         1.4674   50.2901   21.6404 O.3       1 UNK         0.0000 
     15 C15         1.3052   51.6602   21.9130 C.3       1 UNK         0.0000 
     16 H16         0.5972   52.1122   21.2120 H         1 UNK         0.0000 
     17 O17         0.8732   51.8391   23.2373 O.3       1 UNK         0.0000 
     18 C18         2.6515   52.3855   21.7059 C.ar      1 UNK         0.0000 
     19 C19         3.0301   53.4373   22.5490 C.ar      1 UNK         0.0000 
     20 C20         4.2406   54.0927   22.3508 C.ar      1 UNK         0.0000 
     21 C21         5.0697   53.7067   21.3021 C.ar      1 UNK         0.0000 
     22 C22         4.7046   52.6610   20.4570 C.ar      1 UNK         0.0000 
     23 C23         3.4971   52.0001   20.6594 C.ar      1 UNK         0.0000 
     24 O24         0.4227   49.1101   24.1114 O.3       1 UNK         0.0000 
     25 C25         0.0112   49.2261   25.4485 C.3       1 UNK         0.0000 
     26 H26         0.8083   48.6853   25.9668 H         1 UNK         0.0000 
     27 O27        -1.2152   48.6439   25.6817 O.3       1 UNK         0.0000 
     28 O28        -2.2275   51.4406   25.1602 O.3       1 UNK         0.0000 
     29 C29        -3.1496   52.3509   24.7600 C.2       1 UNK         0.0000 
     30 O30        -2.8910   53.2992   24.0146 O.2       1 UNK         0.0000 
     31 C31        -4.5189   52.0771   25.3047 C.ar      1 UNK         0.0000 
     32 C32        -5.5964   52.8701   24.8817 C.ar      1 UNK         0.0000 
     33 C33        -6.8759   52.6477   25.3850 C.ar      1 UNK         0.0000 
     34 C34        -7.0862   51.6335   26.3147 C.ar      1 UNK         0.0000 
     35 C35        -6.0280   50.8386   26.7478 C.ar      1 UNK         0.0000 
     36 C36        -4.7478   51.0572   26.2454 C.ar      1 UNK         0.0000 
     37 H37        -0.4965   50.9048   29.9220 H         1 UNK         0.0000 
     38 H38        -0.1344   52.6244   30.1364 H         1 UNK         0.0000 
     39 H39        -1.6954   52.0979   29.4764 H         1 UNK         0.0000 
     40 H40        -0.9102   50.1395   27.7229 H         1 UNK         0.0000 
     41 H41         0.4356   48.4998   21.6048 H         1 UNK         0.0000 
     42 H42        -0.4249   49.8705   20.9672 H         1 UNK         0.0000 
     43 H43         2.3902   53.7526   23.3603 H         1 UNK         0.0000 
     44 H44         4.5325   54.8966   23.0086 H         1 UNK         0.0000 
     45 H45         6.0041   54.2234   21.1426 H         1 UNK         0.0000 
     46 H46         5.3493   52.3605   19.6423 H         1 UNK         0.0000 
     47 H47         3.2195   51.1936   19.9950 H         1 UNK         0.0000 
     48 H48        -1.2956   48.4961   26.6408 H         1 UNK         0.0000 
     49 H49        -5.4554   53.6617   24.1582 H         1 UNK         0.0000 
     50 H50        -7.7024   53.2582   25.0498 H         1 UNK         0.0000 
     51 H51        -8.0793   51.4593   26.7041 H         1 UNK         0.0000 
     52 H52        -6.1981   50.0534   27.4711 H         1 UNK         0.0000 
     53 H53        -3.9435   50.4251   26.6018 H         1 UNK         0.0000 
@<TRIPOS>BOND
     1    1    2 1    
     2    1   37 1    
     3    1   38 1    
     4    1   39 1    
     5    2    3 2    
     6    2    4 am   BACKBONE|DICT|INTERRES
     7    4    5 1    
     8    4   40 1    
     9    5    6 1    
    10    5   25 1    
    11    5    7 1    
    12    7    8 1    
    13    7    9 1    
    14    7   28 1    
    15    9   10 1    
    16    9   17 1    
    17    9   11 1    
    18   11   12 1    
    19   11   13 1    
    20   11   24 1    
    21   13   14 1    
    22   13   41 1    
    23   13   42 1    
    24   14   15 1    
    25   15   16 1    
    26   15   17 1    
    27   15   18 1    
    28   18   23 ar   
    29   18   19 ar   
    30   19   20 ar   
    31   19   43 1    
    32   20   21 ar   
    33   20   44 1    
    34   21   22 ar   
    35   21   45 1    
    36   22   23 ar   
    37   22   46 1    
    38   23   47 1    
    39   24   25 1    
    40   25   26 1    
    41   25   27 1    
    42   27   48 1    
    43   28   29 1    
    44   29   30 2    
    45   29   31 1    
    46   31   36 ar   
    47   31   32 ar   
    48   32   33 ar   
    49   32   49 1    
    50   33   34 ar   
    51   33   50 1    
    52   34   35 ar   
    53   34   51 1    
    54   35   36 ar   
    55   35   52 1    
    56   36   53 1    
@<TRIPOS>SUBSTRUCTURE
     1 UNK         1 GROUP             0       ****    0 ROOT    
