@<TRIPOS>MOLECULE
ZINC35702017_5652
57   60    1
SMALL
USER_CHARGES


@<TRIPOS>ATOM
      1 C1          4.2522   53.8400   27.8318 C.3       1 UNK         0.0000 
      2 C2          2.9707   53.2509   27.2379 C.2       1 UNK         0.0000 
      3 C3          2.5079   53.3636   25.9484 C.2       1 UNK         0.0000 
      4 C4          1.0813   52.8157   25.5760 C.3       1 UNK         0.0000 
      5 H5          0.5476   53.6485   25.1191 H         1 UNK         0.0000 
      6 N6          0.3287   52.4969   26.8317 N.pl3     1 UNK         0.0000 
      7 C7         -1.0345   52.2351   26.9286 C.2       1 UNK         0.0000 
      8 C8         -1.3476   51.6966   28.1227 C.2       1 UNK         0.0000 
      9 S9         -0.0191   51.6967   29.2700 S.3       1 UNK         0.0000 
     10 C10         1.0352   52.3709   28.0256 C.2       1 UNK         0.0000 
     11 N11         2.2608   52.6494   28.2344 N.2       1 UNK         0.0000 
     12 C12        -2.0111   52.4968   25.8730 C.2       1 UNK         0.0000 
     13 C13        -3.2713   52.0339   25.7557 C.2       1 UNK         0.0000 
     14 O14        -3.9331   51.1984   26.4734 O.co2     1 UNK         0.0000 
     15 N15        -4.0535   52.4869   24.7164 N.pl3     1 UNK         0.0000 
     16 C16        -5.4869   52.7908   24.6623 C.3       1 UNK         0.0000 
     17 C17        -6.1196   53.4015   25.9353 C.3       1 UNK         0.0000 
     18 H18        -6.0853   52.6565   26.7320 H         1 UNK         0.0000 
     19 C19        -7.5331   53.9529   25.7359 C.3       1 UNK         0.0000 
     20 C20        -7.6721   55.0591   26.7634 C.3       1 UNK         0.0000 
     21 C21        -6.2420   55.2926   27.2505 C.3       1 UNK         0.0000 
     22 O22        -5.4091   54.5666   26.3486 O.3       1 UNK         0.0000 
     23 C23         1.0694   51.6668   24.5418 C.2       1 UNK         0.0000 
     24 C24         1.4958   51.6673   23.2063 C.2       1 UNK         0.0000 
     25 C25         1.3089   50.4691   22.5139 C.2       1 UNK         0.0000 
     26 C26         0.7054   49.5051   23.2890 C.2       1 UNK         0.0000 
     27 S27         0.3860   50.0801   24.8831 S.3       1 UNK         0.0000 
     28 C28         3.2648   54.0460   24.8696 C.2       1 UNK         0.0000 
     29 O29         2.7084   54.4971   23.8687 O.2       1 UNK         0.0000 
     30 O30         4.6118   54.0970   25.0598 O.3       1 UNK         0.0000 
     31 C31         5.5027   54.7312   24.1445 C.3       1 UNK         0.0000 
     32 C32         6.3669   55.7097   24.9468 C.3       1 UNK         0.0000 
     33 C33         6.3715   53.7053   23.4126 C.3       1 UNK         0.0000 
     34 H34         4.4811   54.8164   27.4064 H         1 UNK         0.0000 
     35 H35         4.1889   53.9942   28.9110 H         1 UNK         0.0000 
     36 H36         5.0886   53.1658   27.6419 H         1 UNK         0.0000 
     37 H37        -2.3249   51.3657   28.4423 H         1 UNK         0.0000 
     38 H38        -1.6871   53.1844   25.1072 H         1 UNK         0.0000 
     39 H39        -3.6426   52.3949   23.8014 H         1 UNK         0.0000 
     40 H40        -6.0137   51.8733   24.3996 H         1 UNK         0.0000 
     41 H41        -5.6360   53.4905   23.8432 H         1 UNK         0.0000 
     42 H42        -8.2901   53.1716   25.7954 H         1 UNK         0.0000 
     43 H43        -7.6313   54.3648   24.7300 H         1 UNK         0.0000 
     44 H44        -8.3182   54.7557   27.5879 H         1 UNK         0.0000 
     45 H45        -8.0963   55.9603   26.3195 H         1 UNK         0.0000 
     46 H46        -6.0955   54.8964   28.2526 H         1 UNK         0.0000 
     47 H47        -5.9561   56.3444   27.2821 H         1 UNK         0.0000 
     48 H48         1.9338   52.5237   22.7223 H         1 UNK         0.0000 
     49 H49         1.5933   50.3200   21.4823 H         1 UNK         0.0000 
     50 H50         0.4361   48.4973   23.0149 H         1 UNK         0.0000 
     51 H51         4.9534   55.2927   23.3958 H         1 UNK         0.0000 
     52 H52         7.1825   56.0972   24.3363 H         1 UNK         0.0000 
     53 H53         5.7683   56.5528   25.2818 H         1 UNK         0.0000 
     54 H54         6.8032   55.2328   25.8254 H         1 UNK         0.0000 
     55 H55         6.9088   54.1766   22.5889 H         1 UNK         0.0000 
     56 H56         7.1227   53.2968   24.0858 H         1 UNK         0.0000 
     57 H57         5.7733   52.8959   22.9967 H         1 UNK         0.0000 
@<TRIPOS>BOND
     1    1    2 1    
     2    1   34 1    
     3    1   35 1    
     4    1   36 1    
     5    2   11 1    
     6    2    3 2    
     7    3    4 1    
     8    3   28 1    
     9    4    5 1    
    10    4    6 1    
    11    4   23 1    
    12    6   10 1    
    13    6    7 1    
    14    7    8 2    
    15    7   12 1    
    16    8    9 1    
    17    8   37 1    
    18    9   10 1    
    19   10   11 2    
    20   12   13 2    
    21   12   38 1    
    22   13   14 1    
    23   13   15 1    
    24   15   16 1    
    25   15   39 1    
    26   16   17 1    
    27   16   40 1    
    28   16   41 1    
    29   17   18 1    
    30   17   22 1    
    31   17   19 1    
    32   19   20 1    
    33   19   42 1    
    34   19   43 1    
    35   20   21 1    
    36   20   44 1    
    37   20   45 1    
    38   21   22 1    
    39   21   46 1    
    40   21   47 1    
    41   23   27 1    
    42   23   24 2    
    43   24   25 1    
    44   24   48 1    
    45   25   26 2    
    46   25   49 1    
    47   26   27 1    
    48   26   50 1    
    49   28   29 2    
    50   28   30 1    
    51   30   31 1    
    52   31   32 1    
    53   31   33 1    
    54   31   51 1    
    55   32   52 1    
    56   32   53 1    
    57   32   54 1    
    58   33   55 1    
    59   33   56 1    
    60   33   57 1    
@<TRIPOS>SUBSTRUCTURE
     1 UNK         1 GROUP             0       ****    0 ROOT    
