@<TRIPOS>MOLECULE
ZINC44938759_6064
72   75    1
SMALL
USER_CHARGES


@<TRIPOS>ATOM
      1 C1          0.4068   54.0436   16.8527 C.3       1 UNK         0.0000 
      2 C2          1.6191   53.6090   16.0397 C.ar      1 UNK         0.0000 
      3 C3          2.3941   54.5956   15.4189 C.ar      1 UNK         0.0000 
      4 C4          3.5125   54.2486   14.6622 C.ar      1 UNK         0.0000 
      5 C5          3.8667   52.9087   14.5185 C.ar      1 UNK         0.0000 
      6 C6          3.1039   51.9185   15.1326 C.ar      1 UNK         0.0000 
      7 C7          1.9811   52.2522   15.9011 C.ar      1 UNK         0.0000 
      8 C8          1.1944   51.1161   16.5566 C.3       1 UNK         0.0000 
      9 N9          1.9046   50.4705   17.7709 N.4       1 UNK         0.0000 
     10 C10         1.0948   49.2631   18.3100 C.3       1 UNK         0.0000 
     11 C11         1.8413   48.6337   19.5097 C.3       1 UNK         0.0000 
     12 C12         2.1253   49.6556   20.6331 C.3       1 UNK         0.0000 
     13 C13         2.9479   50.8146   20.0228 C.3       1 UNK         0.0000 
     14 H14         3.9042   50.4227   19.6817 H         1 UNK         0.0000 
     15 C15         2.1814   51.5147   18.8776 C.3       1 UNK         0.0000 
     16 C16         3.3439   51.8856   21.0549 C.2       1 UNK         0.0000 
     17 O17         2.6823   52.0397   22.0831 O.2       1 UNK         0.0000 
     18 N18         4.4278   52.6199   20.7207 N.am      1 UNK         0.0000 
     19 C19         5.1030   53.5904   21.4765 C.ar      1 UNK         0.0000 
     20 C20         5.9042   54.4980   20.7827 C.ar      1 UNK         0.0000 
     21 C21         6.7217   55.3834   21.4844 C.ar      1 UNK         0.0000 
     22 C22         6.7074   55.3950   22.8795 C.ar      1 UNK         0.0000 
     23 C23         5.8391   54.5637   23.5996 C.ar      1 UNK         0.0000 
     24 C24         5.0810   53.6327   22.8763 C.ar      1 UNK         0.0000 
     25 C25         5.7673   54.6594   25.1029 C.2       1 UNK         0.0000 
     26 O26         6.7128   55.1474   25.7302 O.2       1 UNK         0.0000 
     27 C27         4.5511   54.1793   25.8517 C.ar      1 UNK         0.0000 
     28 C28         4.6599   53.7757   27.1899 C.ar      1 UNK         0.0000 
     29 C29         3.5464   53.2980   27.8794 C.ar      1 UNK         0.0000 
     30 C30         2.2921   53.2085   27.2527 C.ar      1 UNK         0.0000 
     31 C31         2.1751   53.6950   25.9435 C.ar      1 UNK         0.0000 
     32 C32         3.2806   54.1866   25.2621 C.ar      1 UNK         0.0000 
     33 C33         1.0689   52.5982   27.9899 C.3       1 UNK         0.0000 
     34 C34         0.4092   53.6740   28.8787 C.3       1 UNK         0.0000 
     35 C35         1.4870   51.4003   28.8776 C.3       1 UNK         0.0000 
     36 C36        -0.0062   52.0479   27.0091 C.3       1 UNK         0.0000 
     37 H37         0.2830   55.1269   16.8602 H         1 UNK         0.0000 
     38 H38        -0.5035   53.6068   16.4427 H         1 UNK         0.0000 
     39 H39         0.4991   53.7170   17.8881 H         1 UNK         0.0000 
     40 H40         2.1330   55.6399   15.5200 H         1 UNK         0.0000 
     41 H41         4.1049   55.0194   14.1890 H         1 UNK         0.0000 
     42 H42         4.7362   52.6373   13.9374 H         1 UNK         0.0000 
     43 H43         3.4005   50.8839   15.0228 H         1 UNK         0.0000 
     44 H44         1.0653   50.2963   15.8461 H         1 UNK         0.0000 
     45 H45         0.2048   51.4151   16.9040 H         1 UNK         0.0000 
     46 H46         1.0293   48.5441   17.4902 H         1 UNK         0.0000 
     47 H47         0.0980   49.6220   18.5787 H         1 UNK         0.0000 
     48 H48         2.7812   48.1957   19.1624 H         1 UNK         0.0000 
     49 H49         1.2538   47.8039   19.9068 H         1 UNK         0.0000 
     50 H50         2.6879   49.1326   21.4110 H         1 UNK         0.0000 
     51 H51         1.1559   50.0004   21.0007 H         1 UNK         0.0000 
     52 H52         1.2099   51.9107   19.1842 H         1 UNK         0.0000 
     53 H53         2.7931   52.2907   18.4111 H         1 UNK         0.0000 
     54 H54         4.7957   52.4696   19.7934 H         1 UNK         0.0000 
     55 H55         5.9466   54.4894   19.7020 H         1 UNK         0.0000 
     56 H56         7.3783   56.0509   20.9456 H         1 UNK         0.0000 
     57 H57         7.3535   56.0968   23.3899 H         1 UNK         0.0000 
     58 H58         4.4870   52.9107   23.4074 H         1 UNK         0.0000 
     59 H59         5.6152   53.7983   27.6975 H         1 UNK         0.0000 
     60 H60         3.6804   52.9737   28.8993 H         1 UNK         0.0000 
     61 H61         1.2304   53.6940   25.4230 H         1 UNK         0.0000 
     62 H62         3.1208   54.5646   24.2627 H         1 UNK         0.0000 
     63 H63        -0.4512   53.2771   29.4229 H         1 UNK         0.0000 
     64 H64         0.0514   54.5059   28.2776 H         1 UNK         0.0000 
     65 H65         1.1072   54.0768   29.6124 H         1 UNK         0.0000 
     66 H66         2.0494   50.6585   28.3108 H         1 UNK         0.0000 
     67 H67         2.0890   51.7018   29.7331 H         1 UNK         0.0000 
     68 H68         0.6100   50.8971   29.2821 H         1 UNK         0.0000 
     69 H69         0.4252   51.3377   26.3022 H         1 UNK         0.0000 
     70 H70        -0.8052   51.5242   27.5383 H         1 UNK         0.0000 
     71 H71        -0.4901   52.8389   26.4376 H         1 UNK         0.0000 
     72 H72         2.8104   50.1151   17.4455 H         1 UNK         0.0000 
@<TRIPOS>BOND
     1    1    2 1    
     2    1   37 1    
     3    1   38 1    
     4    1   39 1    
     5    2    7 ar   
     6    2    3 ar   
     7    3    4 ar   
     8    3   40 1    
     9    4    5 ar   
    10    4   41 1    
    11    5    6 ar   
    12    5   42 1    
    13    6    7 ar   
    14    6   43 1    
    15    7    8 1    
    16    8    9 1    
    17    8   44 1    
    18    8   45 1    
    19    9   15 1    
    20    9   10 1    
    21    9   72 1    
    22   10   11 1    
    23   10   46 1    
    24   10   47 1    
    25   11   12 1    
    26   11   48 1    
    27   11   49 1    
    28   12   13 1    
    29   12   50 1    
    30   12   51 1    
    31   13   14 1    
    32   13   15 1    
    33   13   16 1    
    34   15   52 1    
    35   15   53 1    
    36   16   17 2    
    37   16   18 am   BACKBONE|DICT|INTERRES
    38   18   19 1    
    39   18   54 1    
    40   19   24 ar   
    41   19   20 ar   
    42   20   21 ar   
    43   20   55 1    
    44   21   22 ar   
    45   21   56 1    
    46   22   23 ar   
    47   22   57 1    
    48   23   24 ar   
    49   23   25 1    
    50   24   58 1    
    51   25   26 2    
    52   25   27 1    
    53   27   32 ar   
    54   27   28 ar   
    55   28   29 ar   
    56   28   59 1    
    57   29   30 ar   
    58   29   60 1    
    59   30   31 ar   
    60   30   33 1    
    61   31   32 ar   
    62   31   61 1    
    63   32   62 1    
    64   33   34 1    
    65   33   35 1    
    66   33   36 1    
    67   34   63 1    
    68   34   64 1    
    69   34   65 1    
    70   35   66 1    
    71   35   67 1    
    72   35   68 1    
    73   36   69 1    
    74   36   70 1    
    75   36   71 1    
@<TRIPOS>SUBSTRUCTURE
     1 UNK         1 GROUP             0       ****    0 ROOT    
