@<TRIPOS>MOLECULE
ZINC40127576_5815
67   70    1
SMALL
USER_CHARGES


@<TRIPOS>ATOM
      1 C1          0.0401   53.8374   30.8525 C.3       1 UNK         0.0000 
      2 C2          1.3837   53.7656   30.1537 C.ar      1 UNK         0.0000 
      3 C3          2.0940   52.5633   30.1513 C.ar      1 UNK         0.0000 
      4 C4          3.3266   52.4860   29.5086 C.ar      1 UNK         0.0000 
      5 C5          3.8545   53.6073   28.8610 C.ar      1 UNK         0.0000 
      6 C6          3.1474   54.8160   28.8891 C.ar      1 UNK         0.0000 
      7 C7          1.9154   54.8959   29.5320 C.ar      1 UNK         0.0000 
      8 C8          5.1955   53.4722   28.1385 C.3       1 UNK         0.0000 
      9 O9          5.5263   54.6353   27.3817 O.3       1 UNK         0.0000 
     10 C10         5.3875   54.5163   26.0215 C.ar      1 UNK         0.0000 
     11 C11         4.1270   54.4976   25.4212 C.ar      1 UNK         0.0000 
     12 C12         4.0213   54.4240   24.0332 C.ar      1 UNK         0.0000 
     13 C13         5.1671   54.3047   23.2366 C.ar      1 UNK         0.0000 
     14 C14         6.4249   54.3516   23.8541 C.ar      1 UNK         0.0000 
     15 C15         6.5337   54.4637   25.2367 C.ar      1 UNK         0.0000 
     16 C16         5.1136   54.2864   21.7347 C.2       1 UNK         0.0000 
     17 O17         5.9571   54.9467   21.1274 O.2       1 UNK         0.0000 
     18 C18         4.2374   53.3755   20.9604 C.2       1 UNK         0.0000 
     19 C19         3.2323   52.5504   21.3334 C.2       1 UNK         0.0000 
     20 C20         2.7207   51.7611   20.2285 C.2       1 UNK         0.0000 
     21 O21         1.8128   50.9279   20.1899 O.2       1 UNK         0.0000 
     22 N22         3.5046   52.0970   19.2003 N.am      1 UNK         0.0000 
     23 C23         4.4582   53.1501   19.4734 C.3       1 UNK         0.0000 
     24 H24         5.4523   52.7285   19.3062 H         1 UNK         0.0000 
     25 C25         4.3112   54.3608   18.5209 C.ar      1 UNK         0.0000 
     26 C26         5.4160   55.1605   18.2075 C.ar      1 UNK         0.0000 
     27 C27         5.3015   56.2227   17.3119 C.ar      1 UNK         0.0000 
     28 C28         4.0829   56.4887   16.6683 C.ar      1 UNK         0.0000 
     29 C29         2.9705   55.6853   16.9516 C.ar      1 UNK         0.0000 
     30 C30         3.1044   54.6242   17.8622 C.ar      1 UNK         0.0000 
     31 O31         1.7801   55.9977   16.3138 O.3       1 UNK         0.0000 
     32 C32         0.6039   55.2602   16.6199 C.3       1 UNK         0.0000 
     33 O33         3.8941   57.4974   15.7396 O.3       1 UNK         0.0000 
     34 C34         4.9361   58.4150   15.4171 C.3       1 UNK         0.0000 
     35 C35         4.6172   59.0976   14.0696 C.3       1 UNK         0.0000 
     36 C36         4.7434   58.1152   12.8904 C.3       1 UNK         0.0000 
     37 C37         3.2380   59.7814   14.0681 C.3       1 UNK         0.0000 
     38 O38         2.7006   52.3355   22.4833 O.co2     1 UNK         0.0000 
     39 H39        -0.7162   53.3209   30.2581 H         1 UNK         0.0000 
     40 H40         0.0872   53.3448   31.8260 H         1 UNK         0.0000 
     41 H41        -0.2694   54.8691   31.0248 H         1 UNK         0.0000 
     42 H42         1.6803   51.6971   30.6459 H         1 UNK         0.0000 
     43 H43         3.8685   51.5498   29.4937 H         1 UNK         0.0000 
     44 H44         3.5439   55.6967   28.4085 H         1 UNK         0.0000 
     45 H45         1.3772   55.8337   29.5442 H         1 UNK         0.0000 
     46 H46         5.1943   52.5647   27.5303 H         1 UNK         0.0000 
     47 H47         5.9789   53.3366   28.8828 H         1 UNK         0.0000 
     48 H48         3.2358   54.5679   26.0252 H         1 UNK         0.0000 
     49 H49         3.0391   54.4822   23.5878 H         1 UNK         0.0000 
     50 H50         7.3317   54.3104   23.2674 H         1 UNK         0.0000 
     51 H51         7.5037   54.4977   25.7027 H         1 UNK         0.0000 
     52 H52         3.5984   51.5172   18.3730 H         1 UNK         0.0000 
     53 H53         6.3730   54.9650   18.6651 H         1 UNK         0.0000 
     54 H54         6.1781   56.8189   17.1265 H         1 UNK         0.0000 
     55 H55         2.2521   54.0043   18.0920 H         1 UNK         0.0000 
     56 H56        -0.2290   55.6616   16.0449 H         1 UNK         0.0000 
     57 H57         0.7095   54.2066   16.3563 H         1 UNK         0.0000 
     58 H58         0.3479   55.3435   17.6784 H         1 UNK         0.0000 
     59 H59         5.9055   57.9213   15.3274 H         1 UNK         0.0000 
     60 H60         5.0267   59.1552   16.2137 H         1 UNK         0.0000 
     61 H61         5.3654   59.8796   13.9258 H         1 UNK         0.0000 
     62 H62         4.0240   57.2969   12.9778 H         1 UNK         0.0000 
     63 H63         5.7397   57.6756   12.8452 H         1 UNK         0.0000 
     64 H64         4.5632   58.6140   11.9384 H         1 UNK         0.0000 
     65 H65         2.4316   59.0568   14.1862 H         1 UNK         0.0000 
     66 H66         3.1497   60.4968   14.8813 H         1 UNK         0.0000 
     67 H67         3.0643   60.3218   13.1390 H         1 UNK         0.0000 
@<TRIPOS>BOND
     1    1    2 1    
     2    1   39 1    
     3    1   40 1    
     4    1   41 1    
     5    2    7 ar   
     6    2    3 ar   
     7    3    4 ar   
     8    3   42 1    
     9    4    5 ar   
    10    4   43 1    
    11    5    6 ar   
    12    5    8 1    
    13    6    7 ar   
    14    6   44 1    
    15    7   45 1    
    16    8    9 1    
    17    8   46 1    
    18    8   47 1    
    19    9   10 1    
    20   10   15 ar   
    21   10   11 ar   
    22   11   12 ar   
    23   11   48 1    
    24   12   13 ar   
    25   12   49 1    
    26   13   14 ar   
    27   13   16 1    
    28   14   15 ar   
    29   14   50 1    
    30   15   51 1    
    31   16   17 2    
    32   16   18 1    
    33   18   23 1    
    34   18   19 2    
    35   19   20 1    
    36   19   38 1    
    37   20   21 2    
    38   20   22 am   BACKBONE|DICT|INTERRES
    39   22   23 1    
    40   22   52 1    
    41   23   24 1    
    42   23   25 1    
    43   25   30 ar   
    44   25   26 ar   
    45   26   27 ar   
    46   26   53 1    
    47   27   28 ar   
    48   27   54 1    
    49   28   29 ar   
    50   28   33 1    
    51   29   30 ar   
    52   29   31 1    
    53   30   55 1    
    54   31   32 1    
    55   32   56 1    
    56   32   57 1    
    57   32   58 1    
    58   33   34 1    
    59   34   35 1    
    60   34   59 1    
    61   34   60 1    
    62   35   36 1    
    63   35   37 1    
    64   35   61 1    
    65   36   62 1    
    66   36   63 1    
    67   36   64 1    
    68   37   65 1    
    69   37   66 1    
    70   37   67 1    
@<TRIPOS>SUBSTRUCTURE
     1 UNK         1 GROUP             0       ****    0 ROOT    
