@<TRIPOS>MOLECULE
ZINC35338193_5998
74   79    1
SMALL
USER_CHARGES


@<TRIPOS>ATOM
      1 C1         -1.3005   51.6355   29.5619 C.3       1 UNK         0.0000 
      2 C2         -0.6366   51.7208   28.1960 C.ar      1 UNK         0.0000 
      3 C3         -1.3712   51.2967   27.0840 C.ar      1 UNK         0.0000 
      4 C4         -0.8113   51.3168   25.8113 C.ar      1 UNK         0.0000 
      5 C5          0.4963   51.7547   25.6406 C.ar      1 UNK         0.0000 
      6 C6          1.2302   52.1856   26.7434 C.ar      1 UNK         0.0000 
      7 C7          0.6821   52.1925   28.0356 C.ar      1 UNK         0.0000 
      8 C8          1.4635   52.7693   29.2377 C.3       1 UNK         0.0000 
      9 C9          3.0067   52.6949   29.1641 C.2       1 UNK         0.0000 
     10 O10         3.5389   51.7107   29.6824 O.2       1 UNK         0.0000 
     11 N11         3.7283   53.6659   28.5345 N.am      1 UNK         0.0000 
     12 C12         5.1975   53.5432   28.4094 C.3       1 UNK         0.0000 
     13 C13         5.7052   54.1527   27.0672 C.3       1 UNK         0.0000 
     14 N14         4.7044   54.2238   25.9896 N.pl3     1 UNK         0.0000 
     15 C15         3.5037   54.9471   26.4388 C.3       1 UNK         0.0000 
     16 C16         3.1541   54.8904   27.9550 C.3       1 UNK         0.0000 
     17 C17         5.0218   54.2738   24.6349 C.ar      1 UNK         0.0000 
     18 C18         4.0315   53.9971   23.6805 C.ar      1 UNK         0.0000 
     19 C19         4.2984   54.0956   22.3183 C.ar      1 UNK         0.0000 
     20 C20         5.5584   54.5052   21.8940 C.ar      1 UNK         0.0000 
     21 C21         6.5721   54.7442   22.8324 C.ar      1 UNK         0.0000 
     22 C22         6.3038   54.6246   24.1923 C.ar      1 UNK         0.0000 
     23 N23         5.7577   54.6475   20.5129 N.am      1 UNK         0.0000 
     24 C24         6.5519   55.5524   19.9109 C.2       1 UNK         0.0000 
     25 O25         7.1044   56.4955   20.4817 O.2       1 UNK         0.0000 
     26 N26         6.7392   55.2388   18.6195 N.am      1 UNK         0.0000 
     27 C27         7.9450   55.4816   17.8150 C.3       1 UNK         0.0000 
     28 C28         8.2122   57.0026   17.5581 C.3       1 UNK         0.0000 
     29 C29         9.4611   57.2147   16.6618 C.3       1 UNK         0.0000 
     30 C30        10.7018   56.5989   17.3591 C.3       1 UNK         0.0000 
     31 C31        10.4782   55.0793   17.5773 C.3       1 UNK         0.0000 
     32 C32         9.2286   54.8646   18.4687 C.3       1 UNK         0.0000 
     33 C33        10.2535   54.3870   16.2104 C.3       1 UNK         0.0000 
     34 C34         9.0105   55.0014   15.5179 C.3       1 UNK         0.0000 
     35 C35         9.2383   56.5183   15.2950 C.3       1 UNK         0.0000 
     36 C36         7.7663   54.7998   16.4225 C.3       1 UNK         0.0000 
     37 H37        -1.2699   52.5976   30.0666 H         1 UNK         0.0000 
     38 H38        -2.3356   51.2988   29.4946 H         1 UNK         0.0000 
     39 H39        -0.7851   50.9172   30.1936 H         1 UNK         0.0000 
     40 H40        -2.3769   50.9211   27.2072 H         1 UNK         0.0000 
     41 H41        -1.3866   50.9717   24.9663 H         1 UNK         0.0000 
     42 H42         0.9437   51.7549   24.6586 H         1 UNK         0.0000 
     43 H43         2.2483   52.4921   26.5752 H         1 UNK         0.0000 
     44 H44         1.1326   53.7897   29.4211 H         1 UNK         0.0000 
     45 H45         1.1862   52.2264   30.1421 H         1 UNK         0.0000 
     46 H46         5.7311   53.9838   29.2488 H         1 UNK         0.0000 
     47 H47         5.4286   52.4803   28.3331 H         1 UNK         0.0000 
     48 H48         6.6020   53.6259   26.7389 H         1 UNK         0.0000 
     49 H49         5.9899   55.1882   27.2581 H         1 UNK         0.0000 
     50 H50         2.6672   54.4686   25.9354 H         1 UNK         0.0000 
     51 H51         3.5643   55.9813   26.0819 H         1 UNK         0.0000 
     52 H52         2.0994   55.0769   28.1386 H         1 UNK         0.0000 
     53 H53         3.6750   55.6964   28.4717 H         1 UNK         0.0000 
     54 H54         3.0387   53.7025   23.9843 H         1 UNK         0.0000 
     55 H55         3.5134   53.8932   21.6039 H         1 UNK         0.0000 
     56 H56         7.5615   55.0405   22.5169 H         1 UNK         0.0000 
     57 H57         7.0958   54.8447   24.8903 H         1 UNK         0.0000 
     58 H58         5.2005   54.0448   19.9233 H         1 UNK         0.0000 
     59 H59         6.0331   54.6821   18.1640 H         1 UNK         0.0000 
     60 H60         7.3399   57.4640   17.0926 H         1 UNK         0.0000 
     61 H61         8.3595   57.5347   18.4979 H         1 UNK         0.0000 
     62 H62         9.6219   58.2820   16.5055 H         1 UNK         0.0000 
     63 H63        11.5964   56.7640   16.7562 H         1 UNK         0.0000 
     64 H64        10.8859   57.0930   18.3146 H         1 UNK         0.0000 
     65 H65        11.3509   54.6460   18.0689 H         1 UNK         0.0000 
     66 H66         9.4076   55.3067   19.4502 H         1 UNK         0.0000 
     67 H67         9.0868   53.7973   18.6467 H         1 UNK         0.0000 
     68 H68        11.1352   54.5012   15.5776 H         1 UNK         0.0000 
     69 H69        10.1200   53.3117   16.3482 H         1 UNK         0.0000 
     70 H70         8.8480   54.5096   14.5566 H         1 UNK         0.0000 
     71 H71         8.3823   56.9595   14.7804 H         1 UNK         0.0000 
     72 H72        10.0998   56.6787   14.6430 H         1 UNK         0.0000 
     73 H73         7.5747   53.7317   16.5475 H         1 UNK         0.0000 
     74 H74         6.8840   55.2018   15.9193 H         1 UNK         0.0000 
@<TRIPOS>BOND
     1    1    2 1    
     2    1   37 1    
     3    1   38 1    
     4    1   39 1    
     5    2    7 ar   
     6    2    3 ar   
     7    3    4 ar   
     8    3   40 1    
     9    4    5 ar   
    10    4   41 1    
    11    5    6 ar   
    12    5   42 1    
    13    6    7 ar   
    14    6   43 1    
    15    7    8 1    
    16    8    9 1    
    17    8   44 1    
    18    8   45 1    
    19    9   10 2    
    20    9   11 am   BACKBONE|DICT|INTERRES
    21   11   16 1    
    22   11   12 1    
    23   12   13 1    
    24   12   46 1    
    25   12   47 1    
    26   13   14 1    
    27   13   48 1    
    28   13   49 1    
    29   14   15 1    
    30   14   17 1    
    31   15   16 1    
    32   15   50 1    
    33   15   51 1    
    34   16   52 1    
    35   16   53 1    
    36   17   22 ar   
    37   17   18 ar   
    38   18   19 ar   
    39   18   54 1    
    40   19   20 ar   
    41   19   55 1    
    42   20   21 ar   
    43   20   23 1    
    44   21   22 ar   
    45   21   56 1    
    46   22   57 1    
    47   23   24 am   BACKBONE|DICT|INTERRES
    48   23   58 1    
    49   24   25 2    
    50   24   26 am   BACKBONE|DICT|INTERRES
    51   26   27 1    
    52   26   59 1    
    53   27   32 1    
    54   27   36 1    
    55   27   28 1    
    56   28   29 1    
    57   28   60 1    
    58   28   61 1    
    59   29   35 1    
    60   29   30 1    
    61   29   62 1    
    62   30   31 1    
    63   30   63 1    
    64   30   64 1    
    65   31   32 1    
    66   31   33 1    
    67   31   65 1    
    68   32   66 1    
    69   32   67 1    
    70   33   34 1    
    71   33   68 1    
    72   33   69 1    
    73   34   35 1    
    74   34   36 1    
    75   34   70 1    
    76   35   71 1    
    77   35   72 1    
    78   36   73 1    
    79   36   74 1    
@<TRIPOS>SUBSTRUCTURE
     1 UNK         1 GROUP             0       ****    0 ROOT    
