@<TRIPOS>MOLECULE
ZINC46809215_5359
69   72    1
SMALL
USER_CHARGES


@<TRIPOS>ATOM
      1 C1          0.7367   52.4718   26.3382 C.3       1 UNK         0.0000 
      2 C2          0.5237   51.2275   25.4515 C.3       1 UNK         0.0000 
      3 H3          1.3947   51.0169   24.8323 H         1 UNK         0.0000 
      4 C4          0.1920   50.0016   26.3348 C.3       1 UNK         0.0000 
      5 C5         -0.3351   48.7858   25.5626 C.3       1 UNK         0.0000 
      6 C6         -1.5277   49.1740   24.6860 C.3       1 UNK         0.0000 
      7 C7         -1.1313   50.2731   23.6933 C.3       1 UNK         0.0000 
      8 N8         -0.6505   51.5277   24.4686 N.4       1 UNK         0.0000 
      9 C9         -0.3451   52.6763   23.4627 C.3       1 UNK         0.0000 
     10 C10         0.9860   52.5773   22.7167 C.ar      1 UNK         0.0000 
     11 C11         1.1228   51.7163   21.6261 C.ar      1 UNK         0.0000 
     12 C12         2.3587   51.5719   20.9988 C.ar      1 UNK         0.0000 
     13 C13         3.4508   52.3213   21.4383 C.ar      1 UNK         0.0000 
     14 C14         3.2985   53.2339   22.4829 C.ar      1 UNK         0.0000 
     15 C15         2.0666   53.3686   23.1142 C.ar      1 UNK         0.0000 
     16 C16         4.8294   52.0786   20.8380 C.3       1 UNK         0.0000 
     17 N17         5.1066   52.8975   19.6620 N.am      1 UNK         0.0000 
     18 C18         5.3606   54.2164   19.6903 C.2       1 UNK         0.0000 
     19 O19         5.5060   54.8413   20.7447 O.2       1 UNK         0.0000 
     20 C20         5.4214   54.9474   18.3343 C.3       1 UNK         0.0000 
     21 H21         5.6690   54.1985   17.5783 H         1 UNK         0.0000 
     22 C22         6.4981   56.0741   18.3579 C.3       1 UNK         0.0000 
     23 C23         6.4631   56.8667   17.0229 C.3       1 UNK         0.0000 
     24 C24         5.0479   57.3912   16.6850 C.3       1 UNK         0.0000 
     25 N25         4.0440   56.3075   16.8170 N.pl3     1 UNK         0.0000 
     26 C26         4.0269   55.5672   18.0963 C.3       1 UNK         0.0000 
     27 S27         3.0479   55.7664   15.4598 S.o2      1 UNK         0.0000 
     28 O28         3.3185   54.3382   15.2514 O.2       1 UNK         0.0000 
     29 O29         3.1995   56.7187   14.3544 O.2       1 UNK         0.0000 
     30 C30         1.3723   55.9150   16.0699 C.ar      1 UNK         0.0000 
     31 C31         0.7092   54.7901   16.5653 C.ar      1 UNK         0.0000 
     32 C32        -0.5714   54.9214   17.0950 C.ar      1 UNK         0.0000 
     33 C33        -1.1743   56.1763   17.1354 C.ar      1 UNK         0.0000 
     34 C34        -0.5206   57.2966   16.6288 C.ar      1 UNK         0.0000 
     35 C35         0.7576   57.1668   16.0897 C.ar      1 UNK         0.0000 
     36 F36        -2.4037   56.3049   17.6814 F         1 UNK         0.0000 
     37 H37         1.4883   52.2739   27.1044 H         1 UNK         0.0000 
     38 H38         1.0907   53.3333   25.7794 H         1 UNK         0.0000 
     39 H39        -0.1791   52.7633   26.8573 H         1 UNK         0.0000 
     40 H40        -0.5480   50.2691   27.0943 H         1 UNK         0.0000 
     41 H41         1.0850   49.6968   26.8817 H         1 UNK         0.0000 
     42 H42        -0.6378   48.0109   26.2661 H         1 UNK         0.0000 
     43 H43         0.4639   48.3516   24.9583 H         1 UNK         0.0000 
     44 H44        -2.3599   49.5041   25.3128 H         1 UNK         0.0000 
     45 H45        -1.8875   48.2973   24.1450 H         1 UNK         0.0000 
     46 H46        -2.0043   50.5691   23.1100 H         1 UNK         0.0000 
     47 H47        -0.3322   49.9449   23.0354 H         1 UNK         0.0000 
     48 H48        -0.4006   53.5871   24.0576 H         1 UNK         0.0000 
     49 H49        -1.1809   52.6984   22.7655 H         1 UNK         0.0000 
     50 H50         0.2882   51.1283   21.2741 H         1 UNK         0.0000 
     51 H51         2.4702   50.8728   20.1810 H         1 UNK         0.0000 
     52 H52         4.1407   53.8255   22.8169 H         1 UNK         0.0000 
     53 H53         1.9731   54.0747   23.9253 H         1 UNK         0.0000 
     54 H54         4.9103   51.0309   20.5506 H         1 UNK         0.0000 
     55 H55         5.5858   52.2341   21.6076 H         1 UNK         0.0000 
     56 H56         5.0668   52.4040   18.7754 H         1 UNK         0.0000 
     57 H57         7.5032   55.6641   18.4632 H         1 UNK         0.0000 
     58 H58         6.2849   56.8105   19.1348 H         1 UNK         0.0000 
     59 H59         6.8104   56.2258   16.2118 H         1 UNK         0.0000 
     60 H60         7.1613   57.7023   17.0646 H         1 UNK         0.0000 
     61 H61         5.0226   57.7818   15.6683 H         1 UNK         0.0000 
     62 H62         4.7507   58.2163   17.3348 H         1 UNK         0.0000 
     63 H63         3.7473   56.2907   18.8597 H         1 UNK         0.0000 
     64 H64         3.2576   54.7959   18.0245 H         1 UNK         0.0000 
     65 H65         1.1838   53.8180   16.5534 H         1 UNK         0.0000 
     66 H66        -1.0870   54.0564   17.4885 H         1 UNK         0.0000 
     67 H67        -0.9945   58.2672   16.6697 H         1 UNK         0.0000 
     68 H68         1.2734   58.0415   15.7178 H         1 UNK         0.0000 
     69 H69        -1.4305   51.8103   25.0435 H         1 UNK         0.0000 
@<TRIPOS>BOND
     1    1    2 1    
     2    1   37 1    
     3    1   38 1    
     4    1   39 1    
     5    2    3 1    
     6    2    8 1    
     7    2    4 1    
     8    4    5 1    
     9    4   40 1    
    10    4   41 1    
    11    5    6 1    
    12    5   42 1    
    13    5   43 1    
    14    6    7 1    
    15    6   44 1    
    16    6   45 1    
    17    7    8 1    
    18    7   46 1    
    19    7   47 1    
    20    8    9 1    
    21    8   69 1    
    22    9   10 1    
    23    9   48 1    
    24    9   49 1    
    25   10   15 ar   
    26   10   11 ar   
    27   11   12 ar   
    28   11   50 1    
    29   12   13 ar   
    30   12   51 1    
    31   13   14 ar   
    32   13   16 1    
    33   14   15 ar   
    34   14   52 1    
    35   15   53 1    
    36   16   17 1    
    37   16   54 1    
    38   16   55 1    
    39   17   18 am   BACKBONE|DICT|INTERRES
    40   17   56 1    
    41   18   19 2    
    42   18   20 1    
    43   20   21 1    
    44   20   26 1    
    45   20   22 1    
    46   22   23 1    
    47   22   57 1    
    48   22   58 1    
    49   23   24 1    
    50   23   59 1    
    51   23   60 1    
    52   24   25 1    
    53   24   61 1    
    54   24   62 1    
    55   25   26 1    
    56   25   27 1    
    57   26   63 1    
    58   26   64 1    
    59   27   28 2    
    60   27   29 2    
    61   27   30 1    
    62   30   35 ar   
    63   30   31 ar   
    64   31   32 ar   
    65   31   65 1    
    66   32   33 ar   
    67   32   66 1    
    68   33   34 ar   
    69   33   36 1    
    70   34   35 ar   
    71   34   67 1    
    72   35   68 1    
@<TRIPOS>SUBSTRUCTURE
     1 UNK         1 GROUP             0       ****    0 ROOT    
