@<TRIPOS>MOLECULE
ZINC58867739_3640
53   56    1
SMALL
USER_CHARGES


@<TRIPOS>ATOM
      1 C1          1.8162   52.4981   30.6051 C.ar      1 UNK         0.0000 
      2 C2          2.4192   52.2729   29.3705 C.ar      1 UNK         0.0000 
      3 C3          1.6267   52.0073   28.2576 C.ar      1 UNK         0.0000 
      4 C4          0.2264   51.9441   28.3721 C.ar      1 UNK         0.0000 
      5 C5         -0.3560   52.1716   29.6255 C.ar      1 UNK         0.0000 
      6 C6          0.4307   52.4719   30.7319 C.ar      1 UNK         0.0000 
      7 C7         -0.6672   51.6479   27.1806 C.2       1 UNK         0.0000 
      8 O8         -1.8970   51.6958   27.2492 O.2       1 UNK         0.0000 
      9 N9         -0.0324   51.4308   25.9738 N.am      1 UNK         0.0000 
     10 C10         0.1769   50.2497   25.5411 C.2       1 UNK         0.0000 
     11 C11         1.0183   50.1071   24.2537 C.3       1 UNK         0.0000 
     12 H12         1.7685   49.3461   24.4819 H         1 UNK         0.0000 
     13 C13         1.8114   51.3048   23.6805 C.3       1 UNK         0.0000 
     14 H14         2.7037   51.4657   24.2733 H         1 UNK         0.0000 
     15 N15         2.1674   50.7365   22.4036 N.3       1 UNK         0.0000 
     16 N16         1.0174   50.0542   21.9585 N.am      1 UNK         0.0000 
     17 C17         0.3387   49.5160   23.0108 C.2       1 UNK         0.0000 
     18 O18        -0.5926   48.7084   23.0096 O.2       1 UNK         0.0000 
     19 C19         0.7442   49.9186   20.5694 C.ar      1 UNK         0.0000 
     20 C20        -0.5267   49.5365   20.1037 C.ar      1 UNK         0.0000 
     21 C21        -0.7767   49.4103   18.7409 C.ar      1 UNK         0.0000 
     22 C22         0.2413   49.6601   17.8260 C.ar      1 UNK         0.0000 
     23 C23         1.5051   50.0400   18.2621 C.ar      1 UNK         0.0000 
     24 C24         1.7557   50.1732   19.6241 C.ar      1 UNK         0.0000 
     25 C25         1.1583   52.7064   23.5080 C.3       1 UNK         0.0000 
     26 S26         2.3220   53.9534   22.8817 S.3       1 UNK         0.0000 
     27 C27         3.6576   54.0962   24.0324 C.ar      1 UNK         0.0000 
     28 C28         4.9580   54.2215   23.5424 C.ar      1 UNK         0.0000 
     29 C29         6.0241   54.3635   24.4284 C.ar      1 UNK         0.0000 
     30 C30         5.7827   54.3651   25.8020 C.ar      1 UNK         0.0000 
     31 C31         4.4839   54.2309   26.2952 C.ar      1 UNK         0.0000 
     32 C32         3.4174   54.0968   25.4086 C.ar      1 UNK         0.0000 
     33 Cl33        7.1041   54.5219   26.8995 Cl        1 UNK         0.0000 
     34 N34        -0.1815   49.0267   26.0817 N.pl3     1 UNK         0.0000 
     35 H35         2.4248   52.6851   31.4765 H         1 UNK         0.0000 
     36 H36         3.4952   52.3043   29.2726 H         1 UNK         0.0000 
     37 H37         2.1184   51.8427   27.3087 H         1 UNK         0.0000 
     38 H38        -1.4265   52.0978   29.7486 H         1 UNK         0.0000 
     39 H39        -0.0420   52.6321   31.6908 H         1 UNK         0.0000 
     40 H40         2.3031   51.4922   21.7443 H         1 UNK         0.0000 
     41 H41        -1.3422   49.3442   20.7849 H         1 UNK         0.0000 
     42 H42        -1.7569   49.1173   18.3951 H         1 UNK         0.0000 
     43 H43         0.0501   49.5581   16.7677 H         1 UNK         0.0000 
     44 H44         2.2999   50.2181   17.5497 H         1 UNK         0.0000 
     45 H45         2.7541   50.4554   19.9267 H         1 UNK         0.0000 
     46 H46         0.2994   52.6582   22.8373 H         1 UNK         0.0000 
     47 H47         0.7857   53.1166   24.4410 H         1 UNK         0.0000 
     48 H48         5.1384   54.2175   22.4773 H         1 UNK         0.0000 
     49 H49         7.0316   54.4652   24.0511 H         1 UNK         0.0000 
     50 H50         4.3052   54.2314   27.3604 H         1 UNK         0.0000 
     51 H51         2.4142   53.9999   25.7947 H         1 UNK         0.0000 
     52 H52        -0.7088   48.9519   26.9592 H         1 UNK         0.0000 
     53 H53         0.1884   48.1655   25.7069 H         1 UNK         0.0000 
@<TRIPOS>BOND
     1    1    6 ar   
     2    1    2 ar   
     3    1   35 1    
     4    2    3 ar   
     5    2   36 1    
     6    3    4 ar   
     7    3   37 1    
     8    4    5 ar   
     9    4    7 1    
    10    5    6 ar   
    11    5   38 1    
    12    6   39 1    
    13    7    8 2    
    14    7    9 am   BACKBONE|DICT|INTERRES
    15    9   10 2    
    16   10   11 1    
    17   10   34 1    
    18   11   12 1    
    19   11   17 1    
    20   11   13 1    
    21   13   14 1    
    22   13   15 1    
    23   13   25 1    
    24   15   16 1    
    25   15   40 1    
    26   16   17 am   BACKBONE|DICT|INTERRES
    27   16   19 1    
    28   17   18 2    
    29   19   24 ar   
    30   19   20 ar   
    31   20   21 ar   
    32   20   41 1    
    33   21   22 ar   
    34   21   42 1    
    35   22   23 ar   
    36   22   43 1    
    37   23   24 ar   
    38   23   44 1    
    39   24   45 1    
    40   25   26 1    
    41   25   46 1    
    42   25   47 1    
    43   26   27 1    
    44   27   32 ar   
    45   27   28 ar   
    46   28   29 ar   
    47   28   48 1    
    48   29   30 ar   
    49   29   49 1    
    50   30   31 ar   
    51   30   33 1    
    52   31   32 ar   
    53   31   50 1    
    54   32   51 1    
    55   34   52 1    
    56   34   53 1    
@<TRIPOS>SUBSTRUCTURE
     1 UNK         1 GROUP             0       ****    0 ROOT    
