@<TRIPOS>MOLECULE
ZINC66758505_1506
43   47    1
SMALL
USER_CHARGES


@<TRIPOS>ATOM
      1 C1          3.1278   53.6971   24.8735 C.3       1 UNK         0.0000 
      2 C2          4.5633   54.0974   25.2082 C.ar      1 UNK         0.0000 
      3 C3          5.6775   54.4056   24.4083 C.ar      1 UNK         0.0000 
      4 N4          6.7032   54.7148   25.1913 N.2       1 UNK         0.0000 
      5 N5          6.3280   54.5521   26.5086 N.2       1 UNK         0.0000 
      6 N6          5.0452   54.1684   26.5022 N.pl3     1 UNK         0.0000 
      7 C7          4.3864   53.8118   27.6995 C.ar      1 UNK         0.0000 
      8 C8          4.9935   52.9123   28.5783 C.ar      1 UNK         0.0000 
      9 C9          4.3046   52.4139   29.6818 C.ar      1 UNK         0.0000 
     10 C10         2.9711   52.8083   29.9235 C.ar      1 UNK         0.0000 
     11 C11         2.3579   53.7560   29.0492 C.ar      1 UNK         0.0000 
     12 C12         3.0897   54.2666   27.9526 C.ar      1 UNK         0.0000 
     13 C13         1.0147   54.1189   29.3023 C.ar      1 UNK         0.0000 
     14 C14         0.3425   53.5344   30.3721 C.ar      1 UNK         0.0000 
     15 C15         1.0122   52.6189   31.1780 C.ar      1 UNK         0.0000 
     16 N16         2.3032   52.2560   30.9752 N.ar      1 UNK         0.0000 
     17 C17         5.7186   54.3166   22.9639 C.2       1 UNK         0.0000 
     18 O18         4.8646   53.6787   22.3480 O.2       1 UNK         0.0000 
     19 N19         6.7177   55.0101   22.3751 N.am      1 UNK         0.0000 
     20 C20         6.8652   55.3119   21.0067 C.ar      1 UNK         0.0000 
     21 C21         5.8005   55.2975   20.0876 C.ar      1 UNK         0.0000 
     22 C22         5.9572   55.6656   18.7518 C.ar      1 UNK         0.0000 
     23 C23         7.2306   56.0800   18.3626 C.ar      1 UNK         0.0000 
     24 C24         8.3238   56.1075   19.2592 C.ar      1 UNK         0.0000 
     25 C25         8.1404   55.7011   20.5901 C.ar      1 UNK         0.0000 
     26 C26         9.4008   56.6115   18.4720 C.ar      1 UNK         0.0000 
     27 N27         9.0329   56.8513   17.2408 N.2       1 UNK         0.0000 
     28 N28         7.7291   56.5346   17.1587 N.pl3     1 UNK         0.0000 
     29 H29         7.2303   56.6510   16.2893 H         1 UNK         0.0000 
     30 H30         2.4626   54.5587   24.8559 H         1 UNK         0.0000 
     31 H31         3.0311   53.2114   23.9032 H         1 UNK         0.0000 
     32 H32         2.7145   52.9816   25.5855 H         1 UNK         0.0000 
     33 H33         5.9925   52.5534   28.3753 H         1 UNK         0.0000 
     34 H34         4.7745   51.6990   30.3409 H         1 UNK         0.0000 
     35 H35         2.6094   54.9637   27.2826 H         1 UNK         0.0000 
     36 H36         0.5154   54.8209   28.6513 H         1 UNK         0.0000 
     37 H37        -0.6894   53.7735   30.5617 H         1 UNK         0.0000 
     38 H38         0.5016   52.1493   32.0099 H         1 UNK         0.0000 
     39 H39         7.4324   55.3764   22.9870 H         1 UNK         0.0000 
     40 H40         4.8047   55.0165   20.3947 H         1 UNK         0.0000 
     41 H41         5.1227   55.6496   18.0658 H         1 UNK         0.0000 
     42 H42         8.9702   55.7229   21.2822 H         1 UNK         0.0000 
     43 H43        10.4128   56.8033   18.7896 H         1 UNK         0.0000 
@<TRIPOS>BOND
     1    1    2 1    
     2    1   30 1    
     3    1   31 1    
     4    1   32 1    
     5    2    6 ar   
     6    2    3 ar   
     7    3    4 ar   
     8    3   17 1    
     9    4    5 ar   
    10    5    6 ar   
    11    6    7 1    
    12    7   12 ar   
    13    7    8 ar   
    14    8    9 ar   
    15    8   33 1    
    16    9   10 ar   
    17    9   34 1    
    18   10   16 ar   
    19   10   11 ar   
    20   11   12 ar   
    21   11   13 ar   
    22   12   35 1    
    23   13   14 ar   
    24   13   36 1    
    25   14   15 ar   
    26   14   37 1    
    27   15   16 ar   
    28   15   38 1    
    29   17   18 2    
    30   17   19 am   BACKBONE|DICT|INTERRES
    31   19   20 1    
    32   19   39 1    
    33   20   25 ar   
    34   20   21 ar   
    35   21   22 ar   
    36   21   40 1    
    37   22   23 ar   
    38   22   41 1    
    39   23   28 ar   
    40   23   24 ar   
    41   24   25 ar   
    42   24   26 ar   
    43   25   42 1    
    44   26   27 ar   
    45   26   43 1    
    46   27   28 ar   
    47   28   29 1    
@<TRIPOS>SUBSTRUCTURE
     1 UNK         1 GROUP             0       ****    0 ROOT    
