@<TRIPOS>MOLECULE
ZINC27268788_5156
61   64    1
SMALL
USER_CHARGES


@<TRIPOS>ATOM
      1 C1          8.0976   55.2807   17.5660 C.3       1 UNK         0.0000 
      2 C2          8.7589   56.2855   18.5298 C.3       1 UNK         0.0000 
      3 C3          8.2504   57.7229   18.2882 C.3       1 UNK         0.0000 
      4 C4          8.7122   55.8355   20.0171 C.3       1 UNK         0.0000 
      5 C5          7.3386   55.6967   20.7005 C.2       1 UNK         0.0000 
      6 O6          6.3022   55.9692   20.0940 O.2       1 UNK         0.0000 
      7 N7          7.3785   55.2936   21.9878 N.am      1 UNK         0.0000 
      8 C8          6.3101   54.8964   22.8092 C.ar      1 UNK         0.0000 
      9 C9          6.5509   54.8972   24.1840 C.ar      1 UNK         0.0000 
     10 C10         5.5595   54.4973   25.0716 C.ar      1 UNK         0.0000 
     11 C11         4.3104   54.1052   24.5942 C.ar      1 UNK         0.0000 
     12 C12         4.0636   54.0887   23.2131 C.ar      1 UNK         0.0000 
     13 C13         5.0635   54.4706   22.3231 C.ar      1 UNK         0.0000 
     14 N14         3.3863   53.6955   25.5688 N.am      1 UNK         0.0000 
     15 C15         2.0529   53.5133   25.4595 C.2       1 UNK         0.0000 
     16 O16         1.3839   53.8472   24.4806 O.2       1 UNK         0.0000 
     17 C17         1.4405   52.8974   26.6251 C.2       1 UNK         0.0000 
     18 C18         0.1904   52.2452   26.7421 C.2       1 UNK         0.0000 
     19 C19        -0.1273   51.9461   28.0792 C.2       1 UNK         0.0000 
     20 C20         0.7924   52.4200   28.9934 C.2       1 UNK         0.0000 
     21 S21         2.0940   53.2422   28.2177 S.3       1 UNK         0.0000 
     22 S22        -0.8881   51.6633   25.3869 S.o2      1 UNK         0.0000 
     23 O23        -2.0982   52.4936   25.4530 O.2       1 UNK         0.0000 
     24 O24        -0.1003   51.5616   24.1528 O.2       1 UNK         0.0000 
     25 N25        -1.2596   50.0337   25.9776 N.pl3     1 UNK         0.0000 
     26 C26        -0.2471   48.9696   25.7781 C.3       1 UNK         0.0000 
     27 C27        -0.3924   48.3591   24.3720 C.3       1 UNK         0.0000 
     28 C28        -1.8406   47.9264   24.1071 C.ar      1 UNK         0.0000 
     29 C29        -2.1133   46.9404   23.1500 C.ar      1 UNK         0.0000 
     30 C30        -3.4176   46.5295   22.8896 C.ar      1 UNK         0.0000 
     31 C31        -4.4745   47.0997   23.5903 C.ar      1 UNK         0.0000 
     32 C32        -4.2224   48.0793   24.5477 C.ar      1 UNK         0.0000 
     33 C33        -2.9203   48.5090   24.8195 C.ar      1 UNK         0.0000 
     34 C34        -2.6626   49.5512   25.9116 C.3       1 UNK         0.0000 
     35 H35         7.0159   55.2394   17.6991 H         1 UNK         0.0000 
     36 H36         8.4893   54.2737   17.7186 H         1 UNK         0.0000 
     37 H37         8.2868   55.5466   16.5260 H         1 UNK         0.0000 
     38 H38         9.8187   56.2999   18.2634 H         1 UNK         0.0000 
     39 H39         7.1939   57.8327   18.5292 H         1 UNK         0.0000 
     40 H40         8.8076   58.4480   18.8818 H         1 UNK         0.0000 
     41 H41         8.3733   58.0162   17.2440 H         1 UNK         0.0000 
     42 H42         9.1977   54.8678   20.0755 H         1 UNK         0.0000 
     43 H43         9.3316   56.4969   20.6165 H         1 UNK         0.0000 
     44 H44         8.2822   55.2995   22.4451 H         1 UNK         0.0000 
     45 H45         7.5050   55.2100   24.5711 H         1 UNK         0.0000 
     46 H46         5.7703   54.5004   26.1309 H         1 UNK         0.0000 
     47 H47         3.1205   53.7548   22.8064 H         1 UNK         0.0000 
     48 H48         4.8505   54.4183   21.2663 H         1 UNK         0.0000 
     49 H49         3.7951   53.4534   26.4559 H         1 UNK         0.0000 
     50 H50        -1.0139   51.4016   28.3710 H         1 UNK         0.0000 
     51 H51         0.7548   52.3344   30.0699 H         1 UNK         0.0000 
     52 H52         0.7467   49.3227   26.0483 H         1 UNK         0.0000 
     53 H53        -0.4959   48.1746   26.4816 H         1 UNK         0.0000 
     54 H54        -0.1543   49.1065   23.6191 H         1 UNK         0.0000 
     55 H55         0.3064   47.5328   24.2432 H         1 UNK         0.0000 
     56 H56        -1.3021   46.4972   22.5936 H         1 UNK         0.0000 
     57 H57        -3.6067   45.7779   22.1353 H         1 UNK         0.0000 
     58 H58        -5.4889   46.7855   23.3918 H         1 UNK         0.0000 
     59 H59        -5.0509   48.5052   25.0954 H         1 UNK         0.0000 
     60 H60        -2.8931   49.0521   26.8640 H         1 UNK         0.0000 
     61 H61        -3.3443   50.3989   25.8454 H         1 UNK         0.0000 
@<TRIPOS>BOND
     1    1    2 1    
     2    1   35 1    
     3    1   36 1    
     4    1   37 1    
     5    2    3 1    
     6    2    4 1    
     7    2   38 1    
     8    3   39 1    
     9    3   40 1    
    10    3   41 1    
    11    4    5 1    
    12    4   42 1    
    13    4   43 1    
    14    5    6 2    
    15    5    7 am   BACKBONE|DICT|INTERRES
    16    7    8 1    
    17    7   44 1    
    18    8   13 ar   
    19    8    9 ar   
    20    9   10 ar   
    21    9   45 1    
    22   10   11 ar   
    23   10   46 1    
    24   11   12 ar   
    25   11   14 1    
    26   12   13 ar   
    27   12   47 1    
    28   13   48 1    
    29   14   15 am   BACKBONE|DICT|INTERRES
    30   14   49 1    
    31   15   16 2    
    32   15   17 1    
    33   17   21 1    
    34   17   18 2    
    35   18   19 1    
    36   18   22 1    
    37   19   20 2    
    38   19   50 1    
    39   20   21 1    
    40   20   51 1    
    41   22   23 2    
    42   22   24 2    
    43   22   25 1    
    44   25   34 1    
    45   25   26 1    
    46   26   27 1    
    47   26   52 1    
    48   26   53 1    
    49   27   28 1    
    50   27   54 1    
    51   27   55 1    
    52   28   33 ar   
    53   28   29 ar   
    54   29   30 ar   
    55   29   56 1    
    56   30   31 ar   
    57   30   57 1    
    58   31   32 ar   
    59   31   58 1    
    60   32   33 ar   
    61   32   59 1    
    62   33   34 1    
    63   34   60 1    
    64   34   61 1    
@<TRIPOS>SUBSTRUCTURE
     1 UNK         1 GROUP             0       ****    0 ROOT    
