@<TRIPOS>MOLECULE
ZINC13266642_5940
50   53    1
SMALL
USER_CHARGES


@<TRIPOS>ATOM
      1 C1          4.5105   53.9719   20.8865 C.3       1 UNK         0.0000 
      2 C2          3.7616   54.0066   22.2311 C.3       1 UNK         0.0000 
      3 H3          3.1195   54.8924   22.1878 H         1 UNK         0.0000 
      4 C4          4.7023   54.1618   23.4284 C.2       1 UNK         0.0000 
      5 C5          6.0787   54.4054   23.4542 C.2       1 UNK         0.0000 
      6 C6          6.6264   54.5572   24.7293 C.2       1 UNK         0.0000 
      7 C7          5.6823   54.4325   25.7301 C.2       1 UNK         0.0000 
      8 S8          4.1145   54.1054   25.0789 S.3       1 UNK         0.0000 
      9 N9          2.9409   52.8046   22.3606 N.am      1 UNK         0.0000 
     10 C10         1.7201   52.7457   22.9191 C.2       1 UNK         0.0000 
     11 O11         1.1049   53.7408   23.2989 O.2       1 UNK         0.0000 
     12 C12         1.1405   51.3358   23.0786 C.3       1 UNK         0.0000 
     13 S13        -0.6512   51.2579   23.4263 S.3       1 UNK         0.0000 
     14 C14        -0.7446   51.4283   25.2420 C.ar      1 UNK         0.0000 
     15 N15         0.3405   51.6989   25.8789 N.2       1 UNK         0.0000 
     16 C16         0.3477   51.8576   27.2677 C.ar      1 UNK         0.0000 
     17 C17         1.5486   52.1764   27.8988 C.ar      1 UNK         0.0000 
     18 C18         1.5918   52.3299   29.2936 C.ar      1 UNK         0.0000 
     19 C19         0.4157   52.1566   30.0382 C.ar      1 UNK         0.0000 
     20 C20        -0.7826   51.8290   29.4065 C.ar      1 UNK         0.0000 
     21 C21        -0.8110   51.6965   28.0181 C.ar      1 UNK         0.0000 
     22 C22        -2.1017   51.3808   27.2968 C.ar      1 UNK         0.0000 
     23 O23        -3.1836   51.2963   27.8900 O.2       1 UNK         0.0000 
     24 N24        -1.9491   51.2636   25.9254 N.pl3     1 UNK         0.0000 
     25 C25        -3.1340   50.9678   25.2023 C.ar      1 UNK         0.0000 
     26 C26        -4.0712   51.9822   24.9544 C.ar      1 UNK         0.0000 
     27 C27        -5.2466   51.6959   24.2620 C.ar      1 UNK         0.0000 
     28 C28        -5.4917   50.4030   23.8013 C.ar      1 UNK         0.0000 
     29 C29        -4.5629   49.3898   24.0405 C.ar      1 UNK         0.0000 
     30 C30        -3.3891   49.6647   24.7418 C.ar      1 UNK         0.0000 
     31 F31        -2.5030   48.6656   24.9653 F         1 UNK         0.0000 
     32 C32         2.8673   52.6553   29.9917 C.2       1 UNK         0.0000 
     33 O33         3.5079   51.6972   30.4809 O.co2     1 UNK         0.0000 
     34 H34         5.0822   54.8865   20.7239 H         1 UNK         0.0000 
     35 H35         5.2021   53.1310   20.8289 H         1 UNK         0.0000 
     36 H36         3.8101   53.8818   20.0544 H         1 UNK         0.0000 
     37 H37         6.6779   54.4854   22.5599 H         1 UNK         0.0000 
     38 H38         7.6728   54.7536   24.9026 H         1 UNK         0.0000 
     39 H39         5.8245   54.4969   26.8002 H         1 UNK         0.0000 
     40 H40         3.4219   51.9353   22.1962 H         1 UNK         0.0000 
     41 H41         1.3051   50.7951   22.1492 H         1 UNK         0.0000 
     42 H42         1.6969   50.8040   23.8499 H         1 UNK         0.0000 
     43 H43         2.4410   52.3008   27.3049 H         1 UNK         0.0000 
     44 H44         0.4239   52.2548   31.1165 H         1 UNK         0.0000 
     45 H45        -1.6721   51.6780   30.0010 H         1 UNK         0.0000 
     46 H46        -3.8917   52.9885   25.3093 H         1 UNK         0.0000 
     47 H47        -5.9692   52.4798   24.0819 H         1 UNK         0.0000 
     48 H48        -6.4020   50.1866   23.2627 H         1 UNK         0.0000 
     49 H49        -4.7537   48.3876   23.6857 H         1 UNK         0.0000 
     50 O50         3.1787   53.8650   30.0818 O.co2     1 UNK         0.0000 
@<TRIPOS>BOND
     1    1    2 1    
     2    1   34 1    
     3    1   35 1    
     4    1   36 1    
     5    2    3 1    
     6    2    4 1    
     7    2    9 1    
     8    4    8 1    
     9    4    5 2    
    10    5    6 1    
    11    5   37 1    
    12    6    7 2    
    13    6   38 1    
    14    7    8 1    
    15    7   39 1    
    16    9   10 am   BACKBONE|DICT|INTERRES
    17    9   40 1    
    18   10   11 2    
    19   10   12 1    
    20   12   13 1    
    21   12   41 1    
    22   12   42 1    
    23   13   14 1    
    24   14   24 ar   
    25   14   15 ar   
    26   15   16 ar   
    27   16   21 ar   
    28   16   17 ar   
    29   17   18 ar   
    30   17   43 1    
    31   18   19 ar   
    32   18   32 1    
    33   19   20 ar   
    34   19   44 1    
    35   20   21 ar   
    36   20   45 1    
    37   21   22 ar   
    38   22   23 2    
    39   22   24 ar   
    40   24   25 1    
    41   25   30 ar   
    42   25   26 ar   
    43   26   27 ar   
    44   26   46 1    
    45   27   28 ar   
    46   27   47 1    
    47   28   29 ar   
    48   28   48 1    
    49   29   30 ar   
    50   29   49 1    
    51   30   31 1    
    52   32   33 2    
    53   32   50 1    
@<TRIPOS>SUBSTRUCTURE
     1 UNK         1 GROUP             0       ****    0 ROOT    
