@<TRIPOS>MOLECULE
ZINC43260174_3182
66   69    1
SMALL
USER_CHARGES


@<TRIPOS>ATOM
      1 C1          0.2362   53.4903   31.3431 C.3       1 UNK         0.0000 
      2 C2          0.5235   53.2179   29.8817 C.ar      1 UNK         0.0000 
      3 C3          1.2970   54.1175   29.1544 C.ar      1 UNK         0.0000 
      4 C4          1.5450   53.8865   27.8056 C.ar      1 UNK         0.0000 
      5 C5          1.0089   52.7535   27.1683 C.ar      1 UNK         0.0000 
      6 C6          0.2368   51.8548   27.9105 C.ar      1 UNK         0.0000 
      7 C7         -0.0062   52.0856   29.2620 C.ar      1 UNK         0.0000 
      8 N8          1.1685   52.4465   25.8000 N.am      1 UNK         0.0000 
      9 C9          1.9084   53.0725   24.8506 C.2       1 UNK         0.0000 
     10 O10         2.5577   54.0945   25.0806 O.2       1 UNK         0.0000 
     11 N11         1.8929   52.5052   23.6061 N.am      1 UNK         0.0000 
     12 C12         1.3785   51.1361   23.3640 C.3       1 UNK         0.0000 
     13 C13         2.2002   50.4554   22.2541 C.3       1 UNK         0.0000 
     14 N14         1.9934   51.2689   21.0542 N.am      1 UNK         0.0000 
     15 C15         2.5654   52.6364   21.1015 C.3       1 UNK         0.0000 
     16 H16         1.9596   53.2925   20.4738 H         1 UNK         0.0000 
     17 C17         2.5960   53.2643   22.5378 C.3       1 UNK         0.0000 
     18 C18         4.0000   52.6936   20.5264 C.2       1 UNK         0.0000 
     19 O19         4.8877   51.9767   20.9923 O.2       1 UNK         0.0000 
     20 N20         4.2158   53.6048   19.5646 N.am      1 UNK         0.0000 
     21 C21         5.5167   53.9011   18.9630 C.3       1 UNK         0.0000 
     22 C22         6.2505   55.0367   19.7119 C.3       1 UNK         0.0000 
     23 H23         6.2225   54.8803   20.7914 H         1 UNK         0.0000 
     24 C24         5.9597   56.4658   19.2414 C.3       1 UNK         0.0000 
     25 C25         6.9852   56.7807   18.1710 C.3       1 UNK         0.0000 
     26 C26         7.9938   55.6408   18.2569 C.3       1 UNK         0.0000 
     27 O27         7.6486   54.9347   19.4446 O.3       1 UNK         0.0000 
     28 C28         1.4019   50.8184   19.9072 C.2       1 UNK         0.0000 
     29 O29         1.3741   51.4864   18.8725 O.2       1 UNK         0.0000 
     30 C30         0.7206   49.4712   19.8899 C.ar      1 UNK         0.0000 
     31 C31        -0.2917   49.1652   20.8098 C.ar      1 UNK         0.0000 
     32 C32        -0.9728   47.9523   20.7350 C.ar      1 UNK         0.0000 
     33 C33        -0.6549   47.0359   19.7357 C.ar      1 UNK         0.0000 
     34 C34         0.3414   47.3250   18.7971 C.ar      1 UNK         0.0000 
     35 C35         1.0245   48.5473   18.8789 C.ar      1 UNK         0.0000 
     36 C36         0.6471   46.3172   17.6906 C.3       1 UNK         0.0000 
     37 F37         1.8130   46.5602   17.0903 F         1 UNK         0.0000 
     38 F38         0.6768   45.0790   18.1855 F         1 UNK         0.0000 
     39 F39        -0.3181   46.3795   16.7722 F         1 UNK         0.0000 
     40 H40         1.1027   53.2617   31.9618 H         1 UNK         0.0000 
     41 H41        -0.0350   54.5358   31.4966 H         1 UNK         0.0000 
     42 H42        -0.6058   52.8965   31.6809 H         1 UNK         0.0000 
     43 H43         1.7017   55.0000   29.6286 H         1 UNK         0.0000 
     44 H44         2.1429   54.6165   27.2890 H         1 UNK         0.0000 
     45 H45        -0.1870   50.9724   27.4507 H         1 UNK         0.0000 
     46 H46        -0.6093   51.3824   29.8213 H         1 UNK         0.0000 
     47 H47         0.6697   51.6243   25.4990 H         1 UNK         0.0000 
     48 H48         1.4896   50.5064   24.2487 H         1 UNK         0.0000 
     49 H49         0.3240   51.1859   23.0950 H         1 UNK         0.0000 
     50 H50         3.2641   50.4552   22.4866 H         1 UNK         0.0000 
     51 H51         1.9524   49.4025   22.1261 H         1 UNK         0.0000 
     52 H52         3.6312   53.3937   22.8671 H         1 UNK         0.0000 
     53 H53         2.1296   54.2476   22.4485 H         1 UNK         0.0000 
     54 H54         3.4201   54.1167   19.2107 H         1 UNK         0.0000 
     55 H55         5.3471   54.1853   17.9238 H         1 UNK         0.0000 
     56 H56         6.1368   53.0024   18.9174 H         1 UNK         0.0000 
     57 H57         6.0816   57.1431   20.0873 H         1 UNK         0.0000 
     58 H58         4.9273   56.5948   18.9118 H         1 UNK         0.0000 
     59 H59         7.4554   57.7470   18.3504 H         1 UNK         0.0000 
     60 H60         6.5279   56.8151   17.1819 H         1 UNK         0.0000 
     61 H61         9.0255   55.9901   18.3099 H         1 UNK         0.0000 
     62 H62         7.9264   54.9676   17.4006 H         1 UNK         0.0000 
     63 H63        -0.5811   49.8763   21.5688 H         1 UNK         0.0000 
     64 H64        -1.7557   47.7285   21.4436 H         1 UNK         0.0000 
     65 H65        -1.1978   46.1023   19.6822 H         1 UNK         0.0000 
     66 H66         1.7873   48.7894   18.1469 H         1 UNK         0.0000 
@<TRIPOS>BOND
     1    1    2 1    
     2    1   40 1    
     3    1   41 1    
     4    1   42 1    
     5    2    7 ar   
     6    2    3 ar   
     7    3    4 ar   
     8    3   43 1    
     9    4    5 ar   
    10    4   44 1    
    11    5    6 ar   
    12    5    8 1    
    13    6    7 ar   
    14    6   45 1    
    15    7   46 1    
    16    8    9 am   BACKBONE|DICT|INTERRES
    17    8   47 1    
    18    9   10 2    
    19    9   11 am   BACKBONE|DICT|INTERRES
    20   11   17 1    
    21   11   12 1    
    22   12   13 1    
    23   12   48 1    
    24   12   49 1    
    25   13   14 1    
    26   13   50 1    
    27   13   51 1    
    28   14   15 1    
    29   14   28 am   BACKBONE|DICT|INTERRES
    30   15   16 1    
    31   15   17 1    
    32   15   18 1    
    33   17   52 1    
    34   17   53 1    
    35   18   19 2    
    36   18   20 am   BACKBONE|DICT|INTERRES
    37   20   21 1    
    38   20   54 1    
    39   21   22 1    
    40   21   55 1    
    41   21   56 1    
    42   22   23 1    
    43   22   27 1    
    44   22   24 1    
    45   24   25 1    
    46   24   57 1    
    47   24   58 1    
    48   25   26 1    
    49   25   59 1    
    50   25   60 1    
    51   26   27 1    
    52   26   61 1    
    53   26   62 1    
    54   28   29 2    
    55   28   30 1    
    56   30   35 ar   
    57   30   31 ar   
    58   31   32 ar   
    59   31   63 1    
    60   32   33 ar   
    61   32   64 1    
    62   33   34 ar   
    63   33   65 1    
    64   34   35 ar   
    65   34   36 1    
    66   35   66 1    
    67   36   37 1    
    68   36   38 1    
    69   36   39 1    
@<TRIPOS>SUBSTRUCTURE
     1 UNK         1 GROUP             0       ****    0 ROOT    
