ZINC02450070_4928
                    3D
 Schrodinger Suite 2024-2.
 54 57  0  0  1  0            999 V2000
   -1.7692   51.6120   25.4152 C   0  0  0  0  0  0
   -0.4800   52.0808   24.7653 C   0  0  0  0  0  0
   -0.4689   52.4805   23.4304 C   0  0  0  0  0  0
    0.7227   52.8959   22.8403 C   0  0  0  0  0  0
    1.9227   52.9265   23.5665 C   0  0  0  0  0  0
    1.8891   52.5002   24.8971 C   0  0  0  0  0  0
    0.7037   52.0858   25.4977 C   0  0  0  0  0  0
    3.1902   53.3833   22.8688 C   0  0  0  0  0  0
    3.2981   53.2659   21.5685 N   0  0  0  0  0  0
    4.5159   53.7824   21.1870 N   0  0  0  0  0  0
    5.1282   54.2122   22.2598 C   0  0  0  0  0  0
    4.3553   53.9686   23.3909 N   0  0  0  0  0  0
    4.6900   54.2799   24.7394 C   0  0  0  0  0  0
    5.9846   54.0719   25.2384 C   0  0  0  0  0  0
    6.2494   54.2336   26.5976 C   0  0  0  0  0  0
    5.2205   54.6140   27.4545 C   0  0  0  0  0  0
    3.9509   54.8830   26.9586 C   0  0  0  0  0  0
    3.7021   54.7504   25.6004 C   0  0  0  0  0  0
    5.5042   54.7795   29.1447 Cl  0  0  0  0  0  0
    6.7003   55.0477   22.2165 S   0  0  0  0  0  0
    7.0273   55.0415   20.4223 C   0  0  0  0  0  0
    6.3788   56.1971   19.6713 C   0  0  0  0  0  0
    6.7041   57.3532   19.9422 O   0  0  0  0  0  0
    5.4614   55.8367   18.7489 N   0  0  0  0  0  0
    4.8395   56.6363   17.7822 C   0  0  0  0  0  0
    5.4162   57.8105   17.2857 C   0  0  0  0  0  0
    4.7580   58.5418   16.3089 C   0  0  0  0  0  0
    3.5239   58.1129   15.8211 C   0  0  0  0  0  0
    2.9560   56.9301   16.2963 C   0  0  0  0  0  0
    3.6184   56.1874   17.2720 C   0  0  0  0  0  0
    2.6451   59.0857   14.6008 S   0  0  0  0  0  0
    2.4091   58.2128   13.4471 O   0  0  0  0  0  0
    1.5199   59.7318   15.2810 O   0  0  0  0  0  0
    3.7323   60.3489   14.0812 N   0  0  0  0  0  0
   -2.4827   51.2518   24.6729 H   0  0  0  0  0  0
   -1.5770   50.7779   26.0929 H   0  0  0  0  0  0
   -2.2254   52.4193   25.9887 H   0  0  0  0  0  0
   -1.3785   52.4699   22.8485 H   0  0  0  0  0  0
    0.7067   53.2052   21.8048 H   0  0  0  0  0  0
    2.7890   52.4715   25.4858 H   0  0  0  0  0  0
    0.7099   51.7596   26.5280 H   0  0  0  0  0  0
    6.7747   53.7026   24.6017 H   0  0  0  0  0  0
    7.2337   54.0271   26.9909 H   0  0  0  0  0  0
    3.1586   55.1888   27.6261 H   0  0  0  0  0  0
    2.7049   54.9112   25.2279 H   0  0  0  0  0  0
    6.7096   54.0977   19.9789 H   0  0  0  0  0  0
    8.1051   55.1146   20.2733 H   0  0  0  0  0  0
    5.1273   54.8853   18.7909 H   0  0  0  0  0  0
    6.3681   58.1734   17.6427 H   0  0  0  0  0  0
    5.2086   59.4615   15.9637 H   0  0  0  0  0  0
    2.0011   56.5936   15.9181 H   0  0  0  0  0  0
    3.1679   55.2760   17.6402 H   0  0  0  0  0  0
    3.3618   60.8485   13.2720 H   0  0  0  0  0  0
    3.8996   61.0253   14.8417 H   0  0  0  0  0  0
  1  2  1  0  0  0
  1 35  1  0  0  0
  1 36  1  0  0  0
  1 37  1  0  0  0
  2  7  2  0  0  0
  2  3  1  0  0  0
  3  4  2  0  0  0
  3 38  1  0  0  0
  4  5  1  0  0  0
  4 39  1  0  0  0
  5  6  2  0  0  0
  5  8  1  0  0  0
  6  7  1  0  0  0
  6 40  1  0  0  0
  7 41  1  0  0  0
  8 12  1  0  0  0
  8  9  2  0  0  0
  9 10  1  0  0  0
 10 11  2  0  0  0
 11 12  1  0  0  0
 11 20  1  0  0  0
 12 13  1  0  0  0
 13 18  2  0  0  0
 13 14  1  0  0  0
 14 15  2  0  0  0
 14 42  1  0  0  0
 15 16  1  0  0  0
 15 43  1  0  0  0
 16 17  2  0  0  0
 16 19  1  0  0  0
 17 18  1  0  0  0
 17 44  1  0  0  0
 18 45  1  0  0  0
 20 21  1  0  0  0
 21 22  1  0  0  0
 21 46  1  0  0  0
 21 47  1  0  0  0
 22 23  2  0  0  0
 22 24  1  0  0  0
 24 25  1  0  0  0
 24 48  1  0  0  0
 25 30  2  0  0  0
 25 26  1  0  0  0
 26 27  2  0  0  0
 26 49  1  0  0  0
 27 28  1  0  0  0
 27 50  1  0  0  0
 28 29  2  0  0  0
 28 31  1  0  0  0
 29 30  1  0  0  0
 29 51  1  0  0  0
 30 52  1  0  0  0
 31 32  2  0  0  0
 31 33  2  0  0  0
 31 34  1  0  0  0
 34 53  1  0  0  0
 34 54  1  0  0  0
M  END
> <i_i_glide_confnum>
61

> <i_i_glide_lignum>
4929

> <i_i_glide_posenum>
186

> <i_i_glide_rotatable_bonds>
8

> <i_m_Source_File_Index>
4476

> <b_m_subgroup_collapsed>
0

> <r_i_docking_score>
-4.48854

> <r_i_glide_ecoul>
-5.90307

> <r_i_glide_eff_state_penalty>
0

> <r_i_glide_einternal>
7.55623

> <r_i_glide_emodel>
-49.7658

> <r_i_glide_energy>
-45.7087

> <r_i_glide_erotb>
0.543375

> <r_i_glide_esite>
-0.174144

> <r_i_glide_evdw>
-39.8057

> <r_i_glide_gscore>
-4.48854

> <r_i_glide_hbond>
-0.456

> <r_i_glide_ligand_efficiency>
-0.132016

> <r_i_glide_ligand_efficiency_ln>
-0.991645

> <r_i_glide_ligand_efficiency_sa>
-0.42768

> <r_i_glide_lipo>
-2.69145

> <r_i_glide_metal>
0

> <r_i_glide_rewards>
1.16542

> <s_i_glide_gridfile>
wee1_glide-grid

> <s_m_Source_File>
wee1_decoys_glide_SP.sdf

> <s_m_Source_Path>
/Users/zhangxujun/Desktop

> <s_m_entry_id>
4751

> <s_m_entry_name>
wee1_decoys_glide_SP.4476

> <s_m_subgroup_title>
wee1_decoys_glide_SP

> <s_m_subgroupid>
wee1_decoys_glide_SP


$$$$
