@<TRIPOS>MOLECULE
ZINC59210842_4508
64   67    1
SMALL
USER_CHARGES


@<TRIPOS>ATOM
      1 C1          2.8759   55.3325   29.6247 C.3       1 UNK         0.0000 
      2 C2          2.0921   54.2277   28.9573 C.ar      1 UNK         0.0000 
      3 C3          2.4347   53.8023   27.6729 C.ar      1 UNK         0.0000 
      4 C4          1.7065   52.7871   27.0551 C.ar      1 UNK         0.0000 
      5 C5          0.6319   52.1931   27.7224 C.ar      1 UNK         0.0000 
      6 C6          0.2888   52.6147   29.0192 C.ar      1 UNK         0.0000 
      7 C7          1.0189   53.6377   29.6245 C.ar      1 UNK         0.0000 
      8 C8         -0.8412   51.9645   29.7970 C.3       1 UNK         0.0000 
      9 N9         -0.0797   51.1805   27.0734 N.am      1 UNK         0.0000 
     10 C10        -1.2490   51.3796   26.4352 C.2       1 UNK         0.0000 
     11 O11        -1.7662   52.4916   26.2958 O.2       1 UNK         0.0000 
     12 C12        -1.8382   50.1704   25.8843 C.2       1 UNK         0.0000 
     13 C13        -3.1817   49.9389   25.9016 C.2       1 UNK         0.0000 
     14 N14        -3.7053   48.8188   25.3355 N.pl3     1 UNK         0.0000 
     15 C15        -2.9932   47.8120   24.7621 C.2       1 UNK         0.0000 
     16 S16        -3.7222   46.4935   24.0886 S.2       1 UNK         0.0000 
     17 N17        -1.6380   47.9641   24.7746 N.pl3     1 UNK         0.0000 
     18 C18        -0.8972   49.2084   25.0881 C.3       1 UNK         0.0000 
     19 H19        -0.0689   48.9098   25.7343 H         1 UNK         0.0000 
     20 C20        -0.2804   49.8476   23.8457 C.ar      1 UNK         0.0000 
     21 C21         1.1029   49.8829   23.6833 C.ar      1 UNK         0.0000 
     22 C22         1.6655   50.5695   22.6108 C.ar      1 UNK         0.0000 
     23 C23         0.8534   51.2556   21.6923 C.ar      1 UNK         0.0000 
     24 C24        -0.5420   51.1483   21.7993 C.ar      1 UNK         0.0000 
     25 C25        -1.0953   50.4514   22.8860 C.ar      1 UNK         0.0000 
     26 O26        -1.3141   51.7599   20.8262 O.3       1 UNK         0.0000 
     27 C27        -2.6674   51.3445   20.6699 C.3       1 UNK         0.0000 
     28 O28         1.3514   52.0670   20.6850 O.3       1 UNK         0.0000 
     29 C29         2.7609   52.2744   20.5154 C.3       1 UNK         0.0000 
     30 C30         3.4481   52.9926   21.6835 C.ar      1 UNK         0.0000 
     31 C31         4.8439   52.9727   21.7481 C.ar      1 UNK         0.0000 
     32 C32         5.5050   53.5540   22.8275 C.ar      1 UNK         0.0000 
     33 C33         4.7694   54.1451   23.8516 C.ar      1 UNK         0.0000 
     34 C34         3.3776   54.1985   23.7795 C.ar      1 UNK         0.0000 
     35 C35         2.7201   53.6424   22.6874 C.ar      1 UNK         0.0000 
     36 Cl36        5.5893   54.8335   25.2079 Cl        1 UNK         0.0000 
     37 C37        -4.2505   50.7755   26.6019 C.3       1 UNK         0.0000 
     38 H38         3.8096   54.9304   30.0213 H         1 UNK         0.0000 
     39 H39         2.3032   55.8148   30.4204 H         1 UNK         0.0000 
     40 H40         3.1050   56.1064   28.8935 H         1 UNK         0.0000 
     41 H41         3.2647   54.2554   27.1511 H         1 UNK         0.0000 
     42 H42         1.9739   52.4713   26.0565 H         1 UNK         0.0000 
     43 H43         0.7601   53.9644   30.6218 H         1 UNK         0.0000 
     44 H44        -1.7904   52.0970   29.2820 H         1 UNK         0.0000 
     45 H45        -0.6691   50.8962   29.8551 H         1 UNK         0.0000 
     46 H46        -0.9028   52.3395   30.8196 H         1 UNK         0.0000 
     47 H47         0.2408   50.2305   27.1842 H         1 UNK         0.0000 
     48 H48        -4.6974   48.6405   25.3486 H         1 UNK         0.0000 
     49 H49        -1.1305   47.1863   24.3819 H         1 UNK         0.0000 
     50 H50         1.7493   49.3971   24.3997 H         1 UNK         0.0000 
     51 H51         2.7405   50.5896   22.5315 H         1 UNK         0.0000 
     52 H52        -2.1632   50.3979   23.0235 H         1 UNK         0.0000 
     53 H53        -3.1044   51.8552   19.8115 H         1 UNK         0.0000 
     54 H54        -2.7360   50.2709   20.4829 H         1 UNK         0.0000 
     55 H55        -3.2702   51.5865   21.5432 H         1 UNK         0.0000 
     56 H56         3.2467   51.3159   20.3196 H         1 UNK         0.0000 
     57 H57         2.8960   52.8796   19.6179 H         1 UNK         0.0000 
     58 H58         5.4175   52.4897   20.9707 H         1 UNK         0.0000 
     59 H59         6.5836   53.5272   22.8815 H         1 UNK         0.0000 
     60 H60         2.8098   54.6751   24.5645 H         1 UNK         0.0000 
     61 H61         1.6417   53.6951   22.6385 H         1 UNK         0.0000 
     62 H62        -4.8141   51.3549   25.8685 H         1 UNK         0.0000 
     63 H63        -4.9499   50.1421   27.1505 H         1 UNK         0.0000 
     64 H64        -3.8344   51.4710   27.3323 H         1 UNK         0.0000 
@<TRIPOS>BOND
     1    1    2 1    
     2    1   38 1    
     3    1   39 1    
     4    1   40 1    
     5    2    7 ar   
     6    2    3 ar   
     7    3    4 ar   
     8    3   41 1    
     9    4    5 ar   
    10    4   42 1    
    11    5    6 ar   
    12    5    9 1    
    13    6    7 ar   
    14    6    8 1    
    15    7   43 1    
    16    8   44 1    
    17    8   45 1    
    18    8   46 1    
    19    9   10 am   BACKBONE|DICT|INTERRES
    20    9   47 1    
    21   10   11 2    
    22   10   12 1    
    23   12   18 1    
    24   12   13 2    
    25   13   14 1    
    26   13   37 1    
    27   14   15 1    
    28   14   48 1    
    29   15   16 2    
    30   15   17 1    
    31   17   18 1    
    32   17   49 1    
    33   18   19 1    
    34   18   20 1    
    35   20   25 ar   
    36   20   21 ar   
    37   21   22 ar   
    38   21   50 1    
    39   22   23 ar   
    40   22   51 1    
    41   23   24 ar   
    42   23   28 1    
    43   24   25 ar   
    44   24   26 1    
    45   25   52 1    
    46   26   27 1    
    47   27   53 1    
    48   27   54 1    
    49   27   55 1    
    50   28   29 1    
    51   29   30 1    
    52   29   56 1    
    53   29   57 1    
    54   30   35 ar   
    55   30   31 ar   
    56   31   32 ar   
    57   31   58 1    
    58   32   33 ar   
    59   32   59 1    
    60   33   34 ar   
    61   33   36 1    
    62   34   35 ar   
    63   34   60 1    
    64   35   61 1    
    65   37   62 1    
    66   37   63 1    
    67   37   64 1    
@<TRIPOS>SUBSTRUCTURE
     1 UNK         1 GROUP             0       ****    0 ROOT    
