@<TRIPOS>MOLECULE
ZINC62027314_3850
41   44    1
SMALL
USER_CHARGES


@<TRIPOS>ATOM
      1 C1          2.5289   52.0945   20.6687 C.ar      1 UNK         0.0000 
      2 C2          3.5319   52.3118   19.7272 C.ar      1 UNK         0.0000 
      3 C3          4.5198   53.2596   19.9757 C.ar      1 UNK         0.0000 
      4 C4          4.5097   53.9998   21.1528 C.ar      1 UNK         0.0000 
      5 C5          3.5089   53.7850   22.0953 C.ar      1 UNK         0.0000 
      6 C6          2.5128   52.8188   21.8683 C.ar      1 UNK         0.0000 
      7 C7          1.4340   52.5397   22.8911 C.2       1 UNK         0.0000 
      8 O8          0.3351   52.1015   22.5477 O.2       1 UNK         0.0000 
      9 N9          1.8070   52.7760   24.1653 N.am      1 UNK         0.0000 
     10 C10         1.1509   52.4938   25.3720 C.ar      1 UNK         0.0000 
     11 C11         0.0348   51.6467   25.5123 C.ar      1 UNK         0.0000 
     12 C12        -0.4816   51.3653   26.7831 C.ar      1 UNK         0.0000 
     13 C13         0.1179   51.9418   27.9013 C.ar      1 UNK         0.0000 
     14 C14         1.2058   52.7793   27.7693 C.ar      1 UNK         0.0000 
     15 C15         1.7346   53.0546   26.5110 C.ar      1 UNK         0.0000 
     16 C16         1.6172   53.2308   29.1361 C.3       1 UNK         0.0000 
     17 C17         3.0904   52.9220   29.5357 C.3       1 UNK         0.0000 
     18 C18         3.8902   54.2291   29.4152 C.3       1 UNK         0.0000 
     19 C19         2.8896   55.2971   28.9737 C.3       1 UNK         0.0000 
     20 C20         1.5241   54.7544   29.3852 C.3       1 UNK         0.0000 
     21 C21         0.6312   52.4963   30.0584 C.2       1 UNK         0.0000 
     22 O22         0.6182   52.5411   31.2848 O.2       1 UNK         0.0000 
     23 N23        -0.1901   51.7996   29.2480 N.am      1 UNK         0.0000 
     24 Br24        5.9039   53.5473   18.7022 Br        1 UNK         0.0000 
     25 H25         1.7746   51.3484   20.4620 H         1 UNK         0.0000 
     26 H26         3.5508   51.7363   18.8120 H         1 UNK         0.0000 
     27 H27         5.2758   54.7392   21.3322 H         1 UNK         0.0000 
     28 H28         3.5219   54.3879   22.9918 H         1 UNK         0.0000 
     29 H29         2.7217   53.1816   24.2746 H         1 UNK         0.0000 
     30 H30        -0.4238   51.1703   24.6598 H         1 UNK         0.0000 
     31 H31        -1.3181   50.6891   26.8898 H         1 UNK         0.0000 
     32 H32         2.6050   53.6882   26.4156 H         1 UNK         0.0000 
     33 H33         3.1811   52.5558   30.5619 H         1 UNK         0.0000 
     34 H34         3.5167   52.1360   28.9076 H         1 UNK         0.0000 
     35 H35         4.3301   54.4957   30.3773 H         1 UNK         0.0000 
     36 H36         4.7142   54.1368   28.7061 H         1 UNK         0.0000 
     37 H37         3.1012   56.2722   29.4118 H         1 UNK         0.0000 
     38 H38         2.9248   55.4167   27.8920 H         1 UNK         0.0000 
     39 H39         0.7067   55.2186   28.8285 H         1 UNK         0.0000 
     40 H40         1.3541   54.9912   30.4390 H         1 UNK         0.0000 
     41 H41        -0.9125   51.1885   29.6042 H         1 UNK         0.0000 
@<TRIPOS>BOND
     1    1    6 ar   
     2    1    2 ar   
     3    1   25 1    
     4    2    3 ar   
     5    2   26 1    
     6    3    4 ar   
     7    3   24 1    
     8    4    5 ar   
     9    4   27 1    
    10    5    6 ar   
    11    5   28 1    
    12    6    7 1    
    13    7    8 2    
    14    7    9 am   BACKBONE|DICT|INTERRES
    15    9   10 1    
    16    9   29 1    
    17   10   15 ar   
    18   10   11 ar   
    19   11   12 ar   
    20   11   30 1    
    21   12   13 ar   
    22   12   31 1    
    23   13   23 1    
    24   13   14 ar   
    25   14   15 ar   
    26   14   16 1    
    27   15   32 1    
    28   16   20 1    
    29   16   17 1    
    30   16   21 1    
    31   17   18 1    
    32   17   33 1    
    33   17   34 1    
    34   18   19 1    
    35   18   35 1    
    36   18   36 1    
    37   19   20 1    
    38   19   37 1    
    39   19   38 1    
    40   20   39 1    
    41   20   40 1    
    42   21   22 2    
    43   21   23 am   BACKBONE|DICT|INTERRES
    44   23   41 1    
@<TRIPOS>SUBSTRUCTURE
     1 UNK         1 GROUP             0       ****    0 ROOT    
