ZINC39773080_3139
                    3D
 Schrodinger Suite 2024-2.
 60 62  0  0  1  0            999 V2000
   -3.4356   48.9597   20.7026 C   0  0  0  0  0  0
   -3.1676   48.8987   22.2250 C   0  0  1  0  0  0
   -4.1187   48.6346   22.6889 H   0  0  0  0  0  0
   -2.1969   47.7515   22.6206 C   0  0  0  0  0  0
   -1.6899   47.0030   21.7841 O   0  0  0  0  0  0
   -1.8834   47.6156   23.9595 N   0  0  0  0  0  0
   -2.6679   47.0062   24.7569 C   0  0  0  0  0  0
   -2.3979   46.7552   26.0817 N   0  0  0  0  0  0
   -3.5403   46.5046   26.9304 C   0  0  0  0  0  0
   -4.4956   45.6488   26.1269 C   0  0  0  0  0  0
   -4.2564   46.1724   24.4105 S   0  0  0  0  0  0
   -2.7698   50.5389   22.9479 S   0  0  0  0  0  0
   -1.3202   51.0101   22.0459 C   0  0  0  0  0  0
   -1.3706   51.6439   20.9001 N   0  0  0  0  0  0
   -0.0685   51.7867   20.4414 N   0  0  0  0  0  0
    0.7286   51.2526   21.3371 C   0  0  0  0  0  0
   -0.0034   50.8021   22.4267 N   0  0  0  0  0  0
    0.4899   50.1672   23.6609 C   0  0  0  0  0  0
    0.0022   50.8744   24.9585 C   0  0  0  0  0  0
    0.0973   49.9494   26.1846 C   0  0  0  0  0  0
    0.7034   52.2218   25.1995 C   0  0  0  0  0  0
    2.2499   51.1348   21.1823 C   0  0  1  0  0  0
    2.5086   50.1567   21.5916 H   0  0  0  0  0  0
    2.7483   51.0393   19.7078 C   0  0  0  0  0  0
    2.3043   49.8568   19.0612 O   0  0  0  0  0  0
    2.9544   52.0980   22.0537 N   0  0  0  0  0  0
    3.7030   53.1776   21.7346 C   0  0  0  0  0  0
    3.9044   53.5770   20.5889 O   0  0  0  0  0  0
    4.4116   53.8214   22.8995 C   0  0  0  0  0  0
    3.7593   54.0181   24.1241 C   0  0  0  0  0  0
    4.4617   54.4954   25.2267 C   0  0  0  0  0  0
    5.8147   54.7980   25.1040 C   0  0  0  0  0  0
    6.4588   54.6720   23.8757 C   0  0  0  0  0  0
    5.7557   54.1959   22.7725 C   0  0  0  0  0  0
    6.7043   55.3139   26.4865 Cl  0  0  0  0  0  0
   -3.7955   48.0040   20.3175 H   0  0  0  0  0  0
   -4.1982   49.7063   20.4725 H   0  0  0  0  0  0
   -2.5354   49.2190   20.1416 H   0  0  0  0  0  0
   -4.0183   47.4524   27.1866 H   0  0  0  0  0  0
   -3.2557   46.0294   27.8702 H   0  0  0  0  0  0
   -4.2683   44.5878   26.2211 H   0  0  0  0  0  0
   -5.5324   45.8048   26.4261 H   0  0  0  0  0  0
    0.1821   49.1245   23.6356 H   0  0  0  0  0  0
    1.5788   50.1400   23.6513 H   0  0  0  0  0  0
   -1.0560   51.1063   24.8771 H   0  0  0  0  0  0
    1.1048   49.5852   26.3560 H   0  0  0  0  0  0
   -0.2322   50.4526   27.0943 H   0  0  0  0  0  0
   -0.5353   49.0697   26.0646 H   0  0  0  0  0  0
    1.7730   52.0962   25.3625 H   0  0  0  0  0  0
    0.5646   52.8922   24.3508 H   0  0  0  0  0  0
    0.2995   52.7248   26.0779 H   0  0  0  0  0  0
    2.4426   51.9110   19.1287 H   0  0  0  0  0  0
    3.8387   51.0324   19.6844 H   0  0  0  0  0  0
    2.8693   49.7061   18.2884 H   0  0  0  0  0  0
    2.9314   51.8670   23.0348 H   0  0  0  0  0  0
    2.7095   53.7924   24.2318 H   0  0  0  0  0  0
    3.9628   54.6142   26.1783 H   0  0  0  0  0  0
    7.5043   54.9266   23.7799 H   0  0  0  0  0  0
    6.2702   54.0953   21.8276 H   0  0  0  0  0  0
   -1.7012   47.3151   26.5716 H   0  0  0  0  0  0
  1  2  1  0  0  0
  1 36  1  0  0  0
  1 37  1  0  0  0
  1 38  1  0  0  0
  2  3  1  0  0  0
  2  4  1  0  0  0
  2 12  1  0  0  0
  4  5  2  0  0  0
  4  6  1  0  0  0
  6  7  2  0  0  0
  7 11  1  0  0  0
  7  8  1  0  0  0
  8  9  1  0  0  0
  8 60  1  0  0  0
  9 10  1  0  0  0
  9 39  1  0  0  0
  9 40  1  0  0  0
 10 11  1  0  0  0
 10 41  1  0  0  0
 10 42  1  0  0  0
 12 13  1  0  0  0
 13 17  1  0  0  0
 13 14  2  0  0  0
 14 15  1  0  0  0
 15 16  2  0  0  0
 16 17  1  0  0  0
 16 22  1  0  0  0
 17 18  1  0  0  0
 18 19  1  0  0  0
 18 43  1  0  0  0
 18 44  1  0  0  0
 19 20  1  0  0  0
 19 21  1  0  0  0
 19 45  1  0  0  0
 20 46  1  0  0  0
 20 47  1  0  0  0
 20 48  1  0  0  0
 21 49  1  0  0  0
 21 50  1  0  0  0
 21 51  1  0  0  0
 22 23  1  0  0  0
 22 24  1  0  0  0
 22 26  1  0  0  0
 24 25  1  0  0  0
 24 52  1  0  0  0
 24 53  1  0  0  0
 25 54  1  0  0  0
 26 27  1  0  0  0
 26 55  1  0  0  0
 27 28  2  0  0  0
 27 29  1  0  0  0
 29 34  2  0  0  0
 29 30  1  0  0  0
 30 31  2  0  0  0
 30 56  1  0  0  0
 31 32  1  0  0  0
 31 57  1  0  0  0
 32 33  2  0  0  0
 32 35  1  0  0  0
 33 34  1  0  0  0
 33 58  1  0  0  0
 34 59  1  0  0  0
M  END
> <i_i_glide_confnum>
303

> <i_i_glide_lignum>
3140

> <i_i_glide_posenum>
222

> <i_i_glide_rotatable_bonds>
12

> <i_m_Source_File_Index>
4952

> <b_m_subgroup_collapsed>
0

> <r_i_docking_score>
-5.04405

> <r_i_glide_ecoul>
-7.56493

> <r_i_glide_eff_state_penalty>
0

> <r_i_glide_einternal>
11.4546

> <r_i_glide_emodel>
-59.236

> <r_i_glide_energy>
-48.0153

> <r_i_glide_erotb>
0.706073

> <r_i_glide_esite>
-0.188922

> <r_i_glide_evdw>
-40.4504

> <r_i_glide_gscore>
-5.04405

> <r_i_glide_hbond>
-0.221291

> <r_i_glide_ligand_efficiency>
-0.15285

> <r_i_glide_ligand_efficiency_ln>
-1.12177

> <r_i_glide_ligand_efficiency_sa>
-0.490271

> <r_i_glide_lipo>
-1.95542

> <r_i_glide_metal>
0

> <r_i_glide_rewards>
-0.227225

> <s_i_glide_gridfile>
wee1_glide-grid

> <s_m_Source_File>
wee1_decoys_glide_SP.sdf

> <s_m_Source_Path>
/Users/zhangxujun/Desktop

> <s_m_entry_id>
5227

> <s_m_entry_name>
wee1_decoys_glide_SP.4952

> <s_m_subgroup_title>
wee1_decoys_glide_SP

> <s_m_subgroupid>
wee1_decoys_glide_SP


$$$$
