@<TRIPOS>MOLECULE
ZINC67481832_255
69   71    1
SMALL
USER_CHARGES


@<TRIPOS>ATOM
      1 C1          2.3082   51.1783   18.3927 C.3       1 UNK         0.0000 
      2 C2          1.5008   52.2995   19.0813 C.3       1 UNK         0.0000 
      3 C3          0.8306   53.2112   18.0271 C.3       1 UNK         0.0000 
      4 C4          0.4976   51.6982   20.0883 C.2       1 UNK         0.0000 
      5 O5         -0.6610   51.4500   19.7497 O.2       1 UNK         0.0000 
      6 N6          0.9708   51.4317   21.3213 N.am      1 UNK         0.0000 
      7 C7          0.2387   50.7499   22.3923 C.3       1 UNK         0.0000 
      8 C8          1.1384   50.2322   23.5423 C.3       1 UNK         0.0000 
      9 C9          0.3471   49.5001   24.6536 C.3       1 UNK         0.0000 
     10 N10        -0.7393   50.3936   25.1084 N.am      1 UNK         0.0000 
     11 C11        -1.7342   50.6614   24.0538 C.3       1 UNK         0.0000 
     12 C12        -1.0345   51.4575   22.9248 C.3       1 UNK         0.0000 
     13 C13        -0.6325   51.2472   26.1656 C.2       1 UNK         0.0000 
     14 O14        -1.3793   52.2169   26.3167 O.2       1 UNK         0.0000 
     15 N15         0.2749   50.8973   27.0991 N.am      1 UNK         0.0000 
     16 C16         0.3524   51.3960   28.4776 C.3       1 UNK         0.0000 
     17 C17         0.5190   52.9230   28.6681 C.3       1 UNK         0.0000 
     18 H18        -0.1249   53.4747   27.9816 H         1 UNK         0.0000 
     19 C19         0.1790   53.3683   30.0931 C.3       1 UNK         0.0000 
     20 C20         0.8872   54.6997   30.3336 C.3       1 UNK         0.0000 
     21 C21         1.8442   54.9050   29.1554 C.3       1 UNK         0.0000 
     22 N22         1.9198   53.5330   28.4491 N.4       1 UNK         0.0000 
     23 C23         2.3370   53.6052   26.9601 C.3       1 UNK         0.0000 
     24 C24         3.7280   54.2599   26.7679 C.3       1 UNK         0.0000 
     25 C25         4.8599   53.5461   27.5541 C.3       1 UNK         0.0000 
     26 C26         6.2255   54.2349   27.3468 C.3       1 UNK         0.0000 
     27 C27         6.5804   54.3383   25.8486 C.3       1 UNK         0.0000 
     28 C28         5.4559   54.9963   25.0255 C.3       1 UNK         0.0000 
     29 C29         4.0985   54.3060   25.2670 C.3       1 UNK         0.0000 
     30 H30         2.8400   50.5546   19.1131 H         1 UNK         0.0000 
     31 H31         3.0647   51.5853   17.7195 H         1 UNK         0.0000 
     32 H32         1.6694   50.5188   17.8013 H         1 UNK         0.0000 
     33 H33         2.2052   52.9150   19.6431 H         1 UNK         0.0000 
     34 H34         0.3037   54.0510   18.4817 H         1 UNK         0.0000 
     35 H35         1.5747   53.6333   17.3509 H         1 UNK         0.0000 
     36 H36         0.1094   52.6627   17.4186 H         1 UNK         0.0000 
     37 H37         1.9080   51.7320   21.5408 H         1 UNK         0.0000 
     38 H38        -0.1459   49.8358   21.9307 H         1 UNK         0.0000 
     39 H39         1.8969   49.5543   23.1495 H         1 UNK         0.0000 
     40 H40         1.6748   51.0672   23.9954 H         1 UNK         0.0000 
     41 H41        -0.1373   48.6151   24.2386 H         1 UNK         0.0000 
     42 H42         0.9511   49.0901   25.4632 H         1 UNK         0.0000 
     43 H43        -2.0692   49.6926   23.6795 H         1 UNK         0.0000 
     44 H44        -2.6461   51.1182   24.4439 H         1 UNK         0.0000 
     45 H45        -0.7769   52.4479   23.3033 H         1 UNK         0.0000 
     46 H46        -1.7528   51.6115   22.1194 H         1 UNK         0.0000 
     47 H47         0.7732   50.0369   26.9290 H         1 UNK         0.0000 
     48 H48        -0.5491   51.0514   28.9907 H         1 UNK         0.0000 
     49 H49         1.1867   50.8967   28.9669 H         1 UNK         0.0000 
     50 H50        -0.8952   53.3882   30.2679 H         1 UNK         0.0000 
     51 H51         0.5652   52.6382   30.8070 H         1 UNK         0.0000 
     52 H52         0.1831   55.5258   30.4131 H         1 UNK         0.0000 
     53 H53         1.4136   54.6836   31.2816 H         1 UNK         0.0000 
     54 H54         1.4347   55.6066   28.4246 H         1 UNK         0.0000 
     55 H55         2.8537   55.2213   29.4221 H         1 UNK         0.0000 
     56 H56         2.3381   52.5694   26.6165 H         1 UNK         0.0000 
     57 H57         1.5386   54.1427   26.4457 H         1 UNK         0.0000 
     58 H58         3.6888   55.2965   27.1068 H         1 UNK         0.0000 
     59 H59         4.6274   53.5062   28.6181 H         1 UNK         0.0000 
     60 H60         4.9201   52.5002   27.2470 H         1 UNK         0.0000 
     61 H61         6.2064   55.2331   27.7901 H         1 UNK         0.0000 
     62 H62         7.0046   53.6824   27.8752 H         1 UNK         0.0000 
     63 H63         7.5044   54.8965   25.7147 H         1 UNK         0.0000 
     64 H64         6.7758   53.3388   25.4560 H         1 UNK         0.0000 
     65 H65         5.3845   56.0529   25.2871 H         1 UNK         0.0000 
     66 H66         5.7053   54.9621   23.9648 H         1 UNK         0.0000 
     67 H67         4.1156   53.2969   24.8556 H         1 UNK         0.0000 
     68 H68         3.3154   54.8189   24.7050 H         1 UNK         0.0000 
     69 H69         2.5958   52.9581   28.9321 H         1 UNK         0.0000 
@<TRIPOS>BOND
     1    1    2 1    
     2    1   30 1    
     3    1   31 1    
     4    1   32 1    
     5    2    3 1    
     6    2    4 1    
     7    2   33 1    
     8    3   34 1    
     9    3   35 1    
    10    3   36 1    
    11    4    5 2    
    12    4    6 am   BACKBONE|DICT|INTERRES
    13    6    7 1    
    14    6   37 1    
    15    7   12 1    
    16    7    8 1    
    17    7   38 1    
    18    8    9 1    
    19    8   39 1    
    20    8   40 1    
    21    9   10 1    
    22    9   41 1    
    23    9   42 1    
    24   10   11 1    
    25   10   13 am   BACKBONE|DICT|INTERRES
    26   11   12 1    
    27   11   43 1    
    28   11   44 1    
    29   12   45 1    
    30   12   46 1    
    31   13   14 2    
    32   13   15 am   BACKBONE|DICT|INTERRES
    33   15   16 1    
    34   15   47 1    
    35   16   17 1    
    36   16   48 1    
    37   16   49 1    
    38   17   18 1    
    39   17   22 1    
    40   17   19 1    
    41   19   20 1    
    42   19   50 1    
    43   19   51 1    
    44   20   21 1    
    45   20   52 1    
    46   20   53 1    
    47   21   22 1    
    48   21   54 1    
    49   21   55 1    
    50   22   23 1    
    51   22   69 1    
    52   23   24 1    
    53   23   56 1    
    54   23   57 1    
    55   24   29 1    
    56   24   25 1    
    57   24   58 1    
    58   25   26 1    
    59   25   59 1    
    60   25   60 1    
    61   26   27 1    
    62   26   61 1    
    63   26   62 1    
    64   27   28 1    
    65   27   63 1    
    66   27   64 1    
    67   28   29 1    
    68   28   65 1    
    69   28   66 1    
    70   29   67 1    
    71   29   68 1    
@<TRIPOS>SUBSTRUCTURE
     1 UNK         1 GROUP             0       ****    0 ROOT    
