@<TRIPOS>MOLECULE
ZINC12467935_801
52   56    1
SMALL
USER_CHARGES


@<TRIPOS>ATOM
      1 C1          3.6031   53.2869   19.4897 C.3       1 UNK         0.0000 
      2 O2          4.1148   53.6280   20.7749 O.3       1 UNK         0.0000 
      3 C3          5.3118   54.3221   20.8698 C.ar      1 UNK         0.0000 
      4 C4          6.0422   54.7641   19.7505 C.ar      1 UNK         0.0000 
      5 C5          7.2473   55.4445   19.9098 C.ar      1 UNK         0.0000 
      6 C6          7.7382   55.6966   21.1867 C.ar      1 UNK         0.0000 
      7 C7          7.0222   55.2830   22.3071 C.ar      1 UNK         0.0000 
      8 C8          5.8064   54.5939   22.1593 C.ar      1 UNK         0.0000 
      9 N9          5.0057   54.1678   23.2402 N.am      1 UNK         0.0000 
     10 C10         5.0505   54.4969   24.5518 C.2       1 UNK         0.0000 
     11 O11         5.9631   55.1221   25.0986 O.2       1 UNK         0.0000 
     12 C12         3.8686   54.0925   25.2924 C.ar      1 UNK         0.0000 
     13 C13         2.7436   53.4092   24.7797 C.ar      1 UNK         0.0000 
     14 C14         1.9205   53.1489   25.8501 C.ar      1 UNK         0.0000 
     15 N15         2.5136   53.7661   26.9280 N.pl3     1 UNK         0.0000 
     16 N16         3.6934   54.3165   26.5820 N.2       1 UNK         0.0000 
     17 C17         2.0408   53.7506   28.3151 C.3       1 UNK         0.0000 
     18 H18         2.1813   54.7541   28.7151 H         1 UNK         0.0000 
     19 C19         0.5200   53.4218   28.2805 C.3       1 UNK         0.0000 
     20 C20         0.1341   52.2874   27.2871 C.3       1 UNK         0.0000 
     21 H21         0.5597   51.3484   27.6437 H         1 UNK         0.0000 
     22 N22         0.7131   52.4971   25.9551 N.pl3     1 UNK         0.0000 
     23 C23        -1.3715   52.0263   27.2665 C.ar      1 UNK         0.0000 
     24 C24        -1.9536   51.2965   28.3192 C.ar      1 UNK         0.0000 
     25 C25        -3.3226   50.9989   28.3333 C.ar      1 UNK         0.0000 
     26 C26        -4.0943   51.4822   27.2827 C.ar      1 UNK         0.0000 
     27 C27        -3.5476   52.2061   26.2635 C.ar      1 UNK         0.0000 
     28 C28        -2.1895   52.4969   26.2196 C.ar      1 UNK         0.0000 
     29 O29        -4.5255   52.5951   25.4060 O.3       1 UNK         0.0000 
     30 C30        -5.6934   51.9427   25.8329 C.3       1 UNK         0.0000 
     31 O31        -5.4356   51.3807   27.0950 O.3       1 UNK         0.0000 
     32 C32         2.8464   52.7968   29.2308 C.3       1 UNK         0.0000 
     33 F33         4.1509   53.0711   29.2324 F         1 UNK         0.0000 
     34 F34         2.4271   52.8983   30.4897 F         1 UNK         0.0000 
     35 F35         2.7040   51.5214   28.8817 F         1 UNK         0.0000 
     36 H36         2.6611   52.7541   19.6118 H         1 UNK         0.0000 
     37 H37         3.4042   54.1745   18.8876 H         1 UNK         0.0000 
     38 H38         4.2880   52.6316   18.9506 H         1 UNK         0.0000 
     39 H39         5.6960   54.5746   18.7470 H         1 UNK         0.0000 
     40 H40         7.8074   55.7600   19.0408 H         1 UNK         0.0000 
     41 H41         8.6903   56.1902   21.3123 H         1 UNK         0.0000 
     42 H42         7.4454   55.4937   23.2760 H         1 UNK         0.0000 
     43 H43         4.1965   53.6452   22.9426 H         1 UNK         0.0000 
     44 H44         2.5615   53.0937   23.7628 H         1 UNK         0.0000 
     45 H45         0.1850   53.1465   29.2819 H         1 UNK         0.0000 
     46 H46        -0.0442   54.3327   28.0818 H         1 UNK         0.0000 
     47 H47         0.5322   51.7079   25.3520 H         1 UNK         0.0000 
     48 H48        -1.3370   50.9193   29.1243 H         1 UNK         0.0000 
     49 H49        -3.7436   50.4179   29.1401 H         1 UNK         0.0000 
     50 H50        -1.7803   53.0762   25.4081 H         1 UNK         0.0000 
     51 H51        -5.9387   51.1447   25.1265 H         1 UNK         0.0000 
     52 H52        -6.5175   52.6557   25.9006 H         1 UNK         0.0000 
@<TRIPOS>BOND
     1    1    2 1    
     2    1   36 1    
     3    1   37 1    
     4    1   38 1    
     5    2    3 1    
     6    3    8 ar   
     7    3    4 ar   
     8    4    5 ar   
     9    4   39 1    
    10    5    6 ar   
    11    5   40 1    
    12    6    7 ar   
    13    6   41 1    
    14    7    8 ar   
    15    7   42 1    
    16    8    9 1    
    17    9   10 am   BACKBONE|DICT|INTERRES
    18    9   43 1    
    19   10   11 2    
    20   10   12 1    
    21   12   16 ar   
    22   12   13 ar   
    23   13   14 ar   
    24   13   44 1    
    25   14   22 1    
    26   14   15 ar   
    27   15   16 ar   
    28   15   17 1    
    29   17   18 1    
    30   17   19 1    
    31   17   32 1    
    32   19   20 1    
    33   19   45 1    
    34   19   46 1    
    35   20   21 1    
    36   20   22 1    
    37   20   23 1    
    38   22   47 1    
    39   23   28 ar   
    40   23   24 ar   
    41   24   25 ar   
    42   24   48 1    
    43   25   26 ar   
    44   25   49 1    
    45   26   31 1    
    46   26   27 ar   
    47   27   28 ar   
    48   27   29 1    
    49   28   50 1    
    50   29   30 1    
    51   30   31 1    
    52   30   51 1    
    53   30   52 1    
    54   32   33 1    
    55   32   34 1    
    56   32   35 1    
@<TRIPOS>SUBSTRUCTURE
     1 UNK         1 GROUP             0       ****    0 ROOT    
