ZINC33137248_2261
                    3D
 Schrodinger Suite 2024-2.
 42 45  0  0  1  0            999 V2000
    6.5265   53.6965   28.1837 C   0  0  0  0  0  0
    5.1928   53.4321   28.4817 C   0  0  0  0  0  0
    4.1823   53.7991   27.5834 C   0  0  0  0  0  0
    4.5376   54.4203   26.3802 C   0  0  0  0  0  0
    5.8849   54.6289   26.0511 C   0  0  0  0  0  0
    6.8657   54.2907   26.9769 C   0  0  0  0  0  0
    6.3058   55.2139   24.8798 O   0  0  0  0  0  0
    5.9888   54.7175   23.6285 C   0  0  0  0  0  0
    4.9748   53.7870   23.3366 C   0  0  0  0  0  0
    4.6322   53.4690   22.0625 N   0  0  0  0  0  0
    5.3074   54.0972   21.0666 C   0  0  0  0  0  0
    6.3364   55.0011   21.3429 C   0  0  0  0  0  0
    6.6944   55.2973   22.6211 N   0  0  0  0  0  0
    2.8209   53.5103   27.7812 N   0  0  0  0  0  0
    2.1897   53.0851   28.8982 C   0  0  0  0  0  0
    2.6628   53.0759   30.0393 O   0  0  0  0  0  0
    0.8635   52.5894   28.6400 C   0  0  0  0  0  0
    0.1568   52.3968   27.4552 C   0  0  0  0  0  0
   -1.0945   51.8690   27.8021 C   0  0  0  0  0  0
   -1.1708   51.6967   29.1068 N   0  0  0  0  0  0
   -0.0053   52.1261   29.5967 N   0  0  0  0  0  0
    0.1936   52.0985   30.5878 H   0  0  0  0  0  0
   -2.2469   51.5612   26.8944 C   0  0  0  0  0  0
   -3.2538   50.6647   27.2784 C   0  0  0  0  0  0
   -4.3336   50.4158   26.4373 C   0  0  0  0  0  0
   -4.4149   51.0646   25.2079 C   0  0  0  0  0  0
   -3.4191   51.9532   24.8101 C   0  0  0  0  0  0
   -2.3356   52.1969   25.6498 C   0  0  0  0  0  0
   -5.8991   50.7381   24.0626 Br  0  0  0  0  0  0
    7.3028   53.4306   28.8832 H   0  0  0  0  0  0
    4.9706   52.9268   29.4074 H   0  0  0  0  0  0
    3.7710   54.7274   25.6835 H   0  0  0  0  0  0
    7.9006   54.4906   26.7594 H   0  0  0  0  0  0
    4.3995   53.2970   24.1046 H   0  0  0  0  0  0
    5.0247   53.8545   20.0522 H   0  0  0  0  0  0
    6.8891   55.4868   20.5537 H   0  0  0  0  0  0
    2.2577   53.5440   26.9469 H   0  0  0  0  0  0
    0.4929   52.6178   26.4544 H   0  0  0  0  0  0
   -3.1899   50.1452   28.2256 H   0  0  0  0  0  0
   -5.1024   49.7197   26.7394 H   0  0  0  0  0  0
   -3.4888   52.4526   23.8556 H   0  0  0  0  0  0
   -1.5767   52.8958   25.3349 H   0  0  0  0  0  0
  1  6  2  0  0  0
  1  2  1  0  0  0
  1 30  1  0  0  0
  2  3  2  0  0  0
  2 31  1  0  0  0
  3  4  1  0  0  0
  3 14  1  0  0  0
  4  5  2  0  0  0
  4 32  1  0  0  0
  5  6  1  0  0  0
  5  7  1  0  0  0
  6 33  1  0  0  0
  7  8  1  0  0  0
  8 13  2  0  0  0
  8  9  1  0  0  0
  9 10  2  0  0  0
  9 34  1  0  0  0
 10 11  1  0  0  0
 11 12  2  0  0  0
 11 35  1  0  0  0
 12 13  1  0  0  0
 12 36  1  0  0  0
 14 15  1  0  0  0
 14 37  1  0  0  0
 15 16  2  0  0  0
 15 17  1  0  0  0
 17 21  1  0  0  0
 17 18  2  0  0  0
 18 19  1  0  0  0
 18 38  1  0  0  0
 19 20  2  0  0  0
 19 23  1  0  0  0
 20 21  1  0  0  0
 21 22  1  0  0  0
 23 28  2  0  0  0
 23 24  1  0  0  0
 24 25  2  0  0  0
 24 39  1  0  0  0
 25 26  1  0  0  0
 25 40  1  0  0  0
 26 27  2  0  0  0
 26 29  1  0  0  0
 27 28  1  0  0  0
 27 41  1  0  0  0
 28 42  1  0  0  0
M  END
> <i_i_glide_confnum>
50

> <i_i_glide_lignum>
2262

> <i_i_glide_posenum>
180

> <i_i_glide_rotatable_bonds>
6

> <i_m_Source_File_Index>
4355

> <b_m_subgroup_collapsed>
0

> <r_i_docking_score>
-5.19408

> <r_i_glide_ecoul>
-1.48564

> <r_i_glide_eff_state_penalty>
0

> <r_i_glide_einternal>
8.9185

> <r_i_glide_emodel>
-55.1321

> <r_i_glide_energy>
-44.6086

> <r_i_glide_erotb>
0.628339

> <r_i_glide_esite>
-0.018176

> <r_i_glide_evdw>
-43.1229

> <r_i_glide_gscore>
-5.19408

> <r_i_glide_hbond>
-0.122971

> <r_i_glide_ligand_efficiency>
-0.185503

> <r_i_glide_ligand_efficiency_ln>
-1.19895

> <r_i_glide_ligand_efficiency_sa>
-0.563296

> <r_i_glide_lipo>
-2.65411

> <r_i_glide_metal>
0

> <r_i_glide_rewards>
-0.648177

> <s_i_glide_gridfile>
wee1_glide-grid

> <s_m_Source_File>
wee1_decoys_glide_SP.sdf

> <s_m_Source_Path>
/Users/zhangxujun/Desktop

> <s_m_entry_id>
4630

> <s_m_entry_name>
wee1_decoys_glide_SP.4355

> <s_m_subgroup_title>
wee1_decoys_glide_SP

> <s_m_subgroupid>
wee1_decoys_glide_SP


$$$$
