@<TRIPOS>MOLECULE
ZINC28526626_4884
62   65    1
SMALL
USER_CHARGES


@<TRIPOS>ATOM
      1 C1          3.7269   54.1141   29.4007 C.3       1 UNK         0.0000 
      2 C2          4.3810   54.0929   28.0362 C.ar      1 UNK         0.0000 
      3 C3          3.5950   54.0940   26.8842 C.ar      1 UNK         0.0000 
      4 C4          4.1966   54.0978   25.6291 C.ar      1 UNK         0.0000 
      5 C5          5.5973   54.1001   25.5120 C.ar      1 UNK         0.0000 
      6 C6          6.3735   54.0976   26.6805 C.ar      1 UNK         0.0000 
      7 C7          5.7720   54.0968   27.9331 C.ar      1 UNK         0.0000 
      8 C8          6.2863   54.0965   24.1641 C.2       1 UNK         0.0000 
      9 O9          7.4459   53.6971   24.0625 O.2       1 UNK         0.0000 
     10 N10         5.5612   54.5398   23.1227 N.am      1 UNK         0.0000 
     11 C11         6.0066   54.7800   21.8077 C.ar      1 UNK         0.0000 
     12 C12         7.2483   55.3920   21.5717 C.ar      1 UNK         0.0000 
     13 C13         7.6601   55.6952   20.2744 C.ar      1 UNK         0.0000 
     14 C14         6.8270   55.4027   19.1975 C.ar      1 UNK         0.0000 
     15 C15         5.5860   54.8029   19.4147 C.ar      1 UNK         0.0000 
     16 C16         5.1729   54.4829   20.7102 C.ar      1 UNK         0.0000 
     17 N17         3.9045   53.9119   20.8596 N.am      1 UNK         0.0000 
     18 C18         3.6515   52.6483   21.3611 C.2       1 UNK         0.0000 
     19 O19         4.4907   51.8038   21.6800 O.2       1 UNK         0.0000 
     20 O20         2.3232   52.4954   21.4812 O.3       1 UNK         0.0000 
     21 C21         1.7524   51.2787   21.9536 C.3       1 UNK         0.0000 
     22 C22         0.2929   51.5442   22.3771 C.3       1 UNK         0.0000 
     23 C23        -0.5195   50.2549   22.6098 C.3       1 UNK         0.0000 
     24 C24        -1.9806   50.5844   23.0017 C.3       1 UNK         0.0000 
     25 N25        -2.0137   51.3660   24.2574 N.pl3     1 UNK         0.0000 
     26 C26        -1.2829   52.6353   24.0513 C.3       1 UNK         0.0000 
     27 C27         0.1909   52.3862   23.6631 C.3       1 UNK         0.0000 
     28 C28        -2.5707   50.9345   25.4693 C.ar      1 UNK         0.0000 
     29 C29        -3.4134   49.8076   25.5368 C.ar      1 UNK         0.0000 
     30 C30        -3.9770   49.4032   26.7514 C.ar      1 UNK         0.0000 
     31 N31        -3.6956   50.0961   27.8708 N.pl3     1 UNK         0.0000 
     32 C32        -2.8939   51.1759   27.8778 C.ar      1 UNK         0.0000 
     33 C33        -2.3248   51.6162   26.6790 C.ar      1 UNK         0.0000 
     34 H34         2.7843   54.6657   29.3762 H         1 UNK         0.0000 
     35 H35         3.5317   53.1006   29.7536 H         1 UNK         0.0000 
     36 H36         4.3696   54.6218   30.1182 H         1 UNK         0.0000 
     37 H37         2.5169   54.0876   26.9593 H         1 UNK         0.0000 
     38 H38         3.5576   54.0785   24.7598 H         1 UNK         0.0000 
     39 H39         7.4543   54.0926   26.6292 H         1 UNK         0.0000 
     40 H40         6.3889   54.1029   28.8206 H         1 UNK         0.0000 
     41 H41         4.5620   54.4951   23.2354 H         1 UNK         0.0000 
     42 H42         7.9015   55.6438   22.3943 H         1 UNK         0.0000 
     43 H43         8.6244   56.1511   20.1074 H         1 UNK         0.0000 
     44 H44         7.1447   55.6370   18.1910 H         1 UNK         0.0000 
     45 H45         4.9520   54.5850   18.5687 H         1 UNK         0.0000 
     46 H46         3.1068   54.4192   20.4957 H         1 UNK         0.0000 
     47 H47         1.7926   50.5383   21.1542 H         1 UNK         0.0000 
     48 H48         2.3159   50.8769   22.7965 H         1 UNK         0.0000 
     49 H49        -0.2075   52.0890   21.5748 H         1 UNK         0.0000 
     50 H50        -0.5005   49.6367   21.7097 H         1 UNK         0.0000 
     51 H51        -0.0527   49.6304   23.3745 H         1 UNK         0.0000 
     52 H52        -2.4423   51.1875   22.2208 H         1 UNK         0.0000 
     53 H53        -2.5598   49.6664   23.0344 H         1 UNK         0.0000 
     54 H54        -1.7845   53.1788   23.2460 H         1 UNK         0.0000 
     55 H55        -1.3418   53.2970   24.9071 H         1 UNK         0.0000 
     56 H56         0.7172   51.9074   24.4897 H         1 UNK         0.0000 
     57 H57         0.7107   53.3369   23.5298 H         1 UNK         0.0000 
     58 H58        -3.6545   49.2311   24.6612 H         1 UNK         0.0000 
     59 H59        -4.6078   48.5342   26.8784 H         1 UNK         0.0000 
     60 H60        -2.7032   51.6118   28.8502 H         1 UNK         0.0000 
     61 H61        -1.6613   52.4612   26.7234 H         1 UNK         0.0000 
     62 H62        -4.0230   49.7331   28.7576 H         1 UNK         0.0000 
@<TRIPOS>BOND
     1    1    2 1    
     2    1   34 1    
     3    1   35 1    
     4    1   36 1    
     5    2    7 ar   
     6    2    3 ar   
     7    3    4 ar   
     8    3   37 1    
     9    4    5 ar   
    10    4   38 1    
    11    5    6 ar   
    12    5    8 1    
    13    6    7 ar   
    14    6   39 1    
    15    7   40 1    
    16    8    9 2    
    17    8   10 am   BACKBONE|DICT|INTERRES
    18   10   11 1    
    19   10   41 1    
    20   11   16 ar   
    21   11   12 ar   
    22   12   13 ar   
    23   12   42 1    
    24   13   14 ar   
    25   13   43 1    
    26   14   15 ar   
    27   14   44 1    
    28   15   16 ar   
    29   15   45 1    
    30   16   17 1    
    31   17   18 am   BACKBONE|DICT|INTERRES
    32   17   46 1    
    33   18   19 2    
    34   18   20 1    
    35   20   21 1    
    36   21   22 1    
    37   21   47 1    
    38   21   48 1    
    39   22   27 1    
    40   22   23 1    
    41   22   49 1    
    42   23   24 1    
    43   23   50 1    
    44   23   51 1    
    45   24   25 1    
    46   24   52 1    
    47   24   53 1    
    48   25   26 1    
    49   25   28 1    
    50   26   27 1    
    51   26   54 1    
    52   26   55 1    
    53   27   56 1    
    54   27   57 1    
    55   28   33 ar   
    56   28   29 ar   
    57   29   30 ar   
    58   29   58 1    
    59   30   31 ar   
    60   30   59 1    
    61   31   32 ar   
    62   31   62 1    
    63   32   33 ar   
    64   32   60 1    
    65   33   61 1    
@<TRIPOS>SUBSTRUCTURE
     1 UNK         1 GROUP             0       ****    0 ROOT    
