@<TRIPOS>MOLECULE
ZINC32961829_5948
49   52    1
SMALL
USER_CHARGES


@<TRIPOS>ATOM
      1 C1          2.2712   49.7333   22.0678 C.2       1 UNK         0.0000 
      2 C2          1.9044   50.3252   23.2811 C.2       1 UNK         0.0000 
      3 C3          1.5808   51.6733   23.1493 C.2       1 UNK         0.0000 
      4 S4          1.6632   52.1912   21.4931 S.3       1 UNK         0.0000 
      5 C5          2.1998   50.6169   21.0004 C.2       1 UNK         0.0000 
      6 S6          1.1058   52.8004   24.4900 S.o2      1 UNK         0.0000 
      7 O7         -0.1898   53.3125   24.0342 O.2       1 UNK         0.0000 
      8 O8          1.1027   51.9330   25.6723 O.2       1 UNK         0.0000 
      9 N9          2.2276   53.9061   24.4742 N.2       1 UNK         0.0000 
     10 C10         3.1944   54.0584   25.4496 C.ar      1 UNK         0.0000 
     11 C11         2.7782   54.0282   26.7955 C.ar      1 UNK         0.0000 
     12 C12         3.6490   54.2154   27.8705 C.ar      1 UNK         0.0000 
     13 C13         4.9912   54.4394   27.5940 C.ar      1 UNK         0.0000 
     14 C14         5.4337   54.5090   26.2824 C.ar      1 UNK         0.0000 
     15 C15         4.5795   54.3315   25.1705 C.ar      1 UNK         0.0000 
     16 N16         5.1392   54.4926   23.8735 N.pl3     1 UNK         0.0000 
     17 C17         4.4753   53.9882   22.6571 C.3       1 UNK         0.0000 
     18 C18         5.1090   54.2105   21.2646 C.3       1 UNK         0.0000 
     19 N19         6.1497   55.2421   21.1888 N.pl3     1 UNK         0.0000 
     20 C20         7.1042   55.0669   22.2880 C.3       1 UNK         0.0000 
     21 C21         6.5953   54.5078   23.6344 C.3       1 UNK         0.0000 
     22 C22         6.5464   55.7767   19.9583 C.ar      1 UNK         0.0000 
     23 C23         5.6011   56.0413   18.9549 C.ar      1 UNK         0.0000 
     24 C24         5.9811   56.6018   17.7380 C.ar      1 UNK         0.0000 
     25 C25         7.3188   56.9034   17.5039 C.ar      1 UNK         0.0000 
     26 C26         8.2761   56.6505   18.4803 C.ar      1 UNK         0.0000 
     27 C27         7.8906   56.0965   19.6975 C.ar      1 UNK         0.0000 
     28 Cl28        7.7938   57.5963   15.9971 Cl        1 UNK         0.0000 
     29 C29         3.1553   54.2118   29.2824 C.2       1 UNK         0.0000 
     30 O30         3.8979   53.7196   30.1644 O.co2     1 UNK         0.0000 
     31 O31         2.0401   54.7313   29.5149 O.co2     1 UNK         0.0000 
     32 H32         2.5803   48.7024   21.9746 H         1 UNK         0.0000 
     33 H33         1.8953   49.7921   24.2205 H         1 UNK         0.0000 
     34 H34         2.4319   50.4217   19.9625 H         1 UNK         0.0000 
     35 H35         1.7304   53.8856   27.0215 H         1 UNK         0.0000 
     36 H36         5.6987   54.5908   28.3985 H         1 UNK         0.0000 
     37 H37         6.4843   54.7130   26.1915 H         1 UNK         0.0000 
     38 H38         4.1531   52.9524   22.7641 H         1 UNK         0.0000 
     39 H39         3.6051   54.6385   22.5820 H         1 UNK         0.0000 
     40 H40         4.3401   54.2714   20.4957 H         1 UNK         0.0000 
     41 H41         5.6586   53.2935   21.0510 H         1 UNK         0.0000 
     42 H42         7.3844   56.0957   22.5187 H         1 UNK         0.0000 
     43 H43         7.9993   54.5169   21.9975 H         1 UNK         0.0000 
     44 H44         7.2129   54.9386   24.4161 H         1 UNK         0.0000 
     45 H45         6.8296   53.4415   23.6076 H         1 UNK         0.0000 
     46 H46         4.5543   55.8335   19.1100 H         1 UNK         0.0000 
     47 H47         5.2386   56.8050   16.9802 H         1 UNK         0.0000 
     48 H48         9.3155   56.8844   18.2985 H         1 UNK         0.0000 
     49 H49         8.6631   55.9190   20.4306 H         1 UNK         0.0000 
@<TRIPOS>BOND
     1    1    5 2    
     2    1    2 1    
     3    1   32 1    
     4    2    3 2    
     5    2   33 1    
     6    3    4 1    
     7    3    6 1    
     8    4    5 1    
     9    5   34 1    
    10    6    7 2    
    11    6    8 2    
    12    6    9 1    
    13    9   10 1    
    14   10   15 ar   
    15   10   11 ar   
    16   11   12 ar   
    17   11   35 1    
    18   12   13 ar   
    19   12   29 1    
    20   13   14 ar   
    21   13   36 1    
    22   14   15 ar   
    23   14   37 1    
    24   15   16 1    
    25   16   21 1    
    26   16   17 1    
    27   17   18 1    
    28   17   38 1    
    29   17   39 1    
    30   18   19 1    
    31   18   40 1    
    32   18   41 1    
    33   19   20 1    
    34   19   22 1    
    35   20   21 1    
    36   20   42 1    
    37   20   43 1    
    38   21   44 1    
    39   21   45 1    
    40   22   27 ar   
    41   22   23 ar   
    42   23   24 ar   
    43   23   46 1    
    44   24   25 ar   
    45   24   47 1    
    46   25   26 ar   
    47   25   28 1    
    48   26   27 ar   
    49   26   48 1    
    50   27   49 1    
    51   29   30 2    
    52   29   31 1    
@<TRIPOS>SUBSTRUCTURE
     1 UNK         1 GROUP             0       ****    0 ROOT    
