@<TRIPOS>MOLECULE
ZINC25577882_686
57   60    1
SMALL
USER_CHARGES


@<TRIPOS>ATOM
      1 C1          2.7048   55.0775   28.9384 C.3       1 UNK         0.0000 
      2 C2          3.0109   53.9100   27.9799 C.3       1 UNK         0.0000 
      3 H3          3.2314   53.0213   28.5747 H         1 UNK         0.0000 
      4 C4          4.1587   54.1789   27.0575 C.ar      1 UNK         0.0000 
      5 C5          5.4864   54.4965   27.3332 C.ar      1 UNK         0.0000 
      6 C6          6.3703   54.6960   26.2759 C.ar      1 UNK         0.0000 
      7 C7          5.9328   54.5863   24.9523 C.ar      1 UNK         0.0000 
      8 C8          4.6013   54.2430   24.6488 C.ar      1 UNK         0.0000 
      9 C9          3.7321   54.0521   25.7419 C.ar      1 UNK         0.0000 
     10 O10         2.4109   53.6770   25.6607 O.3       1 UNK         0.0000 
     11 C11         1.8632   53.6229   26.9858 C.3       1 UNK         0.0000 
     12 H12         1.1070   54.4038   27.0608 H         1 UNK         0.0000 
     13 C13         1.1839   52.2603   27.1989 C.3       1 UNK         0.0000 
     14 C14         4.2170   54.0222   23.1971 C.2       1 UNK         0.0000 
     15 O15         4.9088   54.4948   22.2920 O.2       1 UNK         0.0000 
     16 N16         3.1672   53.1981   22.9816 N.am      1 UNK         0.0000 
     17 C17         2.9334   52.4253   21.8268 C.ar      1 UNK         0.0000 
     18 C18         3.1041   52.8966   20.5167 C.ar      1 UNK         0.0000 
     19 C19         2.8514   52.0627   19.4242 C.ar      1 UNK         0.0000 
     20 C20         2.4393   50.7396   19.6199 C.ar      1 UNK         0.0000 
     21 C21         2.3295   50.2462   20.9384 C.ar      1 UNK         0.0000 
     22 C22         2.5357   51.1004   22.0218 C.ar      1 UNK         0.0000 
     23 Cl23        2.0071   48.5819   21.2815 Cl        1 UNK         0.0000 
     24 N24         2.2205   49.9353   18.4824 N.am      1 UNK         0.0000 
     25 C25         1.0727   49.2626   18.2377 C.2       1 UNK         0.0000 
     26 O26         0.0485   49.3645   18.9164 O.2       1 UNK         0.0000 
     27 C27         1.1061   48.3005   17.0849 C.ar      1 UNK         0.0000 
     28 C28         1.4534   48.7248   15.7944 C.ar      1 UNK         0.0000 
     29 C29         1.4542   47.8212   14.7318 C.ar      1 UNK         0.0000 
     30 C30         1.1448   46.4805   14.9535 C.ar      1 UNK         0.0000 
     31 C31         0.8337   46.0372   16.2424 C.ar      1 UNK         0.0000 
     32 C32         0.7902   46.9527   17.2995 C.ar      1 UNK         0.0000 
     33 S33         0.5197   44.2978   16.5231 S.o2      1 UNK         0.0000 
     34 O34         0.3821   44.0854   17.9682 O.2       1 UNK         0.0000 
     35 O35        -0.5532   43.9000   15.6042 O.2       1 UNK         0.0000 
     36 C36         2.1065   43.4704   15.9577 C.3       1 UNK         0.0000 
     37 H37         3.5592   55.2891   29.5803 H         1 UNK         0.0000 
     38 H38         1.8581   54.8390   29.5829 H         1 UNK         0.0000 
     39 H39         2.4609   55.9921   28.3981 H         1 UNK         0.0000 
     40 H40         5.8415   54.5820   28.3499 H         1 UNK         0.0000 
     41 H41         7.4026   54.9133   26.4956 H         1 UNK         0.0000 
     42 H42         6.6559   54.7320   24.1615 H         1 UNK         0.0000 
     43 H43         0.6089   52.2624   28.1237 H         1 UNK         0.0000 
     44 H44         0.4946   52.0284   26.3865 H         1 UNK         0.0000 
     45 H45         1.9052   51.4503   27.2810 H         1 UNK         0.0000 
     46 H46         2.6903   52.8956   23.8211 H         1 UNK         0.0000 
     47 H47         3.4154   53.9143   20.3363 H         1 UNK         0.0000 
     48 H48         2.9721   52.4508   18.4237 H         1 UNK         0.0000 
     49 H49         2.4290   50.7045   23.0211 H         1 UNK         0.0000 
     50 H50         3.0023   49.8027   17.8394 H         1 UNK         0.0000 
     51 H51         1.7186   49.7555   15.6068 H         1 UNK         0.0000 
     52 H52         1.7070   48.1582   13.7381 H         1 UNK         0.0000 
     53 H53         1.1523   45.7843   14.1296 H         1 UNK         0.0000 
     54 H54         0.5354   46.6117   18.2936 H         1 UNK         0.0000 
     55 H55         2.0449   42.4056   16.1821 H         1 UNK         0.0000 
     56 H56         2.2174   43.6147   14.8825 H         1 UNK         0.0000 
     57 H57         2.9541   43.9182   16.4821 H         1 UNK         0.0000 
@<TRIPOS>BOND
     1    1    2 1    
     2    1   37 1    
     3    1   38 1    
     4    1   39 1    
     5    2    3 1    
     6    2   11 1    
     7    2    4 1    
     8    4    9 ar   
     9    4    5 ar   
    10    5    6 ar   
    11    5   40 1    
    12    6    7 ar   
    13    6   41 1    
    14    7    8 ar   
    15    7   42 1    
    16    8    9 ar   
    17    8   14 1    
    18    9   10 1    
    19   10   11 1    
    20   11   12 1    
    21   11   13 1    
    22   13   43 1    
    23   13   44 1    
    24   13   45 1    
    25   14   15 2    
    26   14   16 am   BACKBONE|DICT|INTERRES
    27   16   17 1    
    28   16   46 1    
    29   17   22 ar   
    30   17   18 ar   
    31   18   19 ar   
    32   18   47 1    
    33   19   20 ar   
    34   19   48 1    
    35   20   21 ar   
    36   20   24 1    
    37   21   22 ar   
    38   21   23 1    
    39   22   49 1    
    40   24   25 am   BACKBONE|DICT|INTERRES
    41   24   50 1    
    42   25   26 2    
    43   25   27 1    
    44   27   32 ar   
    45   27   28 ar   
    46   28   29 ar   
    47   28   51 1    
    48   29   30 ar   
    49   29   52 1    
    50   30   31 ar   
    51   30   53 1    
    52   31   32 ar   
    53   31   33 1    
    54   32   54 1    
    55   33   34 2    
    56   33   35 2    
    57   33   36 1    
    58   36   55 1    
    59   36   56 1    
    60   36   57 1    
@<TRIPOS>SUBSTRUCTURE
     1 UNK         1 GROUP             0       ****    0 ROOT    
