@<TRIPOS>MOLECULE
ZINC20058100_3819
39   41    1
SMALL
USER_CHARGES


@<TRIPOS>ATOM
      1 C1          0.9789   50.3221   21.3233 C.ar      1 UNK         0.0000 
      2 C2          1.0805   50.8325   22.6150 C.ar      1 UNK         0.0000 
      3 C3          0.1303   51.7428   23.1098 C.ar      1 UNK         0.0000 
      4 C4         -0.9467   52.0959   22.2869 C.ar      1 UNK         0.0000 
      5 C5         -1.0472   51.5876   20.9887 C.ar      1 UNK         0.0000 
      6 C6         -0.0836   50.7031   20.5073 C.ar      1 UNK         0.0000 
      7 Br7        -2.4961   52.0962   19.8690 Br        1 UNK         0.0000 
      8 C8          0.2476   52.3293   24.5362 C.3       1 UNK         0.0000 
      9 H9         -0.3115   53.2681   24.5135 H         1 UNK         0.0000 
     10 C10         1.7058   52.7383   24.8993 C.3       1 UNK         0.0000 
     11 H11         2.3123   51.8435   24.8258 H         1 UNK         0.0000 
     12 C12         2.3155   53.7992   23.9464 C.3       1 UNK         0.0000 
     13 C13         3.7597   54.1475   24.3407 C.3       1 UNK         0.0000 
     14 C14         3.9015   54.6178   25.7997 C.3       1 UNK         0.0000 
     15 C15         2.8591   54.0048   26.7284 C.2       1 UNK         0.0000 
     16 C16         1.8492   53.1724   26.3675 C.2       1 UNK         0.0000 
     17 C17         0.9214   52.6397   27.3683 C.2       1 UNK         0.0000 
     18 C18        -0.1250   51.8438   27.0449 C.2       1 UNK         0.0000 
     19 C19        -0.4427   51.4104   25.6015 C.3       1 UNK         0.0000 
     20 C20        -0.0244   50.0041   25.4366 C.1       1 UNK         0.0000 
     21 N21         0.3048   48.9044   25.2980 N.1       1 UNK         0.0000 
     22 C22        -1.9011   51.4734   25.3657 C.1       1 UNK         0.0000 
     23 N23        -3.0409   51.5290   25.1798 N.1       1 UNK         0.0000 
     24 N24        -0.9491   51.2966   28.0080 N.pl3     1 UNK         0.0000 
     25 C25         1.1424   52.9453   28.7547 C.1       1 UNK         0.0000 
     26 N26         1.3443   53.1848   29.8695 N.1       1 UNK         0.0000 
     27 H27         1.7228   49.6303   20.9537 H         1 UNK         0.0000 
     28 H28         1.9081   50.5015   23.2229 H         1 UNK         0.0000 
     29 H29        -1.7075   52.7743   22.6469 H         1 UNK         0.0000 
     30 H30        -0.1622   50.3124   19.5030 H         1 UNK         0.0000 
     31 H31         1.6974   54.6990   23.9428 H         1 UNK         0.0000 
     32 H32         2.3124   53.4381   22.9170 H         1 UNK         0.0000 
     33 H33         4.4047   53.2886   24.1877 H         1 UNK         0.0000 
     34 H34         4.1550   54.8966   23.6588 H         1 UNK         0.0000 
     35 H35         4.9130   54.4365   26.1660 H         1 UNK         0.0000 
     36 H36         3.7654   55.6962   25.8396 H         1 UNK         0.0000 
     37 H37         2.9515   54.2850   27.7688 H         1 UNK         0.0000 
     38 H38        -1.4955   50.4595   27.8158 H         1 UNK         0.0000 
     39 H39        -0.8200   51.5140   28.9867 H         1 UNK         0.0000 
@<TRIPOS>BOND
     1    1    6 ar   
     2    1    2 ar   
     3    1   27 1    
     4    2    3 ar   
     5    2   28 1    
     6    3    4 ar   
     7    3    8 1    
     8    4    5 ar   
     9    4   29 1    
    10    5    6 ar   
    11    5    7 1    
    12    6   30 1    
    13    8    9 1    
    14    8   19 1    
    15    8   10 1    
    16   10   11 1    
    17   10   16 1    
    18   10   12 1    
    19   12   13 1    
    20   12   31 1    
    21   12   32 1    
    22   13   14 1    
    23   13   33 1    
    24   13   34 1    
    25   14   15 1    
    26   14   35 1    
    27   14   36 1    
    28   15   16 2    
    29   15   37 1    
    30   16   17 1    
    31   17   18 2    
    32   17   25 1    
    33   18   19 1    
    34   18   24 1    
    35   19   20 1    
    36   19   22 1    
    37   20   21 3    
    38   22   23 3    
    39   24   38 1    
    40   24   39 1    
    41   25   26 3    
@<TRIPOS>SUBSTRUCTURE
     1 UNK         1 GROUP             0       ****    0 ROOT    
