@<TRIPOS>MOLECULE
ZINC14329256_5332
59   62    1
SMALL
USER_CHARGES


@<TRIPOS>ATOM
      1 C1         -8.2618   48.1175   31.7686 C.3       1 UNK         0.0000 
      2 C2         -7.1734   48.4434   30.7628 C.ar      1 UNK         0.0000 
      3 C3         -7.1829   49.6651   30.0882 C.ar      1 UNK         0.0000 
      4 C4         -6.1812   49.9686   29.1663 C.ar      1 UNK         0.0000 
      5 C5         -5.1481   49.0509   28.9045 C.ar      1 UNK         0.0000 
      6 C6         -5.1466   47.8223   29.5897 C.ar      1 UNK         0.0000 
      7 C7         -6.1497   47.5299   30.5145 C.ar      1 UNK         0.0000 
      8 Br8        -3.8072   46.4965   29.2814 Br        1 UNK         0.0000 
      9 N9         -4.0956   49.2863   27.9941 N.am      1 UNK         0.0000 
     10 C10        -3.9100   50.2824   27.0976 C.2       1 UNK         0.0000 
     11 O11        -4.6795   51.2302   26.9299 O.2       1 UNK         0.0000 
     12 C12        -2.5956   50.2117   26.2769 C.3       1 UNK         0.0000 
     13 H13        -2.2783   49.1660   26.2707 H         1 UNK         0.0000 
     14 C14        -2.7851   50.6818   24.8324 C.3       1 UNK         0.0000 
     15 C15        -0.0743   50.3210   26.7894 C.3       1 UNK         0.0000 
     16 C16         0.8961   50.9035   27.8297 C.3       1 UNK         0.0000 
     17 C17         0.9043   52.4365   27.6583 C.3       1 UNK         0.0000 
     18 C18        -0.4865   52.9690   28.0750 C.3       1 UNK         0.0000 
     19 C19        -1.5091   52.4431   27.0414 C.3       1 UNK         0.0000 
     20 C20         2.0216   53.0416   28.5420 C.2       1 UNK         0.0000 
     21 O21         1.8779   53.0322   29.7678 O.2       1 UNK         0.0000 
     22 C22         3.2611   53.5756   27.8784 C.ar      1 UNK         0.0000 
     23 C23         4.3353   53.9818   28.6887 C.ar      1 UNK         0.0000 
     24 C24         5.5046   54.4967   28.1311 C.ar      1 UNK         0.0000 
     25 C25         5.6157   54.6304   26.7509 C.ar      1 UNK         0.0000 
     26 C26         4.5699   54.2028   25.9242 C.ar      1 UNK         0.0000 
     27 C27         3.3996   53.6969   26.4808 C.ar      1 UNK         0.0000 
     28 O28         4.6151   54.3373   24.5503 O.3       1 UNK         0.0000 
     29 C29         5.9278   54.5723   24.0271 C.3       1 UNK         0.0000 
     30 C30         6.6525   55.6306   24.8900 C.3       1 UNK         0.0000 
     31 O31         6.7838   55.1574   26.2363 O.3       1 UNK         0.0000 
     32 H32        -8.5328   49.0031   32.3465 H         1 UNK         0.0000 
     33 H33        -7.9298   47.3622   32.4822 H         1 UNK         0.0000 
     34 H34        -9.1577   47.7536   31.2607 H         1 UNK         0.0000 
     35 H35        -7.9690   50.3817   30.2735 H         1 UNK         0.0000 
     36 H36        -6.2324   50.9276   28.6764 H         1 UNK         0.0000 
     37 H37        -6.1359   46.5846   31.0371 H         1 UNK         0.0000 
     38 H38        -3.3329   48.6205   28.0820 H         1 UNK         0.0000 
     39 H39        -3.5330   50.0659   24.3313 H         1 UNK         0.0000 
     40 H40        -3.1134   51.7204   24.7950 H         1 UNK         0.0000 
     41 H41        -1.8468   50.5919   24.2855 H         1 UNK         0.0000 
     42 H42        -0.0986   49.2336   26.8818 H         1 UNK         0.0000 
     43 H43         0.1742   50.5884   25.7617 H         1 UNK         0.0000 
     44 H44         0.5709   50.6402   28.8379 H         1 UNK         0.0000 
     45 H45         1.8866   50.4716   27.6802 H         1 UNK         0.0000 
     46 H46         1.0719   52.6894   26.6186 H         1 UNK         0.0000 
     47 H47        -0.4980   54.0601   28.0814 H         1 UNK         0.0000 
     48 H48        -0.7634   52.6459   29.0819 H         1 UNK         0.0000 
     49 H49        -1.2759   52.7382   26.0172 H         1 UNK         0.0000 
     50 H50        -2.5312   52.7321   27.2731 H         1 UNK         0.0000 
     51 H51         4.2815   53.9050   29.7645 H         1 UNK         0.0000 
     52 H52         6.3043   54.8196   28.7762 H         1 UNK         0.0000 
     53 H53         2.6355   53.4182   25.7764 H         1 UNK         0.0000 
     54 H54         5.8576   54.8964   22.9885 H         1 UNK         0.0000 
     55 H55         6.4988   53.6426   24.0486 H         1 UNK         0.0000 
     56 H56         6.0505   56.5392   24.8896 H         1 UNK         0.0000 
     57 H57         7.6263   55.8828   24.4804 H         1 UNK         0.0000 
     58 N58        -1.4817   50.8966   27.1180 N.4       1 UNK         0.0000 
     59 H59        -1.6741   50.6114   28.0741 H         1 UNK         0.0000 
@<TRIPOS>BOND
     1    1    2 1    
     2    1   32 1    
     3    1   33 1    
     4    1   34 1    
     5    2    7 ar   
     6    2    3 ar   
     7    3    4 ar   
     8    3   35 1    
     9    4    5 ar   
    10    4   36 1    
    11    5    6 ar   
    12    5    9 1    
    13    6    7 ar   
    14    6    8 1    
    15    7   37 1    
    16    9   10 am   BACKBONE|DICT|INTERRES
    17    9   38 1    
    18   10   11 2    
    19   10   12 1    
    20   12   13 1    
    21   12   14 1    
    22   12   58 1    
    23   14   39 1    
    24   14   40 1    
    25   14   41 1    
    26   15   16 1    
    27   15   42 1    
    28   15   43 1    
    29   15   58 1    
    30   16   17 1    
    31   16   44 1    
    32   16   45 1    
    33   17   18 1    
    34   17   20 1    
    35   17   46 1    
    36   18   19 1    
    37   18   47 1    
    38   18   48 1    
    39   19   49 1    
    40   19   50 1    
    41   19   58 1    
    42   20   21 2    
    43   20   22 1    
    44   22   27 ar   
    45   22   23 ar   
    46   23   24 ar   
    47   23   51 1    
    48   24   25 ar   
    49   24   52 1    
    50   25   31 1    
    51   25   26 ar   
    52   26   27 ar   
    53   26   28 1    
    54   27   53 1    
    55   28   29 1    
    56   29   30 1    
    57   29   54 1    
    58   29   55 1    
    59   30   31 1    
    60   30   56 1    
    61   30   57 1    
    62   58   59 1    
@<TRIPOS>SUBSTRUCTURE
     1 UNK         1 GROUP             0       ****    0 ROOT    
