@<TRIPOS>MOLECULE
ZINC12492055_3407
66   69    1
SMALL
USER_CHARGES


@<TRIPOS>ATOM
      1 C1         -0.1183   52.2375   29.6032 C.3       1 UNK         0.0000 
      2 C2          1.0869   53.0646   30.1302 C.3       1 UNK         0.0000 
      3 C3          0.5374   54.3538   30.7782 C.3       1 UNK         0.0000 
      4 C4          1.7575   52.1839   31.2071 C.3       1 UNK         0.0000 
      5 C5          2.1113   53.4322   29.0235 C.ar      1 UNK         0.0000 
      6 C6          1.7724   53.3738   27.6665 C.ar      1 UNK         0.0000 
      7 C7          2.7005   53.6965   26.6835 C.ar      1 UNK         0.0000 
      8 C8          4.0046   54.0924   27.0233 C.ar      1 UNK         0.0000 
      9 C9          4.3442   54.1641   28.3793 C.ar      1 UNK         0.0000 
     10 C10         3.4117   53.8420   29.3607 C.ar      1 UNK         0.0000 
     11 C11         5.0335   54.4512   25.9677 C.2       1 UNK         0.0000 
     12 O12         6.0820   55.0215   26.2822 O.2       1 UNK         0.0000 
     13 N13         4.7022   54.0970   24.7074 N.am      1 UNK         0.0000 
     14 C14         5.3391   54.3717   23.4886 C.ar      1 UNK         0.0000 
     15 C15         6.6233   54.9182   23.3749 C.ar      1 UNK         0.0000 
     16 C16         7.1046   55.2964   22.1285 C.ar      1 UNK         0.0000 
     17 C17         6.3189   55.1241   20.9857 C.ar      1 UNK         0.0000 
     18 C18         5.0714   54.4984   21.0884 C.ar      1 UNK         0.0000 
     19 C19         4.5879   54.1170   22.3370 C.ar      1 UNK         0.0000 
     20 C20         6.8383   55.6218   19.6672 C.2       1 UNK         0.0000 
     21 O21         7.9968   55.3740   19.3245 O.2       1 UNK         0.0000 
     22 N22         5.9766   56.4037   18.9827 N.am      1 UNK         0.0000 
     23 N23         6.4036   57.0078   17.7991 N.am      1 UNK         0.0000 
     24 C24         6.9050   58.2645   17.8423 C.2       1 UNK         0.0000 
     25 O25         7.1047   58.8960   18.8821 O.2       1 UNK         0.0000 
     26 C26         7.2949   58.7986   16.5623 C.2       1 UNK         0.0000 
     27 C27         6.4946   58.7845   15.4742 C.2       1 UNK         0.0000 
     28 C28         6.8857   59.2588   14.1278 C.ar      1 UNK         0.0000 
     29 C29         8.1772   58.9911   13.6603 C.ar      1 UNK         0.0000 
     30 C30         8.5869   59.3826   12.3924 C.ar      1 UNK         0.0000 
     31 C31         7.7168   60.0588   11.5473 C.ar      1 UNK         0.0000 
     32 C32         6.4036   60.3688   11.9726 C.ar      1 UNK         0.0000 
     33 C33         5.9763   59.9775   13.2830 C.ar      1 UNK         0.0000 
     34 C34         4.6554   60.3303   13.6851 C.ar      1 UNK         0.0000 
     35 C35         3.8033   61.0195   12.8274 C.ar      1 UNK         0.0000 
     36 C36         4.2237   61.3796   11.5533 C.ar      1 UNK         0.0000 
     37 C37         5.5078   61.0634   11.1208 C.ar      1 UNK         0.0000 
     38 H38        -0.7752   51.9231   30.4164 H         1 UNK         0.0000 
     39 H39         0.2054   51.3314   29.0882 H         1 UNK         0.0000 
     40 H40        -0.7410   52.8075   28.9143 H         1 UNK         0.0000 
     41 H41         1.3276   55.0401   31.0785 H         1 UNK         0.0000 
     42 H42        -0.0956   54.8974   30.0813 H         1 UNK         0.0000 
     43 H43        -0.0685   54.1363   31.6593 H         1 UNK         0.0000 
     44 H44         2.5782   52.6771   31.7173 H         1 UNK         0.0000 
     45 H45         1.0523   51.8653   31.9780 H         1 UNK         0.0000 
     46 H46         2.1723   51.2968   30.7389 H         1 UNK         0.0000 
     47 H47         0.7867   53.0770   27.3466 H         1 UNK         0.0000 
     48 H48         2.3720   53.6357   25.6574 H         1 UNK         0.0000 
     49 H49         5.3336   54.4744   28.6877 H         1 UNK         0.0000 
     50 H50         3.7287   53.9189   30.3873 H         1 UNK         0.0000 
     51 H51         3.8243   53.6134   24.6150 H         1 UNK         0.0000 
     52 H52         7.2549   55.0954   24.2300 H         1 UNK         0.0000 
     53 H53         8.0840   55.7523   22.0724 H         1 UNK         0.0000 
     54 H54         4.4587   54.3285   20.2147 H         1 UNK         0.0000 
     55 H55         3.6032   53.6757   22.4011 H         1 UNK         0.0000 
     56 H56         4.9718   56.3561   19.0680 H         1 UNK         0.0000 
     57 H57         6.1556   56.5008   16.9616 H         1 UNK         0.0000 
     58 H58         8.2862   59.2238   16.5284 H         1 UNK         0.0000 
     59 H59         5.4974   58.3711   15.5522 H         1 UNK         0.0000 
     60 H60         8.8798   58.4534   14.2814 H         1 UNK         0.0000 
     61 H61         9.5885   59.1541   12.0596 H         1 UNK         0.0000 
     62 H62         8.0420   60.3560   10.5595 H         1 UNK         0.0000 
     63 H63         4.3053   60.0859   14.6780 H         1 UNK         0.0000 
     64 H64         2.8096   61.2813   13.1603 H         1 UNK         0.0000 
     65 H65         3.5503   61.9121   10.8979 H         1 UNK         0.0000 
     66 H66         5.8299   61.3556   10.1319 H         1 UNK         0.0000 
@<TRIPOS>BOND
     1    1    2 1    
     2    1   38 1    
     3    1   39 1    
     4    1   40 1    
     5    2    3 1    
     6    2    4 1    
     7    2    5 1    
     8    3   41 1    
     9    3   42 1    
    10    3   43 1    
    11    4   44 1    
    12    4   45 1    
    13    4   46 1    
    14    5   10 ar   
    15    5    6 ar   
    16    6    7 ar   
    17    6   47 1    
    18    7    8 ar   
    19    7   48 1    
    20    8    9 ar   
    21    8   11 1    
    22    9   10 ar   
    23    9   49 1    
    24   10   50 1    
    25   11   12 2    
    26   11   13 am   BACKBONE|DICT|INTERRES
    27   13   14 1    
    28   13   51 1    
    29   14   19 ar   
    30   14   15 ar   
    31   15   16 ar   
    32   15   52 1    
    33   16   17 ar   
    34   16   53 1    
    35   17   18 ar   
    36   17   20 1    
    37   18   19 ar   
    38   18   54 1    
    39   19   55 1    
    40   20   21 2    
    41   20   22 am   BACKBONE|DICT|INTERRES
    42   22   23 1    
    43   22   56 1    
    44   23   24 am   BACKBONE|DICT|INTERRES
    45   23   57 1    
    46   24   25 2    
    47   24   26 1    
    48   26   27 2    
    49   26   58 1    
    50   27   28 1    
    51   27   59 1    
    52   28   33 ar   
    53   28   29 ar   
    54   29   30 ar   
    55   29   60 1    
    56   30   31 ar   
    57   30   61 1    
    58   31   32 ar   
    59   31   62 1    
    60   32   37 ar   
    61   32   33 ar   
    62   33   34 ar   
    63   34   35 ar   
    64   34   63 1    
    65   35   36 ar   
    66   35   64 1    
    67   36   37 ar   
    68   36   65 1    
    69   37   66 1    
@<TRIPOS>SUBSTRUCTURE
     1 UNK         1 GROUP             0       ****    0 ROOT    
