@<TRIPOS>MOLECULE
ZINC02978395_5775
53   55    1
SMALL
USER_CHARGES


@<TRIPOS>ATOM
      1 C1         -3.1319   47.5600   25.8120 C.3       1 UNK         0.0000 
      2 C2         -2.1587   48.5140   25.1421 C.ar      1 UNK         0.0000 
      3 C3         -0.8468   48.6259   25.6063 C.ar      1 UNK         0.0000 
      4 C4          0.0416   49.4934   24.9902 C.ar      1 UNK         0.0000 
      5 C5         -0.3903   50.3029   23.9385 C.ar      1 UNK         0.0000 
      6 C6         -1.7121   50.2194   23.4952 C.ar      1 UNK         0.0000 
      7 C7         -2.5908   49.3136   24.0827 C.ar      1 UNK         0.0000 
      8 N8          0.4812   51.2652   23.4024 N.pl3     1 UNK         0.0000 
      9 C9          1.7156   50.8116   22.7894 C.3       1 UNK         0.0000 
     10 C10         1.5222   50.1488   21.4114 C.2       1 UNK         0.0000 
     11 O11         2.3012   49.2542   21.0904 O.2       1 UNK         0.0000 
     12 N12         0.5537   50.6603   20.6145 N.am      1 UNK         0.0000 
     13 C13         0.2145   50.4126   19.2616 C.ar      1 UNK         0.0000 
     14 C14         1.0329   49.6218   18.4328 C.ar      1 UNK         0.0000 
     15 C15         0.7041   49.3953   17.1012 C.ar      1 UNK         0.0000 
     16 C16        -0.4481   49.9544   16.5659 C.ar      1 UNK         0.0000 
     17 C17        -1.2649   50.7511   17.3609 C.ar      1 UNK         0.0000 
     18 C18        -0.9608   51.0090   18.7107 C.ar      1 UNK         0.0000 
     19 C19        -1.8916   51.9166   19.4883 C.2       1 UNK         0.0000 
     20 O20        -2.8324   52.4891   18.8873 O.co2     1 UNK         0.0000 
     21 S21         0.3851   52.9079   24.0929 S.o2      1 UNK         0.0000 
     22 O22         1.3976   53.7425   23.4350 O.2       1 UNK         0.0000 
     23 O23        -1.0300   53.2959   24.0812 O.2       1 UNK         0.0000 
     24 C24         0.8608   52.7446   25.8211 C.ar      1 UNK         0.0000 
     25 C25         2.1318   53.1389   26.2449 C.ar      1 UNK         0.0000 
     26 C26         2.4705   53.0470   27.5937 C.ar      1 UNK         0.0000 
     27 C27         1.5398   52.5733   28.5191 C.ar      1 UNK         0.0000 
     28 C28         0.2727   52.1677   28.0948 C.ar      1 UNK         0.0000 
     29 C29        -0.0649   52.2519   26.7465 C.ar      1 UNK         0.0000 
     30 S30         2.0032   52.4973   30.2292 S.3       1 UNK         0.0000 
     31 C31         0.4922   52.5424   31.2418 C.3       1 UNK         0.0000 
     32 H32        -4.1135   48.0255   25.9064 H         1 UNK         0.0000 
     33 H33        -3.2429   46.6512   25.2223 H         1 UNK         0.0000 
     34 H34        -2.8181   47.2903   26.8203 H         1 UNK         0.0000 
     35 H35        -0.5050   48.0944   26.4793 H         1 UNK         0.0000 
     36 H36         1.0467   49.5744   25.3770 H         1 UNK         0.0000 
     37 H37        -2.0702   50.8646   22.7102 H         1 UNK         0.0000 
     38 H38        -3.6114   49.2583   23.7331 H         1 UNK         0.0000 
     39 H39         2.3050   50.1671   23.4428 H         1 UNK         0.0000 
     40 H40         2.3950   51.6396   22.5904 H         1 UNK         0.0000 
     41 H41        -0.0690   51.3453   21.0371 H         1 UNK         0.0000 
     42 H42         1.9544   49.1825   18.7788 H         1 UNK         0.0000 
     43 H43         1.3583   48.7978   16.4828 H         1 UNK         0.0000 
     44 H44        -0.7013   49.7831   15.5299 H         1 UNK         0.0000 
     45 H45        -2.1467   51.1794   16.9041 H         1 UNK         0.0000 
     46 H46         2.8545   53.5185   25.5368 H         1 UNK         0.0000 
     47 H47         3.4535   53.3542   27.9205 H         1 UNK         0.0000 
     48 H48        -0.4538   51.7798   28.7919 H         1 UNK         0.0000 
     49 H49        -1.0484   51.9402   26.4223 H         1 UNK         0.0000 
     50 H50         0.7458   52.5112   32.3021 H         1 UNK         0.0000 
     51 H51        -0.0674   53.4589   31.0572 H         1 UNK         0.0000 
     52 H52        -0.1603   51.6965   31.0354 H         1 UNK         0.0000 
     53 O53        -1.6881   52.0966   20.7092 O.co2     1 UNK         0.0000 
@<TRIPOS>BOND
     1    1    2 1    
     2    1   32 1    
     3    1   33 1    
     4    1   34 1    
     5    2    7 ar   
     6    2    3 ar   
     7    3    4 ar   
     8    3   35 1    
     9    4    5 ar   
    10    4   36 1    
    11    5    6 ar   
    12    5    8 1    
    13    6    7 ar   
    14    6   37 1    
    15    7   38 1    
    16    8    9 1    
    17    8   21 1    
    18    9   10 1    
    19    9   39 1    
    20    9   40 1    
    21   10   11 2    
    22   10   12 am   BACKBONE|DICT|INTERRES
    23   12   13 1    
    24   12   41 1    
    25   13   18 ar   
    26   13   14 ar   
    27   14   15 ar   
    28   14   42 1    
    29   15   16 ar   
    30   15   43 1    
    31   16   17 ar   
    32   16   44 1    
    33   17   18 ar   
    34   17   45 1    
    35   18   19 1    
    36   19   20 2    
    37   19   53 1    
    38   21   22 2    
    39   21   23 2    
    40   21   24 1    
    41   24   29 ar   
    42   24   25 ar   
    43   25   26 ar   
    44   25   46 1    
    45   26   27 ar   
    46   26   47 1    
    47   27   28 ar   
    48   27   30 1    
    49   28   29 ar   
    50   28   48 1    
    51   29   49 1    
    52   30   31 1    
    53   31   50 1    
    54   31   51 1    
    55   31   52 1    
@<TRIPOS>SUBSTRUCTURE
     1 UNK         1 GROUP             0       ****    0 ROOT    
