@<TRIPOS>MOLECULE
ZINC02076778_2712
39   41    1
SMALL
USER_CHARGES


@<TRIPOS>ATOM
      1 C1          4.0937   54.4584   29.8103 C.3       1 UNK         0.0000 
      2 C2          3.0837   53.6133   29.0507 C.ar      1 UNK         0.0000 
      3 C3          2.0899   52.9451   29.7789 C.ar      1 UNK         0.0000 
      4 C4          1.0689   52.2573   29.1255 C.ar      1 UNK         0.0000 
      5 C5          1.0205   52.2452   27.7343 C.ar      1 UNK         0.0000 
      6 C6          2.0084   52.8957   26.9974 C.ar      1 UNK         0.0000 
      7 C7          3.0660   53.5462   27.6406 C.ar      1 UNK         0.0000 
      8 N8          4.0237   54.1306   26.7962 N.am      1 UNK         0.0000 
      9 C9          5.3630   53.9033   26.8029 C.2       1 UNK         0.0000 
     10 O10         5.9857   53.2966   27.6730 O.2       1 UNK         0.0000 
     11 C11         6.0721   54.4514   25.6325 C.2       1 UNK         0.0000 
     12 O12         7.1041   55.1197   25.7535 O.2       1 UNK         0.0000 
     13 N13         5.5022   54.0997   24.4601 N.am      1 UNK         0.0000 
     14 N14         5.9816   54.4989   23.2740 N.2       1 UNK         0.0000 
     15 C15         5.2362   54.1564   22.3030 C.2       1 UNK         0.0000 
     16 C16         5.5046   54.5532   20.9173 C.ar      1 UNK         0.0000 
     17 C17         6.1955   55.7564   20.6621 C.ar      1 UNK         0.0000 
     18 C18         6.3977   56.1415   19.3457 C.ar      1 UNK         0.0000 
     19 C19         5.9784   55.3718   18.3016 C.ar      1 UNK         0.0000 
     20 C20         5.3313   54.1585   18.5025 C.ar      1 UNK         0.0000 
     21 C21         5.0850   53.7540   19.8235 C.ar      1 UNK         0.0000 
     22 Br22        4.1644   52.0984   20.0823 Br        1 UNK         0.0000 
     23 O23         6.3280   55.9752   17.1350 O.3       1 UNK         0.0000 
     24 C24         6.7607   57.2619   17.4941 C.3       1 UNK         0.0000 
     25 O25         7.0214   57.2517   18.8730 O.3       1 UNK         0.0000 
     26 Cl26       -0.2584   51.4214   26.9213 Cl        1 UNK         0.0000 
     27 H27         4.0633   55.4847   29.4481 H         1 UNK         0.0000 
     28 H28         3.9151   54.4578   30.8796 H         1 UNK         0.0000 
     29 H29         5.1046   54.0986   29.6817 H         1 UNK         0.0000 
     30 H30         2.0852   52.9682   30.8588 H         1 UNK         0.0000 
     31 H31         0.3047   51.7488   29.6971 H         1 UNK         0.0000 
     32 H32         1.9617   52.8575   25.9186 H         1 UNK         0.0000 
     33 H33         3.6428   54.6343   26.0103 H         1 UNK         0.0000 
     34 H34         4.6757   53.5214   24.4269 H         1 UNK         0.0000 
     35 H35         4.3316   53.5630   22.4309 H         1 UNK         0.0000 
     36 H36         6.5425   56.3830   21.4707 H         1 UNK         0.0000 
     37 H37         5.0169   53.5397   17.6744 H         1 UNK         0.0000 
     38 H38         7.6526   57.5415   16.9314 H         1 UNK         0.0000 
     39 H39         5.9678   57.9841   17.2828 H         1 UNK         0.0000 
@<TRIPOS>BOND
     1    1    2 1    
     2    1   27 1    
     3    1   28 1    
     4    1   29 1    
     5    2    7 ar   
     6    2    3 ar   
     7    3    4 ar   
     8    3   30 1    
     9    4    5 ar   
    10    4   31 1    
    11    5    6 ar   
    12    5   26 1    
    13    6    7 ar   
    14    6   32 1    
    15    7    8 1    
    16    8    9 am   BACKBONE|DICT|INTERRES
    17    8   33 1    
    18    9   10 2    
    19    9   11 1    
    20   11   12 2    
    21   11   13 am   BACKBONE|DICT|INTERRES
    22   13   14 1    
    23   13   34 1    
    24   14   15 2    
    25   15   16 1    
    26   15   35 1    
    27   16   21 ar   
    28   16   17 ar   
    29   17   18 ar   
    30   17   36 1    
    31   18   25 1    
    32   18   19 ar   
    33   19   20 ar   
    34   19   23 1    
    35   20   21 ar   
    36   20   37 1    
    37   21   22 1    
    38   23   24 1    
    39   24   25 1    
    40   24   38 1    
    41   24   39 1    
@<TRIPOS>SUBSTRUCTURE
     1 UNK         1 GROUP             0       ****    0 ROOT    
