@<TRIPOS>MOLECULE
ZINC00135843_6135
30   33    1
SMALL
USER_CHARGES


@<TRIPOS>ATOM
      1 C1          4.8539   54.4727   19.4232 C.ar      1 UNK         0.0000 
      2 C2          4.2149   53.3134   19.8865 C.ar      1 UNK         0.0000 
      3 C3          4.4176   52.8691   21.1974 C.ar      1 UNK         0.0000 
      4 C4          5.2695   53.6123   22.0082 C.ar      1 UNK         0.0000 
      5 C5          5.9041   54.7502   21.5697 C.ar      1 UNK         0.0000 
      6 C6          5.7075   55.1986   20.2648 C.ar      1 UNK         0.0000 
      7 N7          6.7044   55.2228   22.6007 N.pl3     1 UNK         0.0000 
      8 C8          6.5887   54.2744   23.6774 C.3       1 UNK         0.0000 
      9 H9          7.5396   53.7592   23.8293 H         1 UNK         0.0000 
     10 O10         5.6492   53.3119   23.2793 O.3       1 UNK         0.0000 
     11 C11         6.1349   54.9734   24.9774 C.3       1 UNK         0.0000 
     12 H12         6.4190   56.0272   24.9509 H         1 UNK         0.0000 
     13 N13         6.7003   54.3395   26.1384 N.pl3     1 UNK         0.0000 
     14 C14         5.6430   54.0623   26.9903 C.ar      1 UNK         0.0000 
     15 C15         5.6019   53.5367   28.2795 C.ar      1 UNK         0.0000 
     16 C16         4.3564   53.3161   28.8815 C.ar      1 UNK         0.0000 
     17 C17         3.1724   53.6211   28.1956 C.ar      1 UNK         0.0000 
     18 C18         3.2225   54.1579   26.9052 C.ar      1 UNK         0.0000 
     19 C19         4.4750   54.3750   26.3386 C.ar      1 UNK         0.0000 
     20 O20         4.7379   54.9028   25.1114 O.3       1 UNK         0.0000 
     21 H21         4.6907   54.8032   18.4080 H         1 UNK         0.0000 
     22 H22         3.5696   52.7539   19.2240 H         1 UNK         0.0000 
     23 H23         3.9385   51.9688   21.5520 H         1 UNK         0.0000 
     24 H24         6.2030   56.0834   19.8953 H         1 UNK         0.0000 
     25 H25         7.4506   55.9017   22.6338 H         1 UNK         0.0000 
     26 H26         7.6967   54.2253   26.2262 H         1 UNK         0.0000 
     27 H27         6.5117   53.2970   28.8085 H         1 UNK         0.0000 
     28 H28         4.3069   52.9019   29.8773 H         1 UNK         0.0000 
     29 H29         2.2159   53.4410   28.6648 H         1 UNK         0.0000 
     30 H30         2.3135   54.3938   26.3737 H         1 UNK         0.0000 
@<TRIPOS>BOND
     1    1    6 ar   
     2    1    2 ar   
     3    1   21 1    
     4    2    3 ar   
     5    2   22 1    
     6    3    4 ar   
     7    3   23 1    
     8    4   10 1    
     9    4    5 ar   
    10    5    6 ar   
    11    5    7 1    
    12    6   24 1    
    13    7    8 1    
    14    7   25 1    
    15    8    9 1    
    16    8   10 1    
    17    8   11 1    
    18   11   12 1    
    19   11   20 1    
    20   11   13 1    
    21   13   14 1    
    22   13   26 1    
    23   14   19 ar   
    24   14   15 ar   
    25   15   16 ar   
    26   15   27 1    
    27   16   17 ar   
    28   16   28 1    
    29   17   18 ar   
    30   17   29 1    
    31   18   19 ar   
    32   18   30 1    
    33   19   20 1    
@<TRIPOS>SUBSTRUCTURE
     1 UNK         1 GROUP             0       ****    0 ROOT    
