ZINC21577015_2048
                    3D
 Schrodinger Suite 2024-2.
 61 64  0  0  1  0            999 V2000
    5.9839   48.7829   13.2681 C   0  0  0  0  0  0
    5.7562   49.7770   12.0961 C   0  0  0  0  0  0
    6.7855   49.4359   10.9856 C   0  0  0  0  0  0
    4.3289   49.5704   11.5355 C   0  0  0  0  0  0
    5.9082   51.2728   12.5243 C   0  0  0  0  0  0
    6.1313   52.1187   11.6537 O   0  0  0  0  0  0
    5.7005   51.5672   13.8350 N   0  0  0  0  0  0
    5.9047   52.6989   14.5859 C   0  0  0  0  0  0
    6.7521   54.0797   14.1210 S   0  0  0  0  0  0
    5.3334   52.5415   15.8172 N   0  0  0  0  0  0
    5.3984   53.2967   17.0004 C   0  0  0  0  0  0
    6.6153   53.6971   17.5612 C   0  0  0  0  0  0
    6.6418   54.2270   18.8494 C   0  0  0  0  0  0
    5.4643   54.3394   19.6025 C   0  0  0  0  0  0
    4.2481   54.0012   18.9950 C   0  0  0  0  0  0
    4.2127   53.4757   17.7079 C   0  0  0  0  0  0
    5.5036   54.7070   20.9473 N   0  0  0  0  0  0
    6.4638   55.6587   21.5231 C   0  0  0  0  0  0
    7.0960   55.2418   22.8713 C   0  0  0  0  0  0
    6.0823   54.7040   23.8017 N   0  0  0  0  0  0
    5.2057   53.6661   23.2360 C   0  0  0  0  0  0
    4.5522   54.1866   21.9408 C   0  0  0  0  0  0
    6.1978   54.9912   25.1352 C   0  0  0  0  0  0
    7.1042   55.6967   25.5804 O   0  0  0  0  0  0
    5.2417   54.4688   26.0966 C   0  0  0  0  0  0
    5.4200   54.2256   27.4613 C   0  0  0  0  0  0
    4.1571   53.8090   27.9784 C   0  0  0  0  0  0
    3.6559   53.3848   29.2205 C   0  0  0  0  0  0
    2.2994   53.0555   29.3174 C   0  0  0  0  0  0
    1.4475   53.1469   28.2139 C   0  0  0  0  0  0
    1.9145   53.5753   26.9694 C   0  0  0  0  0  0
    3.2730   53.8990   26.8804 C   0  0  0  0  0  0
    3.9208   54.3413   25.7614 O   0  0  0  0  0  0
    5.8922   47.7468   12.9381 H   0  0  0  0  0  0
    5.2663   48.9145   14.0797 H   0  0  0  0  0  0
    6.9873   48.8905   13.6815 H   0  0  0  0  0  0
    6.6484   50.0506   10.0944 H   0  0  0  0  0  0
    7.8106   49.5866   11.3297 H   0  0  0  0  0  0
    6.6997   48.3956   10.6713 H   0  0  0  0  0  0
    4.1185   50.2395   10.6984 H   0  0  0  0  0  0
    4.1858   48.5508   11.1736 H   0  0  0  0  0  0
    3.5658   49.7509   12.2950 H   0  0  0  0  0  0
    5.4273   50.7630   14.3794 H   0  0  0  0  0  0
    4.7198   51.7436   15.9110 H   0  0  0  0  0  0
    7.5449   53.5333   17.0361 H   0  0  0  0  0  0
    7.6017   54.4674   19.2806 H   0  0  0  0  0  0
    3.3177   54.0974   19.5337 H   0  0  0  0  0  0
    3.2688   53.1545   17.2920 H   0  0  0  0  0  0
    7.2505   55.9101   20.8133 H   0  0  0  0  0  0
    5.9045   56.5788   21.6745 H   0  0  0  0  0  0
    7.8074   54.4433   22.6579 H   0  0  0  0  0  0
    7.6437   56.0959   23.2727 H   0  0  0  0  0  0
    4.4341   53.2966   23.9021 H   0  0  0  0  0  0
    5.8230   52.8080   22.9680 H   0  0  0  0  0  0
    3.8535   54.9919   22.1691 H   0  0  0  0  0  0
    3.9580   53.3769   21.5160 H   0  0  0  0  0  0
    6.3529   54.3268   27.9977 H   0  0  0  0  0  0
    4.3054   53.3067   30.0785 H   0  0  0  0  0  0
    1.8949   52.7199   30.2624 H   0  0  0  0  0  0
    0.4063   52.8782   28.3286 H   0  0  0  0  0  0
    1.2629   53.6502   26.1124 H   0  0  0  0  0  0
  1  2  1  0  0  0
  1 34  1  0  0  0
  1 35  1  0  0  0
  1 36  1  0  0  0
  2  3  1  0  0  0
  2  4  1  0  0  0
  2  5  1  0  0  0
  3 37  1  0  0  0
  3 38  1  0  0  0
  3 39  1  0  0  0
  4 40  1  0  0  0
  4 41  1  0  0  0
  4 42  1  0  0  0
  5  6  2  0  0  0
  5  7  1  0  0  0
  7  8  1  0  0  0
  7 43  1  0  0  0
  8  9  2  0  0  0
  8 10  1  0  0  0
 10 11  1  0  0  0
 10 44  1  0  0  0
 11 16  2  0  0  0
 11 12  1  0  0  0
 12 13  2  0  0  0
 12 45  1  0  0  0
 13 14  1  0  0  0
 13 46  1  0  0  0
 14 15  2  0  0  0
 14 17  1  0  0  0
 15 16  1  0  0  0
 15 47  1  0  0  0
 16 48  1  0  0  0
 17 22  1  0  0  0
 17 18  1  0  0  0
 18 19  1  0  0  0
 18 49  1  0  0  0
 18 50  1  0  0  0
 19 20  1  0  0  0
 19 51  1  0  0  0
 19 52  1  0  0  0
 20 21  1  0  0  0
 20 23  1  0  0  0
 21 22  1  0  0  0
 21 53  1  0  0  0
 21 54  1  0  0  0
 22 55  1  0  0  0
 22 56  1  0  0  0
 23 24  2  0  0  0
 23 25  1  0  0  0
 25 33  1  0  0  0
 25 26  2  0  0  0
 26 27  1  0  0  0
 26 57  1  0  0  0
 27 32  2  0  0  0
 27 28  1  0  0  0
 28 29  2  0  0  0
 28 58  1  0  0  0
 29 30  1  0  0  0
 29 59  1  0  0  0
 30 31  2  0  0  0
 30 60  1  0  0  0
 31 32  1  0  0  0
 31 61  1  0  0  0
 32 33  1  0  0  0
M  END
> <i_i_glide_confnum>
58

> <i_i_glide_lignum>
2049

> <i_i_glide_posenum>
215

> <i_i_glide_rotatable_bonds>
8

> <i_m_Source_File_Index>
5748

> <b_m_subgroup_collapsed>
0

> <r_i_docking_score>
-6.10192

> <r_i_glide_ecoul>
-6.06898

> <r_i_glide_eff_state_penalty>
0

> <r_i_glide_einternal>
3.88616

> <r_i_glide_emodel>
-60.7758

> <r_i_glide_energy>
-45.4629

> <r_i_glide_erotb>
0.653848

> <r_i_glide_esite>
-0.0703375

> <r_i_glide_evdw>
-39.3939

> <r_i_glide_gscore>
-6.10192

> <r_i_glide_hbond>
-0.32

> <r_i_glide_ligand_efficiency>
-0.184907

> <r_i_glide_ligand_efficiency_ln>
-1.35704

> <r_i_glide_ligand_efficiency_sa>
-0.593094

> <r_i_glide_lipo>
-2.41608

> <r_i_glide_metal>
0

> <r_i_glide_rewards>
-1.06931

> <s_i_glide_gridfile>
wee1_glide-grid

> <s_m_Source_File>
wee1_decoys_glide_SP.sdf

> <s_m_Source_Path>
/Users/zhangxujun/Desktop

> <s_m_entry_id>
6023

> <s_m_entry_name>
wee1_decoys_glide_SP.5748

> <s_m_subgroup_title>
wee1_decoys_glide_SP

> <s_m_subgroupid>
wee1_decoys_glide_SP


$$$$
