ZINC39939031_3332
                    3D
 Schrodinger Suite 2024-2.
 59 63  0  0  1  0            999 V2000
    0.8633   52.2508   21.5823 C   0  0  0  0  0  0
    0.6331   51.9446   20.0954 C   0  0  0  0  0  0
    0.3566   50.5637   19.8686 O   0  0  0  0  0  0
   -0.8706   50.0271   20.1158 C   0  0  0  0  0  0
   -1.8150   50.6850   20.5604 O   0  0  0  0  0  0
   -0.9736   48.5547   19.8755 C   0  0  0  0  0  0
   -0.2095   47.9440   18.9132 C   0  0  0  0  0  0
   -0.2580   46.6287   18.5594 O   0  0  0  0  0  0
   -1.0746   45.7912   19.2636 C   0  0  0  0  0  0
   -1.4580   44.7233   18.6836 N   0  0  0  0  0  0
   -2.3494   43.8403   19.2873 C   0  0  0  0  0  0
   -2.8960   42.5233   18.4367 S   0  0  0  0  0  0
   -2.7864   44.0147   20.5141 N   0  5  0  0  0  0
   -2.4778   45.0600   21.2780 C   0  0  0  0  0  0
   -2.8657   45.2092   22.4345 O   0  0  0  0  0  0
   -1.5191   46.1564   20.6784 C   0  0  2  0  0  0
   -0.6194   46.0712   21.2845 H   0  0  0  0  0  0
   -1.9700   47.6827   20.7178 C   0  0  1  0  0  0
   -2.1335   48.1384   22.1444 C   0  0  0  0  0  0
   -1.2191   48.3130   23.1831 C   0  0  0  0  0  0
   -1.6669   48.7779   24.4221 C   0  0  0  0  0  0
   -3.0300   49.0512   24.6164 C   0  0  0  0  0  0
   -3.9564   48.8829   23.5777 C   0  0  0  0  0  0
   -3.4631   48.4267   22.3520 C   0  0  0  0  0  0
   -4.2163   48.2120   21.1919 N   0  0  0  0  0  0
   -3.4102   47.8581   20.1510 C   0  0  0  0  0  0
   -3.7301   47.6889   18.9718 O   0  0  0  0  0  0
   -5.6829   48.4981   21.1461 C   0  0  0  0  0  0
   -6.2338   48.4020   22.6136 C   0  0  0  0  0  0
   -5.4488   49.1503   23.7264 C   0  0  2  0  0  0
   -5.7622   48.7064   24.6718 H   0  0  0  0  0  0
   -5.7681   50.6556   23.8169 C   0  0  0  0  0  0
   -6.4176   47.4015   20.3229 C   0  0  0  0  0  0
   -5.8441   49.9185   20.5534 C   0  0  0  0  0  0
   -0.6688   49.0189   25.5393 C   0  0  0  0  0  0
    0.7159   48.5002   18.0663 N   0  0  0  0  0  0
    1.1263   53.2996   21.7256 H   0  0  0  0  0  0
    1.6741   51.6449   21.9878 H   0  0  0  0  0  0
   -0.0304   52.0567   22.1778 H   0  0  0  0  0  0
   -0.1670   52.5654   19.6926 H   0  0  0  0  0  0
    1.5311   52.2007   19.5354 H   0  0  0  0  0  0
   -0.1715   48.1061   23.0324 H   0  0  0  0  0  0
   -3.3700   49.4015   25.5792 H   0  0  0  0  0  0
   -6.2160   47.3448   22.8918 H   0  0  0  0  0  0
   -7.2888   48.6838   22.6413 H   0  0  0  0  0  0
   -5.3236   51.0910   24.7127 H   0  0  0  0  0  0
   -5.3872   51.2212   22.9679 H   0  0  0  0  0  0
   -6.8438   50.8289   23.8741 H   0  0  0  0  0  0
   -7.5001   47.5040   20.4169 H   0  0  0  0  0  0
   -6.2027   47.4642   19.2558 H   0  0  0  0  0  0
   -6.1467   46.3963   20.6551 H   0  0  0  0  0  0
   -6.8477   50.3112   20.7195 H   0  0  0  0  0  0
   -5.1268   50.6257   20.9676 H   0  0  0  0  0  0
   -5.6789   49.9083   19.4757 H   0  0  0  0  0  0
    0.2863   49.3632   25.1387 H   0  0  0  0  0  0
   -1.0197   49.7848   26.2354 H   0  0  0  0  0  0
   -0.4930   48.0962   26.0889 H   0  0  0  0  0  0
    0.9565   49.4806   18.1333 H   0  0  0  0  0  0
    1.2376   47.9296   17.4153 H   0  0  0  0  0  0
  1  2  1  0  0  0
  1 37  1  0  0  0
  1 38  1  0  0  0
  1 39  1  0  0  0
  2  3  1  0  0  0
  2 40  1  0  0  0
  2 41  1  0  0  0
  3  4  1  0  0  0
  4  5  2  0  0  0
  4  6  1  0  0  0
  6 18  1  0  0  0
  6  7  2  0  0  0
  7  8  1  0  0  0
  7 36  1  0  0  0
  8  9  1  0  0  0
  9 16  1  0  0  0
  9 10  2  0  0  0
 10 11  1  0  0  0
 11 12  2  0  0  0
 11 13  1  0  0  0
 13 14  1  0  0  0
 14 15  2  0  0  0
 14 16  1  0  0  0
 16 17  1  0  0  0
 16 18  1  0  0  0
 18 26  1  0  0  0
 18 19  1  0  0  0
 19 24  2  0  0  0
 19 20  1  0  0  0
 20 21  2  0  0  0
 20 42  1  0  0  0
 21 22  1  0  0  0
 21 35  1  0  0  0
 22 23  2  0  0  0
 22 43  1  0  0  0
 23 30  1  0  0  0
 23 24  1  0  0  0
 24 25  1  0  0  0
 25 26  1  0  0  0
 25 28  1  0  0  0
 26 27  2  0  0  0
 28 29  1  0  0  0
 28 33  1  0  0  0
 28 34  1  0  0  0
 29 30  1  0  0  0
 29 44  1  0  0  0
 29 45  1  0  0  0
 30 31  1  0  0  0
 30 32  1  0  0  0
 32 46  1  0  0  0
 32 47  1  0  0  0
 32 48  1  0  0  0
 33 49  1  0  0  0
 33 50  1  0  0  0
 33 51  1  0  0  0
 34 52  1  0  0  0
 34 53  1  0  0  0
 34 54  1  0  0  0
 35 55  1  0  0  0
 35 56  1  0  0  0
 35 57  1  0  0  0
 36 58  1  0  0  0
 36 59  1  0  0  0
M  CHG  1  13  -1
M  END
> <i_i_glide_confnum>
3

> <i_i_glide_lignum>
3333

> <i_i_glide_posenum>
225

> <i_i_glide_rotatable_bonds>
3

> <i_m_Source_File_Index>
2700

> <b_m_subgroup_collapsed>
0

> <r_i_docking_score>
-1.55154

> <r_i_glide_ecoul>
-3.01811

> <r_i_glide_eff_state_penalty>
0

> <r_i_glide_einternal>
1.45059

> <r_i_glide_emodel>
-24.3684

> <r_i_glide_energy>
-21.4153

> <r_i_glide_erotb>
0.174975

> <r_i_glide_esite>
-0.113805

> <r_i_glide_evdw>
-18.3972

> <r_i_glide_gscore>
-1.55154

> <r_i_glide_hbond>
-0.0832375

> <r_i_glide_ligand_efficiency>
-0.0456336

> <r_i_glide_ligand_efficiency_ln>
-0.342779

> <r_i_glide_ligand_efficiency_sa>
-0.147835

> <r_i_glide_lipo>
-0.0310691

> <r_i_glide_metal>
0

> <r_i_glide_rewards>
-0.125829

> <s_i_glide_gridfile>
wee1_glide-grid

> <s_m_Source_File>
wee1_decoys_glide_SP.sdf

> <s_m_Source_Path>
/Users/zhangxujun/Desktop

> <s_m_entry_id>
2975

> <s_m_entry_name>
wee1_decoys_glide_SP.2700

> <s_m_subgroup_title>
wee1_decoys_glide_SP

> <s_m_subgroupid>
wee1_decoys_glide_SP


$$$$
