@<TRIPOS>MOLECULE
ZINC39466690_1194
62   66    1
SMALL
USER_CHARGES


@<TRIPOS>ATOM
      1 C1          3.3915   52.8446   29.5436 C.3       1 UNK         0.0000 
      2 S2          4.1634   54.0399   28.4150 S.3       1 UNK         0.0000 
      3 C3          3.4695   53.6972   26.7936 C.2       1 UNK         0.0000 
      4 C4          2.3083   53.0024   26.6672 C.2       1 UNK         0.0000 
      5 C5          1.6796   52.6557   25.3154 C.3       1 UNK         0.0000 
      6 H6          2.2079   51.8052   24.8817 H         1 UNK         0.0000 
      7 C7          0.1740   52.3005   25.3452 C.3       1 UNK         0.0000 
      8 C8         -0.5446   52.4860   23.9749 C.3       1 UNK         0.0000 
      9 H9         -0.8841   53.5167   23.8557 H         1 UNK         0.0000 
     10 C10        -1.7465   51.5383   23.7806 C.3       1 UNK         0.0000 
     11 O11        -2.3611   51.7810   22.5256 O.3       1 UNK         0.0000 
     12 P12        -1.5686   51.4683   21.1350 P.3       1 UNK         0.0000 
     13 O13        -2.2331   52.0932   19.9606 O.2       1 UNK         0.0000 
     14 N14        -0.0407   52.0968   21.4906 N.pl3     1 UNK         0.0000 
     15 N15         0.4949   52.3027   22.8322 N.4       1 UNK         0.0000 
     16 C16         1.5679   53.4188   22.8553 C.3       1 UNK         0.0000 
     17 C17         1.9436   53.8218   24.3072 C.3       1 UNK         0.0000 
     18 H18         1.3013   54.6646   24.5649 H         1 UNK         0.0000 
     19 C19         3.3701   54.3582   24.4443 C.2       1 UNK         0.0000 
     20 C20         4.1034   54.2314   25.5745 C.2       1 UNK         0.0000 
     21 S21         5.8869   54.6818   25.4942 S.3       1 UNK         0.0000 
     22 O22         6.0079   56.0967   25.1316 O.2       1 UNK         0.0000 
     23 O23         6.6036   54.1654   26.6645 O.2       1 UNK         0.0000 
     24 O24         6.3826   53.7387   24.1903 O.3       1 UNK         0.0000 
     25 C25         6.1733   54.1438   22.8948 C.ar      1 UNK         0.0000 
     26 C26         6.8252   55.2625   22.3719 C.ar      1 UNK         0.0000 
     27 C27         6.6094   55.6398   21.0489 C.ar      1 UNK         0.0000 
     28 C28         5.7411   54.8961   20.2529 C.ar      1 UNK         0.0000 
     29 C29         5.1036   53.7653   20.7612 C.ar      1 UNK         0.0000 
     30 C30         5.3317   53.3831   22.0814 C.ar      1 UNK         0.0000 
     31 C31        -1.3374   49.6430   21.0627 C.3       1 UNK         0.0000 
     32 C32        -0.3346   49.2061   20.0065 C.ar      1 UNK         0.0000 
     33 C33         0.9798   48.9002   20.3743 C.ar      1 UNK         0.0000 
     34 C34         1.9005   48.5145   19.4033 C.ar      1 UNK         0.0000 
     35 C35         1.5044   48.4341   18.0711 C.ar      1 UNK         0.0000 
     36 C36         0.1961   48.7343   17.6983 C.ar      1 UNK         0.0000 
     37 C37        -0.7261   49.1201   18.6683 C.ar      1 UNK         0.0000 
     38 H38         3.9080   52.8631   30.5026 H         1 UNK         0.0000 
     39 H39         2.3430   53.0902   29.7148 H         1 UNK         0.0000 
     40 H40         3.4645   51.8343   29.1394 H         1 UNK         0.0000 
     41 H41         1.8091   52.6336   27.5487 H         1 UNK         0.0000 
     42 H42         0.0675   51.2738   25.7046 H         1 UNK         0.0000 
     43 H43        -0.3390   52.8962   26.1005 H         1 UNK         0.0000 
     44 H44        -1.4579   50.4910   23.8792 H         1 UNK         0.0000 
     45 H45        -2.4925   51.7177   24.5567 H         1 UNK         0.0000 
     46 H46         0.3892   52.6443   20.7433 H         1 UNK         0.0000 
     47 H47         2.4061   53.0054   22.2941 H         1 UNK         0.0000 
     48 H48         1.1598   54.2595   22.2944 H         1 UNK         0.0000 
     49 H49         3.8165   54.8241   23.5816 H         1 UNK         0.0000 
     50 H50         7.5030   55.8300   22.9925 H         1 UNK         0.0000 
     51 H51         7.1178   56.4973   20.6362 H         1 UNK         0.0000 
     52 H52         5.5741   55.1866   19.2255 H         1 UNK         0.0000 
     53 H53         4.4505   53.1817   20.1272 H         1 UNK         0.0000 
     54 H54         4.8594   52.4982   22.4802 H         1 UNK         0.0000 
     55 H55        -1.0265   49.2618   22.0336 H         1 UNK         0.0000 
     56 H56        -2.3034   49.1812   20.8585 H         1 UNK         0.0000 
     57 H57         1.2925   48.9673   21.4056 H         1 UNK         0.0000 
     58 H58         2.9212   48.2867   19.6734 H         1 UNK         0.0000 
     59 H59         2.2276   48.1513   17.3183 H         1 UNK         0.0000 
     60 H60        -0.0968   48.6772   16.6602 H         1 UNK         0.0000 
     61 H61        -1.7384   49.3625   18.3793 H         1 UNK         0.0000 
     62 H62         0.9871   51.4433   23.0335 H         1 UNK         0.0000 
@<TRIPOS>BOND
     1    1    2 1    
     2    1   38 1    
     3    1   39 1    
     4    1   40 1    
     5    2    3 1    
     6    3   20 1    
     7    3    4 2    
     8    4    5 1    
     9    4   41 1    
    10    5    6 1    
    11    5   17 1    
    12    5    7 1    
    13    7    8 1    
    14    7   42 1    
    15    7   43 1    
    16    8    9 1    
    17    8   15 1    
    18    8   10 1    
    19   10   11 1    
    20   10   44 1    
    21   10   45 1    
    22   11   12 1    
    23   12   13 2    
    24   12   14 1    
    25   12   31 1    
    26   14   15 1    
    27   14   46 1    
    28   15   16 1    
    29   15   62 1    
    30   16   17 1    
    31   16   47 1    
    32   16   48 1    
    33   17   18 1    
    34   17   19 1    
    35   19   20 2    
    36   19   49 1    
    37   20   21 1    
    38   21   22 2    
    39   21   23 2    
    40   21   24 1    
    41   24   25 1    
    42   25   30 ar   
    43   25   26 ar   
    44   26   27 ar   
    45   26   50 1    
    46   27   28 ar   
    47   27   51 1    
    48   28   29 ar   
    49   28   52 1    
    50   29   30 ar   
    51   29   53 1    
    52   30   54 1    
    53   31   32 1    
    54   31   55 1    
    55   31   56 1    
    56   32   37 ar   
    57   32   33 ar   
    58   33   34 ar   
    59   33   57 1    
    60   34   35 ar   
    61   34   58 1    
    62   35   36 ar   
    63   35   59 1    
    64   36   37 ar   
    65   36   60 1    
    66   37   61 1    
@<TRIPOS>SUBSTRUCTURE
     1 UNK         1 GROUP             0       ****    0 ROOT    
