@<TRIPOS>MOLECULE
ZINC02841077_3602
44   46    1
SMALL
USER_CHARGES


@<TRIPOS>ATOM
      1 C1          5.5306   55.0666   25.9428 C.3       1 UNK         0.0000 
      2 C2          4.3917   54.2233   26.5168 C.ar      1 UNK         0.0000 
      3 C3          4.4747   53.7724   27.8528 C.ar      1 UNK         0.0000 
      4 C4          3.3816   53.1161   28.4428 C.ar      1 UNK         0.0000 
      5 C5          2.2212   52.8981   27.7105 C.ar      1 UNK         0.0000 
      6 C6          2.1454   53.2974   26.3827 C.ar      1 UNK         0.0000 
      7 C7          3.2259   53.9324   25.7660 C.ar      1 UNK         0.0000 
      8 N8          3.0127   54.2309   24.4084 N.am      1 UNK         0.0000 
      9 C9          3.8395   53.9937   23.3706 C.2       1 UNK         0.0000 
     10 O10         5.0279   53.6962   23.4724 O.2       1 UNK         0.0000 
     11 C11         3.1924   54.0833   21.9876 C.3       1 UNK         0.0000 
     12 S12         4.0137   53.0644   20.7118 S.3       1 UNK         0.0000 
     13 C13         3.0704   51.5778   20.8785 C.ar      1 UNK         0.0000 
     14 N14         2.7026   51.0446   22.0196 N.2       1 UNK         0.0000 
     15 N15         1.9627   49.9039   21.7293 N.2       1 UNK         0.0000 
     16 C16         1.9114   49.7848   20.4213 C.ar      1 UNK         0.0000 
     17 N17         2.5743   50.8409   19.8282 N.pl3     1 UNK         0.0000 
     18 N18         2.7043   51.1210   18.4826 N.3       1 UNK         0.0000 
     19 C19         1.2447   48.6457   19.7126 C.ar      1 UNK         0.0000 
     20 C20         0.0684   48.1026   20.2397 C.ar      1 UNK         0.0000 
     21 C21        -0.5415   47.0111   19.6253 C.ar      1 UNK         0.0000 
     22 C22         0.0228   46.4628   18.4751 C.ar      1 UNK         0.0000 
     23 C23         1.1837   47.0057   17.9303 C.ar      1 UNK         0.0000 
     24 C24         1.7938   48.0944   18.5488 C.ar      1 UNK         0.0000 
     25 Cl25       -0.7202   45.0976   17.7231 Cl        1 UNK         0.0000 
     26 Br26        3.4254   52.4968   30.2492 Br        1 UNK         0.0000 
     27 C27         5.7572   53.9460   28.6586 C.3       1 UNK         0.0000 
     28 H28         5.1786   55.7547   25.1762 H         1 UNK         0.0000 
     29 H29         6.3177   54.4314   25.5362 H         1 UNK         0.0000 
     30 H30         5.9792   55.6958   26.7084 H         1 UNK         0.0000 
     31 H31         1.3838   52.3908   28.1674 H         1 UNK         0.0000 
     32 H32         1.2418   53.0824   25.8294 H         1 UNK         0.0000 
     33 H33         2.0468   54.3779   24.1660 H         1 UNK         0.0000 
     34 H34         2.1317   53.8346   22.0308 H         1 UNK         0.0000 
     35 H35         3.2579   55.1234   21.6812 H         1 UNK         0.0000 
     36 H36         2.4190   52.0651   18.2670 H         1 UNK         0.0000 
     37 H37         3.6468   50.8976   18.1533 H         1 UNK         0.0000 
     38 H38        -0.3667   48.5187   21.1375 H         1 UNK         0.0000 
     39 H39        -1.4443   46.5907   20.0442 H         1 UNK         0.0000 
     40 H40         1.6207   46.5841   17.0366 H         1 UNK         0.0000 
     41 H41         2.7036   48.4918   18.1183 H         1 UNK         0.0000 
     42 H42         5.9052   53.0693   29.2816 H         1 UNK         0.0000 
     43 H43         6.6524   53.9968   28.0395 H         1 UNK         0.0000 
     44 H44         5.7063   54.8345   29.2892 H         1 UNK         0.0000 
@<TRIPOS>BOND
     1    1    2 1    
     2    1   28 1    
     3    1   29 1    
     4    1   30 1    
     5    2    7 ar   
     6    2    3 ar   
     7    3    4 ar   
     8    3   27 1    
     9    4    5 ar   
    10    4   26 1    
    11    5    6 ar   
    12    5   31 1    
    13    6    7 ar   
    14    6   32 1    
    15    7    8 1    
    16    8    9 am   BACKBONE|DICT|INTERRES
    17    8   33 1    
    18    9   10 2    
    19    9   11 1    
    20   11   12 1    
    21   11   34 1    
    22   11   35 1    
    23   12   13 1    
    24   13   17 ar   
    25   13   14 ar   
    26   14   15 ar   
    27   15   16 ar   
    28   16   17 ar   
    29   16   19 1    
    30   17   18 1    
    31   18   36 1    
    32   18   37 1    
    33   19   24 ar   
    34   19   20 ar   
    35   20   21 ar   
    36   20   38 1    
    37   21   22 ar   
    38   21   39 1    
    39   22   23 ar   
    40   22   25 1    
    41   23   24 ar   
    42   23   40 1    
    43   24   41 1    
    44   27   42 1    
    45   27   43 1    
    46   27   44 1    
@<TRIPOS>SUBSTRUCTURE
     1 UNK         1 GROUP             0       ****    0 ROOT    
