@<TRIPOS>MOLECULE
ZINC20153100_2020
52   54    1
SMALL
USER_CHARGES


@<TRIPOS>ATOM
      1 C1         -3.1069   50.4969   26.7608 C.3       1 UNK         0.0000 
      2 C2         -2.9914   50.9873   25.3089 C.3       1 UNK         0.0000 
      3 C3         -2.4981   52.4409   25.2246 C.3       1 UNK         0.0000 
      4 C4         -2.3820   52.8970   23.7516 C.3       1 UNK         0.0000 
      5 N5         -1.4799   52.0336   22.9652 N.pl3     1 UNK         0.0000 
      6 C6         -1.9773   50.6446   22.9978 C.3       1 UNK         0.0000 
      7 C7         -2.0501   50.1176   24.4514 C.3       1 UNK         0.0000 
      8 C8         -0.1301   52.3131   22.7391 C.ar      1 UNK         0.0000 
      9 C9          0.5746   53.0665   23.6844 C.ar      1 UNK         0.0000 
     10 C10         1.9231   53.3552   23.5303 C.ar      1 UNK         0.0000 
     11 C11         2.6361   52.8946   22.4165 C.ar      1 UNK         0.0000 
     12 C12         1.9399   52.1360   21.4659 C.ar      1 UNK         0.0000 
     13 C13         0.5695   51.8513   21.5975 C.ar      1 UNK         0.0000 
     14 N14        -0.1166   51.2034   20.4543 N.pl3     1 UNK         0.0000 
     15 O15        -1.2551   51.5613   20.1603 O.co2     1 UNK         0.0000 
     16 O16         0.5097   50.3724   19.8041 O.co2     1 UNK         0.0000 
     17 C17         4.0990   53.2388   22.1981 C.2       1 UNK         0.0000 
     18 O18         4.6510   52.9462   21.1355 O.2       1 UNK         0.0000 
     19 N19         4.7329   53.8207   23.2475 N.am      1 UNK         0.0000 
     20 C20         5.8429   54.6289   23.3274 C.2       1 UNK         0.0000 
     21 S21         6.7050   55.2967   22.0587 S.2       1 UNK         0.0000 
     22 N22         6.2746   54.9318   24.5883 N.pl3     1 UNK         0.0000 
     23 C23         5.6824   54.6156   25.8262 C.ar      1 UNK         0.0000 
     24 C24         4.3208   54.8272   26.0688 C.ar      1 UNK         0.0000 
     25 C25         3.7562   54.4239   27.2760 C.ar      1 UNK         0.0000 
     26 C26         4.5527   53.8298   28.2622 C.ar      1 UNK         0.0000 
     27 C27         5.9280   53.6969   28.0451 C.ar      1 UNK         0.0000 
     28 C28         6.4878   54.0888   26.8329 C.ar      1 UNK         0.0000 
     29 C29         3.9397   53.3461   29.5329 C.2       1 UNK         0.0000 
     30 O30         3.1039   54.0988   30.0817 O.co2     1 UNK         0.0000 
     31 O31         4.2944   52.2240   29.9644 O.co2     1 UNK         0.0000 
     32 H32        -2.1416   50.5118   27.2682 H         1 UNK         0.0000 
     33 H33        -3.7938   51.1158   27.3382 H         1 UNK         0.0000 
     34 H34        -3.4762   49.4717   26.8048 H         1 UNK         0.0000 
     35 H35        -3.9800   50.9487   24.8473 H         1 UNK         0.0000 
     36 H36        -1.5436   52.5466   25.7392 H         1 UNK         0.0000 
     37 H37        -3.1730   53.0969   25.7758 H         1 UNK         0.0000 
     38 H38        -2.0747   53.9407   23.6811 H         1 UNK         0.0000 
     39 H39        -3.3663   52.8550   23.2833 H         1 UNK         0.0000 
     40 H40        -2.9718   50.6326   22.5497 H         1 UNK         0.0000 
     41 H41        -1.3681   49.9807   22.3854 H         1 UNK         0.0000 
     42 H42        -2.3918   49.0815   24.4629 H         1 UNK         0.0000 
     43 H43        -1.0509   50.0757   24.8889 H         1 UNK         0.0000 
     44 H44         0.0827   53.4366   24.5677 H         1 UNK         0.0000 
     45 H45         2.3832   53.9520   24.2979 H         1 UNK         0.0000 
     46 H46         2.4593   51.8023   20.5756 H         1 UNK         0.0000 
     47 H47         4.2050   53.7850   24.1042 H         1 UNK         0.0000 
     48 H48         7.1456   55.4400   24.6379 H         1 UNK         0.0000 
     49 H49         3.6968   55.2966   25.3257 H         1 UNK         0.0000 
     50 H50         2.6971   54.5667   27.4431 H         1 UNK         0.0000 
     51 H51         6.5657   53.2792   28.8103 H         1 UNK         0.0000 
     52 H52         7.5402   53.9441   26.6755 H         1 UNK         0.0000 
@<TRIPOS>BOND
     1    1    2 1    
     2    1   32 1    
     3    1   33 1    
     4    1   34 1    
     5    2    7 1    
     6    2    3 1    
     7    2   35 1    
     8    3    4 1    
     9    3   36 1    
    10    3   37 1    
    11    4    5 1    
    12    4   38 1    
    13    4   39 1    
    14    5    6 1    
    15    5    8 1    
    16    6    7 1    
    17    6   40 1    
    18    6   41 1    
    19    7   42 1    
    20    7   43 1    
    21    8   13 ar   
    22    8    9 ar   
    23    9   10 ar   
    24    9   44 1    
    25   10   11 ar   
    26   10   45 1    
    27   11   12 ar   
    28   11   17 1    
    29   12   13 ar   
    30   12   46 1    
    31   13   14 1    
    32   14   15 2    
    33   14   16 1    
    34   17   18 2    
    35   17   19 am   BACKBONE|DICT|INTERRES
    36   19   20 am   BACKBONE|DICT|INTERRES
    37   19   47 1    
    38   20   21 2    
    39   20   22 1    
    40   22   23 1    
    41   22   48 1    
    42   23   28 ar   
    43   23   24 ar   
    44   24   25 ar   
    45   24   49 1    
    46   25   26 ar   
    47   25   50 1    
    48   26   27 ar   
    49   26   29 1    
    50   27   28 ar   
    51   27   51 1    
    52   28   52 1    
    53   29   30 2    
    54   29   31 1    
@<TRIPOS>SUBSTRUCTURE
     1 UNK         1 GROUP             0       ****    0 ROOT    
