@<TRIPOS>MOLECULE
ZINC35863275_5693
76   80    1
SMALL
USER_CHARGES


@<TRIPOS>ATOM
      1 C1          0.4756   54.6672   31.6052 C.3       1 UNK         0.0000 
      2 C2          1.2137   53.6397   30.7360 C.3       1 UNK         0.0000 
      3 C3          1.5680   54.1648   29.3272 C.2       1 UNK         0.0000 
      4 O4          1.1044   55.2428   28.9532 O.2       1 UNK         0.0000 
      5 N5          2.2387   53.3406   28.4878 N.am      1 UNK         0.0000 
      6 C6          3.1602   52.2998   28.9592 C.3       1 UNK         0.0000 
      7 C7          4.5721   52.9025   28.8537 C.3       1 UNK         0.0000 
      8 C8          4.8471   53.4972   27.4726 C.ar      1 UNK         0.0000 
      9 C9          6.1684   53.6970   27.0530 C.ar      1 UNK         0.0000 
     10 C10         6.4614   54.1709   25.7767 C.ar      1 UNK         0.0000 
     11 C11         5.4182   54.4970   24.9069 C.ar      1 UNK         0.0000 
     12 C12         4.1045   54.3934   25.3633 C.ar      1 UNK         0.0000 
     13 C13         3.7742   53.8471   26.6134 C.ar      1 UNK         0.0000 
     14 C14         2.2949   53.5782   27.0258 C.3       1 UNK         0.0000 
     15 H15         1.7423   54.4967   26.8332 H         1 UNK         0.0000 
     16 C16         1.5039   52.5192   26.1993 C.ar      1 UNK         0.0000 
     17 C17         1.5332   52.4971   24.7967 C.ar      1 UNK         0.0000 
     18 C18         0.8508   51.5188   24.0784 C.ar      1 UNK         0.0000 
     19 C19         0.1113   50.5482   24.7508 C.ar      1 UNK         0.0000 
     20 C20         0.0223   50.5810   26.1388 C.ar      1 UNK         0.0000 
     21 C21         0.7021   51.5624   26.8514 C.ar      1 UNK         0.0000 
     22 C22        -0.6120   49.4643   23.9729 C.3       1 UNK         0.0000 
     23 O23         5.5812   54.8966   23.5957 O.3       1 UNK         0.0000 
     24 C24         6.8748   54.8985   22.9996 C.3       1 UNK         0.0000 
     25 C25         6.7476   55.3056   21.5411 C.2       1 UNK         0.0000 
     26 N26         7.5853   56.0416   20.8483 N.2       1 UNK         0.0000 
     27 C27         7.0400   56.1843   19.6470 C.2       1 UNK         0.0000 
     28 C28         5.8895   55.3964   19.5960 C.2       1 UNK         0.0000 
     29 O29         5.6918   54.8524   20.8213 O.3       1 UNK         0.0000 
     30 C30         7.6542   56.9299   18.5590 C.2       1 UNK         0.0000 
     31 O31         8.8816   56.8876   18.4416 O.2       1 UNK         0.0000 
     32 N32         6.8626   57.6738   17.7248 N.am      1 UNK         0.0000 
     33 C33         5.5050   58.1274   18.0816 C.3       1 UNK         0.0000 
     34 C34         4.5842   57.9966   16.8579 C.3       1 UNK         0.0000 
     35 N35         5.1453   58.8967   15.7370 N.4       1 UNK         0.0000 
     36 C36         6.5674   58.4089   15.3745 C.3       1 UNK         0.0000 
     37 C37         7.4885   58.4411   16.6198 C.3       1 UNK         0.0000 
     38 C38         4.2257   58.8887   14.4971 C.3       1 UNK         0.0000 
     39 C39         2.9065   59.5930   14.7487 C.2       1 UNK         0.0000 
     40 C40         1.7072   58.9916   14.8091 C.2       1 UNK         0.0000 
     41 H41         0.3035   54.2732   32.6085 H         1 UNK         0.0000 
     42 H42         1.0371   55.5987   31.6965 H         1 UNK         0.0000 
     43 H43        -0.4957   54.8966   31.1822 H         1 UNK         0.0000 
     44 H44         0.5715   52.7667   30.6141 H         1 UNK         0.0000 
     45 H45         2.0990   53.2957   31.2671 H         1 UNK         0.0000 
     46 H46         3.0725   51.4143   28.3320 H         1 UNK         0.0000 
     47 H47         2.9092   51.8904   29.9351 H         1 UNK         0.0000 
     48 H48         5.3003   52.1230   29.0647 H         1 UNK         0.0000 
     49 H49         4.7044   53.6641   29.6232 H         1 UNK         0.0000 
     50 H50         6.9838   53.4341   27.7121 H         1 UNK         0.0000 
     51 H51         7.4973   54.2598   25.4751 H         1 UNK         0.0000 
     52 H52         3.3278   54.7283   24.6965 H         1 UNK         0.0000 
     53 H53         2.0861   53.2159   24.2232 H         1 UNK         0.0000 
     54 H54         0.9084   51.5103   23.0000 H         1 UNK         0.0000 
     55 H55        -0.5581   49.8412   26.6731 H         1 UNK         0.0000 
     56 H56         0.6063   51.5432   27.9258 H         1 UNK         0.0000 
     57 H57        -0.9711   49.8418   23.0146 H         1 UNK         0.0000 
     58 H58         0.0551   48.6217   23.7911 H         1 UNK         0.0000 
     59 H59        -1.4845   49.1036   24.5179 H         1 UNK         0.0000 
     60 H60         7.3366   53.9120   23.0715 H         1 UNK         0.0000 
     61 H61         7.5035   55.6236   23.5184 H         1 UNK         0.0000 
     62 H62         5.1667   55.1494   18.8318 H         1 UNK         0.0000 
     63 H63         5.5723   59.1861   18.3433 H         1 UNK         0.0000 
     64 H64         5.1043   57.6298   18.9563 H         1 UNK         0.0000 
     65 H65         3.5962   58.3905   17.1022 H         1 UNK         0.0000 
     66 H66         4.4900   56.9740   16.4852 H         1 UNK         0.0000 
     67 H67         6.5022   57.4175   14.9200 H         1 UNK         0.0000 
     68 H68         6.9417   59.1166   14.6326 H         1 UNK         0.0000 
     69 H69         8.4675   58.0406   16.3460 H         1 UNK         0.0000 
     70 H70         7.6177   59.4816   16.9250 H         1 UNK         0.0000 
     71 H71         4.0971   57.8431   14.2080 H         1 UNK         0.0000 
     72 H72         4.7690   59.4077   13.7062 H         1 UNK         0.0000 
     73 H73         2.9678   60.6661   14.8821 H         1 UNK         0.0000 
     74 H74         1.6006   57.9234   14.6786 H         1 UNK         0.0000 
     75 H75         0.8119   59.5647   14.9940 H         1 UNK         0.0000 
     76 H76         5.1858   59.8567   16.0823 H         1 UNK         0.0000 
@<TRIPOS>BOND
     1    1    2 1    
     2    1   41 1    
     3    1   42 1    
     4    1   43 1    
     5    2    3 1    
     6    2   44 1    
     7    2   45 1    
     8    3    4 2    
     9    3    5 am   BACKBONE|DICT|INTERRES
    10    5   14 1    
    11    5    6 1    
    12    6    7 1    
    13    6   46 1    
    14    6   47 1    
    15    7    8 1    
    16    7   48 1    
    17    7   49 1    
    18    8   13 ar   
    19    8    9 ar   
    20    9   10 ar   
    21    9   50 1    
    22   10   11 ar   
    23   10   51 1    
    24   11   12 ar   
    25   11   23 1    
    26   12   13 ar   
    27   12   52 1    
    28   13   14 1    
    29   14   15 1    
    30   14   16 1    
    31   16   21 ar   
    32   16   17 ar   
    33   17   18 ar   
    34   17   53 1    
    35   18   19 ar   
    36   18   54 1    
    37   19   20 ar   
    38   19   22 1    
    39   20   21 ar   
    40   20   55 1    
    41   21   56 1    
    42   22   57 1    
    43   22   58 1    
    44   22   59 1    
    45   23   24 1    
    46   24   25 1    
    47   24   60 1    
    48   24   61 1    
    49   25   29 1    
    50   25   26 2    
    51   26   27 1    
    52   27   28 2    
    53   27   30 1    
    54   28   29 1    
    55   28   62 1    
    56   30   31 2    
    57   30   32 am   BACKBONE|DICT|INTERRES
    58   32   37 1    
    59   32   33 1    
    60   33   34 1    
    61   33   63 1    
    62   33   64 1    
    63   34   35 1    
    64   34   65 1    
    65   34   66 1    
    66   35   36 1    
    67   35   38 1    
    68   35   76 1    
    69   36   37 1    
    70   36   67 1    
    71   36   68 1    
    72   37   69 1    
    73   37   70 1    
    74   38   39 1    
    75   38   71 1    
    76   38   72 1    
    77   39   40 2    
    78   39   73 1    
    79   40   74 1    
    80   40   75 1    
@<TRIPOS>SUBSTRUCTURE
     1 UNK         1 GROUP             0       ****    0 ROOT    
