ZINC20441788_1175
                    3D
 Schrodinger Suite 2024-2.
 64 68  0  0  1  0            999 V2000
    1.7975   50.2430   18.7622 C   0  0  0  0  0  0
    1.4564   50.4693   17.4314 C   0  0  0  0  0  0
    0.5783   51.5037   17.1071 C   0  0  0  0  0  0
    0.0352   52.3128   18.1055 C   0  0  0  0  0  0
    0.3830   52.0965   19.4364 C   0  0  0  0  0  0
    1.2704   51.0679   19.7620 C   0  0  0  0  0  0
    1.7599   50.8505   21.4707 S   0  0  0  0  0  0
    2.7041   49.7321   21.5354 O   0  0  0  0  0  0
    0.5170   50.8314   22.2490 O   0  0  0  0  0  0
    2.6184   52.3220   21.9427 N   0  0  0  0  0  0
    3.9697   52.7058   21.4438 C   0  0  1  0  0  0
    4.7143   52.0139   21.8425 H   0  0  0  0  0  0
    3.9735   52.6831   19.8971 C   0  0  0  0  0  0
    5.2352   53.2997   19.2816 C   0  0  0  0  0  0
    5.5058   54.7054   19.8381 C   0  0  0  0  0  0
    5.5878   54.7032   21.3746 C   0  0  0  0  0  0
    4.3391   54.0955   22.0716 C   0  0  2  0  0  0
    3.5059   54.7859   21.9104 H   0  0  0  0  0  0
    4.5755   53.9003   23.6139 N   0  3  0  0  0  0
    3.2970   54.2426   24.4186 C   0  0  0  0  0  0
    3.5010   53.8766   25.8975 C   0  0  0  0  0  0
    4.6257   54.6173   26.4852 N   0  0  0  0  0  0
    5.8804   54.3425   25.7723 C   0  0  0  0  0  0
    5.7906   54.6309   24.2606 C   0  0  0  0  0  0
    4.8479   54.3199   27.9117 C   0  0  0  0  0  0
    3.5920   54.2244   28.7753 C   0  0  0  0  0  0
    2.6056   55.2346   28.7702 C   0  0  0  0  0  0
    1.4614   55.1340   29.5681 C   0  0  0  0  0  0
    1.3297   53.9975   30.3538 C   0  0  0  0  0  0
    2.2865   53.0217   30.3741 C   0  0  0  0  0  0
    3.4349   53.1011   29.6008 C   0  0  0  0  0  0
    1.9731   52.0964   31.3099 O   0  0  0  0  0  0
    0.7045   52.4500   31.7846 C   0  0  0  0  0  0
    0.3681   53.7079   31.2631 O   0  0  0  0  0  0
    0.1631   51.7884   15.4569 Cl  0  0  0  0  0  0
    2.5007   49.4554   18.9978 H   0  0  0  0  0  0
    1.8914   49.8493   16.6583 H   0  0  0  0  0  0
   -0.6396   53.1164   17.8460 H   0  0  0  0  0  0
   -0.0167   52.7326   20.2109 H   0  0  0  0  0  0
    2.0098   53.1054   22.1868 H   0  0  0  0  0  0
    3.1047   53.2179   19.5083 H   0  0  0  0  0  0
    3.9040   51.6581   19.5391 H   0  0  0  0  0  0
    5.1290   53.3394   18.1957 H   0  0  0  0  0  0
    6.0880   52.6465   19.4673 H   0  0  0  0  0  0
    4.7147   55.3832   19.5116 H   0  0  0  0  0  0
    6.4304   55.0991   19.4134 H   0  0  0  0  0  0
    5.8282   55.6961   21.7504 H   0  0  0  0  0  0
    6.4483   54.0988   21.6428 H   0  0  0  0  0  0
    3.0669   55.2965   24.2659 H   0  0  0  0  0  0
    2.4814   53.6354   24.0381 H   0  0  0  0  0  0
    3.7123   52.8139   25.9881 H   0  0  0  0  0  0
    2.5662   54.0860   26.4167 H   0  0  0  0  0  0
    6.7081   54.9093   26.2037 H   0  0  0  0  0  0
    6.0851   53.2769   25.8889 H   0  0  0  0  0  0
    5.6935   55.6966   24.0797 H   0  0  0  0  0  0
    6.6905   54.2347   23.7895 H   0  0  0  0  0  0
    5.4757   55.1055   28.3358 H   0  0  0  0  0  0
    5.4086   53.3886   28.0168 H   0  0  0  0  0  0
    2.7038   56.0970   28.1347 H   0  0  0  0  0  0
    0.7221   55.9208   29.5753 H   0  0  0  0  0  0
    4.1873   52.3281   29.6471 H   0  0  0  0  0  0
   -0.0281   51.7106   31.4417 H   0  0  0  0  0  0
    0.7029   52.4868   32.8756 H   0  0  0  0  0  0
    4.7336   52.9114   23.7512 H   0  0  0  0  0  0
  1  6  2  0  0  0
  1  2  1  0  0  0
  1 36  1  0  0  0
  2  3  2  0  0  0
  2 37  1  0  0  0
  3  4  1  0  0  0
  3 35  1  0  0  0
  4  5  2  0  0  0
  4 38  1  0  0  0
  5  6  1  0  0  0
  5 39  1  0  0  0
  6  7  1  0  0  0
  7  8  2  0  0  0
  7  9  2  0  0  0
  7 10  1  0  0  0
 10 11  1  0  0  0
 10 40  1  0  0  0
 11 12  1  0  0  0
 11 17  1  0  0  0
 11 13  1  0  0  0
 13 14  1  0  0  0
 13 41  1  0  0  0
 13 42  1  0  0  0
 14 15  1  0  0  0
 14 43  1  0  0  0
 14 44  1  0  0  0
 15 16  1  0  0  0
 15 45  1  0  0  0
 15 46  1  0  0  0
 16 17  1  0  0  0
 16 47  1  0  0  0
 16 48  1  0  0  0
 17 18  1  0  0  0
 17 19  1  0  0  0
 19 24  1  0  0  0
 19 20  1  0  0  0
 19 64  1  0  0  0
 20 21  1  0  0  0
 20 49  1  0  0  0
 20 50  1  0  0  0
 21 22  1  0  0  0
 21 51  1  0  0  0
 21 52  1  0  0  0
 22 23  1  0  0  0
 22 25  1  0  0  0
 23 24  1  0  0  0
 23 53  1  0  0  0
 23 54  1  0  0  0
 24 55  1  0  0  0
 24 56  1  0  0  0
 25 26  1  0  0  0
 25 57  1  0  0  0
 25 58  1  0  0  0
 26 31  2  0  0  0
 26 27  1  0  0  0
 27 28  2  0  0  0
 27 59  1  0  0  0
 28 29  1  0  0  0
 28 60  1  0  0  0
 29 34  1  0  0  0
 29 30  2  0  0  0
 30 31  1  0  0  0
 30 32  1  0  0  0
 31 61  1  0  0  0
 32 33  1  0  0  0
 33 34  1  0  0  0
 33 62  1  0  0  0
 33 63  1  0  0  0
M  CHG  1  19   1
M  END
> <i_i_glide_confnum>
139

> <i_i_glide_lignum>
1176

> <i_i_glide_posenum>
11

> <i_i_glide_rotatable_bonds>
6

> <i_m_Source_File_Index>
1080

> <b_m_subgroup_collapsed>
0

> <r_i_docking_score>
-5.08325

> <r_i_glide_ecoul>
-3.59938

> <r_i_glide_eff_state_penalty>
0

> <r_i_glide_einternal>
10.4123

> <r_i_glide_emodel>
-58.1908

> <r_i_glide_energy>
-48.9536

> <r_i_glide_erotb>
0.50275

> <r_i_glide_esite>
-0.1

> <r_i_glide_evdw>
-45.3542

> <r_i_glide_gscore>
-5.08325

> <r_i_glide_hbond>
-0.178038

> <r_i_glide_ligand_efficiency>
-0.154038

> <r_i_glide_ligand_efficiency_ln>
-1.13049

> <r_i_glide_ligand_efficiency_sa>
-0.494082

> <r_i_glide_lipo>
-2.99355

> <r_i_glide_metal>
0

> <r_i_glide_rewards>
0.493206

> <s_i_glide_gridfile>
wee1_glide-grid

> <s_m_Source_File>
wee1_decoys_glide_SP.sdf

> <s_m_Source_Path>
/Users/zhangxujun/Desktop

> <s_m_entry_id>
1355

> <s_m_entry_name>
wee1_decoys_glide_SP.1080

> <s_m_subgroup_title>
wee1_decoys_glide_SP

> <s_m_subgroupid>
wee1_decoys_glide_SP


$$$$
