ZINC65074704_242
                    3D
 Schrodinger Suite 2024-2.
 54 56  0  0  1  0            999 V2000
    1.7200   51.5322   28.4270 C   0  0  0  0  0  0
    0.4261   52.2073   27.9325 C   0  0  0  0  0  0
   -0.7760   51.4650   28.5479 C   0  0  0  0  0  0
    0.4080   53.6722   28.4083 C   0  0  0  0  0  0
    0.4491   52.1763   26.4560 N   0  0  0  0  0  0
   -0.5017   52.0715   25.5098 C   0  0  0  0  0  0
   -1.7980   51.9670   25.8304 N   0  3  0  0  0  0
   -2.8922   51.8107   24.8831 C   0  0  0  0  0  0
   -2.4230   52.2535   23.4957 C   0  0  0  0  0  0
   -1.1119   51.6873   23.2005 N   0  0  0  0  0  0
   -0.0038   52.1645   24.0461 C   0  0  0  0  0  0
    0.3820   53.6466   23.7419 C   0  0  0  0  0  0
    1.2788   53.8519   22.4970 C   0  0  0  0  0  0
    2.4025   52.9047   22.4682 N   0  0  0  0  0  0
    2.0284   51.4800   22.5174 C   0  0  0  0  0  0
    1.2112   51.2069   23.7978 C   0  0  0  0  0  0
    4.0934   53.4637   22.3518 S   0  0  0  0  0  0
    4.9496   52.3467   21.9397 O   0  0  0  0  0  0
    4.1180   54.7398   21.6395 O   0  0  0  0  0  0
    4.6042   53.8858   24.0159 C   0  0  0  0  0  0
    5.9128   54.3122   24.2380 C   0  0  0  0  0  0
    6.3279   54.6085   25.5344 C   0  0  0  0  0  0
    5.4263   54.5015   26.5924 C   0  0  0  0  0  0
    4.1204   54.0951   26.3709 C   0  0  0  0  0  0
    3.7183   53.7708   25.0868 C   0  0  0  0  0  0
    5.9044   54.8626   28.2050 Cl  0  0  0  0  0  0
    2.6152   52.0465   28.0732 H   0  0  0  0  0  0
    1.7739   51.5173   29.5158 H   0  0  0  0  0  0
    1.7921   50.5002   28.0819 H   0  0  0  0  0  0
   -1.7015   52.0289   28.4555 H   0  0  0  0  0  0
   -0.9281   50.4969   28.0794 H   0  0  0  0  0  0
   -0.6424   51.2899   29.6169 H   0  0  0  0  0  0
   -0.4957   54.1853   28.0836 H   0  0  0  0  0  0
    0.4405   53.7428   29.4977 H   0  0  0  0  0  0
    1.2579   54.2421   28.0239 H   0  0  0  0  0  0
    1.3780   52.2654   26.0733 H   0  0  0  0  0  0
   -3.7484   52.3951   25.2257 H   0  0  0  0  0  0
   -3.1790   50.7588   24.8855 H   0  0  0  0  0  0
   -2.4080   53.3422   23.4318 H   0  0  0  0  0  0
   -3.1399   51.9041   22.7523 H   0  0  0  0  0  0
   -1.1642   50.6781   23.1695 H   0  0  0  0  0  0
   -0.5107   54.2623   23.6823 H   0  0  0  0  0  0
    0.8729   54.0822   24.6030 H   0  0  0  0  0  0
    0.7166   53.6950   21.5755 H   0  0  0  0  0  0
    1.6671   54.8707   22.4791 H   0  0  0  0  0  0
    1.4631   51.2405   21.6156 H   0  0  0  0  0  0
    2.9289   50.8668   22.4817 H   0  0  0  0  0  0
    1.9046   51.2989   24.6201 H   0  0  0  0  0  0
    0.8992   50.1614   23.8192 H   0  0  0  0  0  0
    6.6114   54.3893   23.4156 H   0  0  0  0  0  0
    7.3473   54.8995   25.7136 H   0  0  0  0  0  0
    3.4310   54.0112   27.1971 H   0  0  0  0  0  0
    2.7329   53.3893   24.9450 H   0  0  0  0  0  0
   -2.0052   51.8788   26.8147 H   0  0  0  0  0  0
  1  2  1  0  0  0
  1 27  1  0  0  0
  1 28  1  0  0  0
  1 29  1  0  0  0
  2  3  1  0  0  0
  2  4  1  0  0  0
  2  5  1  0  0  0
  3 30  1  0  0  0
  3 31  1  0  0  0
  3 32  1  0  0  0
  4 33  1  0  0  0
  4 34  1  0  0  0
  4 35  1  0  0  0
  5  6  1  0  0  0
  5 36  1  0  0  0
  6 11  1  0  0  0
  6  7  2  0  0  0
  7  8  1  0  0  0
  7 54  1  0  0  0
  8  9  1  0  0  0
  8 37  1  0  0  0
  8 38  1  0  0  0
  9 10  1  0  0  0
  9 39  1  0  0  0
  9 40  1  0  0  0
 10 11  1  0  0  0
 10 41  1  0  0  0
 11 16  1  0  0  0
 11 12  1  0  0  0
 12 13  1  0  0  0
 12 42  1  0  0  0
 12 43  1  0  0  0
 13 14  1  0  0  0
 13 44  1  0  0  0
 13 45  1  0  0  0
 14 15  1  0  0  0
 14 17  1  0  0  0
 15 16  1  0  0  0
 15 46  1  0  0  0
 15 47  1  0  0  0
 16 48  1  0  0  0
 16 49  1  0  0  0
 17 18  2  0  0  0
 17 19  2  0  0  0
 17 20  1  0  0  0
 20 25  2  0  0  0
 20 21  1  0  0  0
 21 22  2  0  0  0
 21 50  1  0  0  0
 22 23  1  0  0  0
 22 51  1  0  0  0
 23 24  2  0  0  0
 23 26  1  0  0  0
 24 25  1  0  0  0
 24 52  1  0  0  0
 25 53  1  0  0  0
M  CHG  1   7   1
M  END
> <i_i_glide_confnum>
5

> <i_i_glide_lignum>
243

> <i_i_glide_posenum>
265

> <i_i_glide_rotatable_bonds>
4

> <i_m_Source_File_Index>
2523

> <b_m_subgroup_collapsed>
0

> <r_i_docking_score>
-2.11216

> <r_i_glide_ecoul>
1.68061

> <r_i_glide_eff_state_penalty>
0

> <r_i_glide_einternal>
3.71044

> <r_i_glide_emodel>
-22.9214

> <r_i_glide_energy>
-27.2965

> <r_i_glide_erotb>
0.367567

> <r_i_glide_esite>
-0.0236376

> <r_i_glide_evdw>
-28.9771

> <r_i_glide_gscore>
-2.11216

> <r_i_glide_hbond>
0

> <r_i_glide_ligand_efficiency>
-0.0812368

> <r_i_glide_ligand_efficiency_ln>
-0.496033

> <r_i_glide_ligand_efficiency_sa>
-0.240664

> <r_i_glide_lipo>
-2.5908

> <r_i_glide_metal>
0

> <r_i_glide_rewards>
1.33148

> <s_i_glide_gridfile>
wee1_glide-grid

> <s_m_Source_File>
wee1_decoys_glide_SP.sdf

> <s_m_Source_Path>
/Users/zhangxujun/Desktop

> <s_m_entry_id>
2798

> <s_m_entry_name>
wee1_decoys_glide_SP.2523

> <s_m_subgroup_title>
wee1_decoys_glide_SP

> <s_m_subgroupid>
wee1_decoys_glide_SP


$$$$
