ZINC35867013_5599
                    3D
 Schrodinger Suite 2024-2.
 71 75  0  0  1  0            999 V2000
   -3.6931   52.5077   25.1435 C   0  0  0  0  0  0
   -3.8002   51.7552   26.4834 C   0  0  0  0  0  0
   -2.6948   50.7043   26.7657 C   0  0  1  0  0  0
   -2.9143   50.2753   27.7463 H   0  0  0  0  0  0
   -2.7540   49.5070   25.7912 C   0  0  0  0  0  0
   -1.3026   51.3372   26.8706 C   0  0  0  0  0  0
   -0.6061   51.4948   25.7212 N   0  0  0  0  0  0
    0.6207   52.0788   25.7853 C   0  0  0  0  0  0
    1.1629   52.4969   27.0390 C   0  0  0  0  0  0
    2.4129   53.0816   27.4589 C   0  0  0  0  0  0
    2.4828   53.1995   28.8528 C   0  0  0  0  0  0
    1.0326   52.7091   29.6862 S   0  0  0  0  0  0
    0.3124   52.2511   28.1642 C   0  0  0  0  0  0
   -0.9012   51.7009   28.1111 N   0  0  0  0  0  0
    3.7185   53.6238   29.6356 C   0  0  0  0  0  0
    4.7391   54.2854   28.6931 C   0  0  0  0  0  0
    4.8906   53.5217   27.3721 C   0  0  0  0  0  0
    3.5742   53.5256   26.5669 C   0  0  0  0  0  0
    1.2742   52.2440   24.5626 N   0  0  0  0  0  0
    1.2972   53.6103   24.0041 C   0  0  0  0  0  0
    1.6914   53.7769   22.5102 C   0  0  0  0  0  0
    2.5857   52.6774   22.0956 N   0  0  0  0  0  0
    2.1081   51.3043   22.3512 C   0  0  0  0  0  0
    1.0473   51.2682   23.4810 C   0  0  0  0  0  0
    3.8483   52.8815   21.6310 C   0  0  0  0  0  0
    4.7353   52.0250   21.6812 O   0  0  0  0  0  0
    4.0573   54.1047   21.1006 N   0  0  0  0  0  0
    5.2998   54.6431   20.7484 C   0  0  0  0  0  0
    5.5119   54.9575   19.4062 C   0  0  0  0  0  0
    6.7280   55.5003   19.0020 C   0  0  0  0  0  0
    7.7372   55.7613   19.9387 C   0  0  0  0  0  0
    7.5021   55.4757   21.2830 C   0  0  0  0  0  0
    6.2950   54.8963   21.7075 C   0  0  0  0  0  0
    6.0256   54.5583   23.0203 O   0  0  0  0  0  0
    7.1006   54.4446   23.9368 C   0  0  0  0  0  0
    8.9724   56.2933   19.6305 O   0  0  0  0  0  0
    9.3160   56.5160   18.2675 C   0  0  0  0  0  0
   -4.5291   53.1989   25.0211 H   0  0  0  0  0  0
   -2.7785   53.0967   25.0852 H   0  0  0  0  0  0
   -3.7082   51.8275   24.2926 H   0  0  0  0  0  0
   -4.7741   51.2657   26.5350 H   0  0  0  0  0  0
   -3.8043   52.4905   27.2876 H   0  0  0  0  0  0
   -2.0189   48.7484   26.0643 H   0  0  0  0  0  0
   -3.7317   49.0278   25.8132 H   0  0  0  0  0  0
   -2.5536   49.8039   24.7633 H   0  0  0  0  0  0
    4.1755   52.7463   30.0961 H   0  0  0  0  0  0
    3.4622   54.3141   30.4389 H   0  0  0  0  0  0
    5.7044   54.3858   29.1931 H   0  0  0  0  0  0
    4.4096   55.2968   28.4728 H   0  0  0  0  0  0
    5.2092   52.4990   27.5691 H   0  0  0  0  0  0
    5.6833   53.9770   26.7841 H   0  0  0  0  0  0
    3.3910   54.5362   26.2038 H   0  0  0  0  0  0
    3.6861   52.8965   25.6867 H   0  0  0  0  0  0
    0.3335   54.0950   24.1665 H   0  0  0  0  0  0
    2.0611   54.1410   24.5672 H   0  0  0  0  0  0
    0.8002   53.6584   21.8988 H   0  0  0  0  0  0
    2.0618   54.7843   22.3279 H   0  0  0  0  0  0
    2.9453   50.7118   22.7216 H   0  0  0  0  0  0
    1.7283   50.8279   21.4465 H   0  0  0  0  0  0
    0.9730   50.2585   23.8850 H   0  0  0  0  0  0
    0.0800   51.5273   23.0437 H   0  0  0  0  0  0
    3.2504   54.6880   20.9406 H   0  0  0  0  0  0
    4.7423   54.7635   18.6709 H   0  0  0  0  0  0
    6.8700   55.7101   17.9522 H   0  0  0  0  0  0
    8.2893   55.6960   21.9906 H   0  0  0  0  0  0
    6.7452   53.9724   24.8482 H   0  0  0  0  0  0
    7.9031   53.8098   23.5469 H   0  0  0  0  0  0
    7.4923   55.4263   24.2011 H   0  0  0  0  0  0
   10.3318   56.9046   18.2125 H   0  0  0  0  0  0
    9.2866   55.5883   17.6931 H   0  0  0  0  0  0
    8.6550   57.2470   17.8015 H   0  0  0  0  0  0
  1  2  1  0  0  0
  1 38  1  0  0  0
  1 39  1  0  0  0
  1 40  1  0  0  0
  2  3  1  0  0  0
  2 41  1  0  0  0
  2 42  1  0  0  0
  3  4  1  0  0  0
  3  5  1  0  0  0
  3  6  1  0  0  0
  5 43  1  0  0  0
  5 44  1  0  0  0
  5 45  1  0  0  0
  6 14  2  0  0  0
  6  7  1  0  0  0
  7  8  2  0  0  0
  8  9  1  0  0  0
  8 19  1  0  0  0
  9 13  2  0  0  0
  9 10  1  0  0  0
 10 18  1  0  0  0
 10 11  2  0  0  0
 11 12  1  0  0  0
 11 15  1  0  0  0
 12 13  1  0  0  0
 13 14  1  0  0  0
 15 16  1  0  0  0
 15 46  1  0  0  0
 15 47  1  0  0  0
 16 17  1  0  0  0
 16 48  1  0  0  0
 16 49  1  0  0  0
 17 18  1  0  0  0
 17 50  1  0  0  0
 17 51  1  0  0  0
 18 52  1  0  0  0
 18 53  1  0  0  0
 19 24  1  0  0  0
 19 20  1  0  0  0
 20 21  1  0  0  0
 20 54  1  0  0  0
 20 55  1  0  0  0
 21 22  1  0  0  0
 21 56  1  0  0  0
 21 57  1  0  0  0
 22 23  1  0  0  0
 22 25  1  0  0  0
 23 24  1  0  0  0
 23 58  1  0  0  0
 23 59  1  0  0  0
 24 60  1  0  0  0
 24 61  1  0  0  0
 25 26  2  0  0  0
 25 27  1  0  0  0
 27 28  1  0  0  0
 27 62  1  0  0  0
 28 33  2  0  0  0
 28 29  1  0  0  0
 29 30  2  0  0  0
 29 63  1  0  0  0
 30 31  1  0  0  0
 30 64  1  0  0  0
 31 32  2  0  0  0
 31 36  1  0  0  0
 32 33  1  0  0  0
 32 65  1  0  0  0
 33 34  1  0  0  0
 34 35  1  0  0  0
 35 66  1  0  0  0
 35 67  1  0  0  0
 35 68  1  0  0  0
 36 37  1  0  0  0
 37 69  1  0  0  0
 37 70  1  0  0  0
 37 71  1  0  0  0
M  END
> <i_i_glide_confnum>
561

> <i_i_glide_lignum>
5600

> <i_i_glide_posenum>
281

> <i_i_glide_rotatable_bonds>
8

> <i_m_Source_File_Index>
73

> <b_m_subgroup_collapsed>
0

> <r_i_docking_score>
-6.01639

> <r_i_glide_ecoul>
-3.424

> <r_i_glide_eff_state_penalty>
0

> <r_i_glide_einternal>
11.4236

> <r_i_glide_emodel>
-63.5538

> <r_i_glide_energy>
-52.1012

> <r_i_glide_erotb>
0.39424

> <r_i_glide_esite>
-0.0663662

> <r_i_glide_evdw>
-48.6772

> <r_i_glide_gscore>
-6.01639

> <r_i_glide_hbond>
-0.271198

> <r_i_glide_ligand_efficiency>
-0.167122

> <r_i_glide_ligand_efficiency_ln>
-1.31261

> <r_i_glide_ligand_efficiency_sa>
-0.551824

> <r_i_glide_lipo>
-2.70922

> <r_i_glide_metal>
0

> <r_i_glide_rewards>
-0.41638

> <s_i_glide_gridfile>
wee1_glide-grid

> <s_m_Source_File>
wee1_decoys_glide_SP.sdf

> <s_m_Source_Path>
/Users/zhangxujun/Desktop

> <s_m_entry_id>
348

> <s_m_entry_name>
wee1_decoys_glide_SP.73

> <s_m_subgroup_title>
wee1_decoys_glide_SP

> <s_m_subgroupid>
wee1_decoys_glide_SP


$$$$
