@<TRIPOS>MOLECULE
ZINC32217780_731
66   69    1
SMALL
USER_CHARGES


@<TRIPOS>ATOM
      1 C1          6.8374   55.4584   26.0446 C.3       1 UNK         0.0000 
      2 C2          5.5623   54.7447   26.3780 C.ar      1 UNK         0.0000 
      3 C3          4.7398   54.3484   25.3363 C.ar      1 UNK         0.0000 
      4 C4          3.5553   53.6967   25.6194 C.ar      1 UNK         0.0000 
      5 C5          3.1586   53.4395   26.9334 C.ar      1 UNK         0.0000 
      6 C6          3.9896   53.8465   27.9939 C.ar      1 UNK         0.0000 
      7 C7          5.1940   54.4967   27.7039 C.ar      1 UNK         0.0000 
      8 C8          3.6120   53.6106   29.4482 C.3       1 UNK         0.0000 
      9 S9          1.5888   52.6115   27.2076 S.o2      1 UNK         0.0000 
     10 O10         0.7034   53.6598   27.7185 O.2       1 UNK         0.0000 
     11 O11         1.8734   51.4315   28.0337 O.2       1 UNK         0.0000 
     12 N12         1.0096   52.0822   25.5946 N.pl3     1 UNK         0.0000 
     13 C13         0.6756   50.6657   25.3301 C.3       1 UNK         0.0000 
     14 C14         1.2250   50.2248   23.9524 C.3       1 UNK         0.0000 
     15 C15         0.9205   51.2480   22.8154 C.3       1 UNK         0.0000 
     16 C16         0.8499   52.7620   23.1937 C.3       1 UNK         0.0000 
     17 C17         0.4086   53.0480   24.6475 C.3       1 UNK         0.0000 
     18 C18         1.7381   50.9441   21.5340 C.2       1 UNK         0.0000 
     19 O19         1.6694   49.8276   21.0223 O.2       1 UNK         0.0000 
     20 N20         2.5536   51.9075   21.0634 N.am      1 UNK         0.0000 
     21 C21         3.4787   51.8056   19.9334 C.3       1 UNK         0.0000 
     22 C22         3.0367   52.6370   18.6881 C.3       1 UNK         0.0000 
     23 H23         2.0901   53.1479   18.8819 H         1 UNK         0.0000 
     24 C24         4.1042   53.6208   18.2166 C.2       1 UNK         0.0000 
     25 C25         5.4878   53.4538   18.1170 C.2       1 UNK         0.0000 
     26 C26         6.1796   54.5781   17.6605 C.2       1 UNK         0.0000 
     27 C27         5.3358   55.6371   17.3816 C.2       1 UNK         0.0000 
     28 S28         3.6816   55.2304   17.6822 S.3       1 UNK         0.0000 
     29 N29         2.7044   51.6934   17.5028 N.4       1 UNK         0.0000 
     30 C30         1.5919   50.6630   17.7728 C.3       1 UNK         0.0000 
     31 C31         1.1890   50.1754   16.3840 C.3       1 UNK         0.0000 
     32 C32         1.4946   51.3154   15.4117 C.3       1 UNK         0.0000 
     33 C33         2.2467   52.3883   16.2034 C.3       1 UNK         0.0000 
     34 H34         7.1043   56.0926   26.8794 H         1 UNK         0.0000 
     35 H35         7.6056   54.7179   25.8423 H         1 UNK         0.0000 
     36 H36         6.7225   56.0972   25.1683 H         1 UNK         0.0000 
     37 H37         5.0223   54.5279   24.3092 H         1 UNK         0.0000 
     38 H38         2.9758   53.3719   24.7857 H         1 UNK         0.0000 
     39 H39         5.8435   54.8192   28.5063 H         1 UNK         0.0000 
     40 H40         4.2783   54.1355   30.1328 H         1 UNK         0.0000 
     41 H41         2.5981   53.9639   29.6400 H         1 UNK         0.0000 
     42 H42         3.6432   52.5460   29.6780 H         1 UNK         0.0000 
     43 H43        -0.4114   50.5719   25.3338 H         1 UNK         0.0000 
     44 H44         1.0432   50.0322   26.1381 H         1 UNK         0.0000 
     45 H45         0.8168   49.2370   23.7299 H         1 UNK         0.0000 
     46 H46         2.3047   50.1523   24.0817 H         1 UNK         0.0000 
     47 H47        -0.1031   50.9858   22.5423 H         1 UNK         0.0000 
     48 H48         1.8371   53.2089   23.1279 H         1 UNK         0.0000 
     49 H49         0.1954   53.2965   22.5172 H         1 UNK         0.0000 
     50 H50        -0.6770   52.9625   24.7235 H         1 UNK         0.0000 
     51 H51         0.7044   54.0612   24.9241 H         1 UNK         0.0000 
     52 H52         2.5692   52.7852   21.5598 H         1 UNK         0.0000 
     53 H53         3.6802   50.7627   19.6819 H         1 UNK         0.0000 
     54 H54         4.4488   52.1484   20.2956 H         1 UNK         0.0000 
     55 H55         5.9818   52.5248   18.3694 H         1 UNK         0.0000 
     56 H56         7.2524   54.6127   17.5333 H         1 UNK         0.0000 
     57 H57         5.5966   56.6190   17.0107 H         1 UNK         0.0000 
     58 H58         1.9902   49.8805   18.4187 H         1 UNK         0.0000 
     59 H59         0.7941   51.1924   18.2962 H         1 UNK         0.0000 
     60 H60         1.7748   49.2910   16.1265 H         1 UNK         0.0000 
     61 H61         0.1390   49.8830   16.3547 H         1 UNK         0.0000 
     62 H62         0.5795   51.7266   14.9834 H         1 UNK         0.0000 
     63 H63         2.1028   50.9577   14.5794 H         1 UNK         0.0000 
     64 H64         1.5913   53.2073   16.5059 H         1 UNK         0.0000 
     65 H65         3.1284   52.7969   15.7064 H         1 UNK         0.0000 
     66 H66         3.5503   51.1586   17.3062 H         1 UNK         0.0000 
@<TRIPOS>BOND
     1    1    2 1    
     2    1   34 1    
     3    1   35 1    
     4    1   36 1    
     5    2    7 ar   
     6    2    3 ar   
     7    3    4 ar   
     8    3   37 1    
     9    4    5 ar   
    10    4   38 1    
    11    5    6 ar   
    12    5    9 1    
    13    6    7 ar   
    14    6    8 1    
    15    7   39 1    
    16    8   40 1    
    17    8   41 1    
    18    8   42 1    
    19    9   10 2    
    20    9   11 2    
    21    9   12 1    
    22   12   17 1    
    23   12   13 1    
    24   13   14 1    
    25   13   43 1    
    26   13   44 1    
    27   14   15 1    
    28   14   45 1    
    29   14   46 1    
    30   15   16 1    
    31   15   18 1    
    32   15   47 1    
    33   16   17 1    
    34   16   48 1    
    35   16   49 1    
    36   17   50 1    
    37   17   51 1    
    38   18   19 2    
    39   18   20 am   BACKBONE|DICT|INTERRES
    40   20   21 1    
    41   20   52 1    
    42   21   22 1    
    43   21   53 1    
    44   21   54 1    
    45   22   23 1    
    46   22   24 1    
    47   22   29 1    
    48   24   28 1    
    49   24   25 2    
    50   25   26 1    
    51   25   55 1    
    52   26   27 2    
    53   26   56 1    
    54   27   28 1    
    55   27   57 1    
    56   29   33 1    
    57   29   30 1    
    58   29   66 1    
    59   30   31 1    
    60   30   58 1    
    61   30   59 1    
    62   31   32 1    
    63   31   60 1    
    64   31   61 1    
    65   32   33 1    
    66   32   62 1    
    67   32   63 1    
    68   33   64 1    
    69   33   65 1    
@<TRIPOS>SUBSTRUCTURE
     1 UNK         1 GROUP             0       ****    0 ROOT    
