@<TRIPOS>MOLECULE
ZINC64182193_239
53   56    1
SMALL
USER_CHARGES


@<TRIPOS>ATOM
      1 C1          3.0175   51.9897   19.7502 C.3       1 UNK         0.0000 
      2 C2          4.0360   53.0058   20.2593 C.ar      1 UNK         0.0000 
      3 C3          4.2634   53.0714   21.6341 C.ar      1 UNK         0.0000 
      4 C4          5.1329   54.0209   22.1764 C.ar      1 UNK         0.0000 
      5 C5          5.7966   54.8967   21.3161 C.ar      1 UNK         0.0000 
      6 C6          5.5804   54.8591   19.9355 C.ar      1 UNK         0.0000 
      7 C7          4.7074   53.8914   19.3911 C.ar      1 UNK         0.0000 
      8 C8          4.4848   53.7770   17.8832 C.3       1 UNK         0.0000 
      9 S9          6.4369   56.0959   18.9421 S.o2      1 UNK         0.0000 
     10 O10         7.3146   55.3837   18.0103 O.2       1 UNK         0.0000 
     11 O11         6.9743   57.1055   19.8609 O.2       1 UNK         0.0000 
     12 N12         5.2075   56.8947   17.9981 N.pl3     1 UNK         0.0000 
     13 C13         5.3936   54.0993   23.6603 C.2       1 UNK         0.0000 
     14 O14         6.5658   54.0963   24.0433 O.2       1 UNK         0.0000 
     15 N15         4.3393   54.2116   24.5200 N.am      1 UNK         0.0000 
     16 C16         2.9497   54.4923   24.0937 C.3       1 UNK         0.0000 
     17 C17         2.0267   53.4201   24.7214 C.3       1 UNK         0.0000 
     18 C18         2.2550   53.2968   26.2261 C.2       1 UNK         0.0000 
     19 C19         3.4327   53.6964   26.7572 C.2       1 UNK         0.0000 
     20 C20         4.6184   54.2583   25.9758 C.3       1 UNK         0.0000 
     21 C21         1.2251   52.6855   27.0645 C.2       1 UNK         0.0000 
     22 C22         0.8523   53.0577   28.3055 C.2       1 UNK         0.0000 
     23 C23         1.2355   54.1980   29.1554 C.2       1 UNK         0.0000 
     24 C24         0.7731   54.3016   30.4168 C.2       1 UNK         0.0000 
     25 C25        -0.0955   53.2453   30.9127 C.2       1 UNK         0.0000 
     26 C26        -0.4876   52.2033   30.1319 C.2       1 UNK         0.0000 
     27 C27        -0.0315   52.0976   28.8151 C.2       1 UNK         0.0000 
     28 N28        -0.2871   51.1679   27.9228 N.pl3     1 UNK         0.0000 
     29 C29         0.4725   51.4273   26.6886 C.3       1 UNK         0.0000 
     30 H30         2.3982   51.5877   20.5522 H         1 UNK         0.0000 
     31 H31         2.3349   52.4627   19.0425 H         1 UNK         0.0000 
     32 H32         3.5043   51.1607   19.2371 H         1 UNK         0.0000 
     33 H33         3.7482   52.3794   22.2860 H         1 UNK         0.0000 
     34 H34         6.4800   55.6225   21.7346 H         1 UNK         0.0000 
     35 H35         4.2988   52.7434   17.5839 H         1 UNK         0.0000 
     36 H36         3.6360   54.3878   17.5723 H         1 UNK         0.0000 
     37 H37         5.3596   54.0679   17.3057 H         1 UNK         0.0000 
     38 H38         5.2262   57.9162   18.0792 H         1 UNK         0.0000 
     39 H39         5.1827   56.5825   17.0246 H         1 UNK         0.0000 
     40 H40         2.6857   55.4738   24.4813 H         1 UNK         0.0000 
     41 H41         2.8085   54.5685   23.0173 H         1 UNK         0.0000 
     42 H42         0.9815   53.6493   24.5104 H         1 UNK         0.0000 
     43 H43         2.2271   52.4540   24.2567 H         1 UNK         0.0000 
     44 H44         3.5831   53.5635   27.8192 H         1 UNK         0.0000 
     45 H45         5.5449   53.7462   26.2441 H         1 UNK         0.0000 
     46 H46         4.7672   55.2952   26.2799 H         1 UNK         0.0000 
     47 H47         1.8692   54.9927   28.7855 H         1 UNK         0.0000 
     48 H48         1.0261   55.1485   31.0405 H         1 UNK         0.0000 
     49 H49        -0.4486   53.2936   31.9356 H         1 UNK         0.0000 
     50 H50        -1.1337   51.4491   30.5663 H         1 UNK         0.0000 
     51 H51        -0.2420   51.5578   25.8753 H         1 UNK         0.0000 
     52 H52         1.1032   50.5601   26.5074 H         1 UNK         0.0000 
     53 H53        -0.8806   50.3462   28.0696 H         1 UNK         0.0000 
@<TRIPOS>BOND
     1    1    2 1    
     2    1   30 1    
     3    1   31 1    
     4    1   32 1    
     5    2    7 ar   
     6    2    3 ar   
     7    3    4 ar   
     8    3   33 1    
     9    4    5 ar   
    10    4   13 1    
    11    5    6 ar   
    12    5   34 1    
    13    6    7 ar   
    14    6    9 1    
    15    7    8 1    
    16    8   35 1    
    17    8   36 1    
    18    8   37 1    
    19    9   10 2    
    20    9   11 2    
    21    9   12 1    
    22   12   38 1    
    23   12   39 1    
    24   13   14 2    
    25   13   15 am   BACKBONE|DICT|INTERRES
    26   15   20 1    
    27   15   16 1    
    28   16   17 1    
    29   16   40 1    
    30   16   41 1    
    31   17   18 1    
    32   17   42 1    
    33   17   43 1    
    34   18   19 2    
    35   18   21 1    
    36   19   20 1    
    37   19   44 1    
    38   20   45 1    
    39   20   46 1    
    40   21   29 1    
    41   21   22 2    
    42   22   27 1    
    43   22   23 1    
    44   23   24 2    
    45   23   47 1    
    46   24   25 1    
    47   24   48 1    
    48   25   26 2    
    49   25   49 1    
    50   26   27 1    
    51   26   50 1    
    52   27   28 2    
    53   28   29 1    
    54   28   53 1    
    55   29   51 1    
    56   29   52 1    
@<TRIPOS>SUBSTRUCTURE
     1 UNK         1 GROUP             0       ****    0 ROOT    
