@<TRIPOS>MOLECULE
ZINC04964122_4107
71   74    1
SMALL
USER_CHARGES


@<TRIPOS>ATOM
      1 C1         -1.7567   53.1579   23.8094 C.3       1 UNK         0.0000 
      2 C2         -1.4099   51.6696   23.5777 C.3       1 UNK         0.0000 
      3 H3         -0.6771   51.6928   22.7678 H         1 UNK         0.0000 
      4 C4         -2.6087   50.8528   23.0316 C.3       1 UNK         0.0000 
      5 C5         -2.7537   49.6738   23.9918 C.3       1 UNK         0.0000 
      6 H6         -3.2539   50.1023   24.8558 H         1 UNK         0.0000 
      7 C7         -3.5830   48.4093   23.5857 C.3       1 UNK         0.0000 
      8 H8         -3.0538   47.9368   22.7590 H         1 UNK         0.0000 
      9 C9         -5.0035   48.6959   23.0524 C.3       1 UNK         0.0000 
     10 C10        -5.9262   49.3727   24.0933 C.3       1 UNK         0.0000 
     11 H11        -6.9471   49.0062   23.9772 H         1 UNK         0.0000 
     12 C12        -5.4496   49.1207   25.5390 C.2       1 UNK         0.0000 
     13 C13        -5.4998   50.0983   26.4833 C.2       1 UNK         0.0000 
     14 C14        -5.0221   49.9872   27.8578 C.2       1 UNK         0.0000 
     15 O15        -5.0725   50.9147   28.6652 O.2       1 UNK         0.0000 
     16 C16        -4.4956   48.6697   28.1758 C.2       1 UNK         0.0000 
     17 C17        -4.4181   47.6535   27.2914 C.2       1 UNK         0.0000 
     18 C18        -4.8506   47.6988   25.8124 C.3       1 UNK         0.0000 
     19 C19        -3.6691   47.3571   24.7551 C.3       1 UNK         0.0000 
     20 C20        -2.2127   47.0853   25.3028 C.3       1 UNK         0.0000 
     21 H21        -1.6575   46.6206   24.4905 H         1 UNK         0.0000 
     22 C22        -1.4714   48.3919   25.6811 C.3       1 UNK         0.0000 
     23 C23        -1.3120   49.3645   24.4690 C.3       1 UNK         0.0000 
     24 C24        -0.7614   50.8286   24.7550 C.3       1 UNK         0.0000 
     25 C25        -1.1637   51.3421   26.1943 C.2       1 UNK         0.0000 
     26 O26        -2.2906   51.7768   26.4380 O.2       1 UNK         0.0000 
     27 C27        -0.1481   51.2719   27.3459 C.3       1 UNK         0.0000 
     28 O28         0.7131   52.4081   27.3152 O.3       1 UNK         0.0000 
     29 C29         1.7514   52.5208   28.1823 C.2       1 UNK         0.0000 
     30 O30         2.0301   51.6968   29.0580 O.2       1 UNK         0.0000 
     31 C31         2.5816   53.8224   27.9794 C.3       1 UNK         0.0000 
     32 C32         3.9103   53.7662   28.7814 C.3       1 UNK         0.0000 
     33 C33         1.7544   55.0262   28.4944 C.3       1 UNK         0.0000 
     34 C34         2.9239   54.0212   26.4795 C.3       1 UNK         0.0000 
     35 O35         0.6622   50.9090   24.6810 O.3       1 UNK         0.0000 
     36 C36        -0.4363   48.6869   23.3565 C.3       1 UNK         0.0000 
     37 O37        -2.0959   46.0979   26.3110 O.3       1 UNK         0.0000 
     38 F38        -3.9823   46.1982   24.1546 F         1 UNK         0.0000 
     39 C39        -6.0286   46.6891   25.7199 C.3       1 UNK         0.0000 
     40 F40        -5.9470   50.6886   23.8580 F         1 UNK         0.0000 
     41 H41        -2.5691   53.2958   24.5231 H         1 UNK         0.0000 
     42 H42        -0.8878   53.7129   24.1652 H         1 UNK         0.0000 
     43 H43        -2.0952   53.6274   22.8843 H         1 UNK         0.0000 
     44 H44        -3.5326   51.4141   22.8808 H         1 UNK         0.0000 
     45 H45        -2.3377   50.4551   22.0521 H         1 UNK         0.0000 
     46 H46        -4.9488   49.3330   22.1696 H         1 UNK         0.0000 
     47 H47        -5.4611   47.7628   22.7216 H         1 UNK         0.0000 
     48 H48        -5.9132   51.0548   26.1991 H         1 UNK         0.0000 
     49 H49        -4.1238   48.4943   29.1761 H         1 UNK         0.0000 
     50 H50        -4.0173   46.7295   27.6811 H         1 UNK         0.0000 
     51 H51        -0.4952   48.1633   26.1058 H         1 UNK         0.0000 
     52 H52        -2.0405   48.8708   26.4789 H         1 UNK         0.0000 
     53 H53         0.4195   50.3430   27.2691 H         1 UNK         0.0000 
     54 H54        -0.6910   51.2363   28.2916 H         1 UNK         0.0000 
     55 H55         4.4877   54.6836   28.6564 H         1 UNK         0.0000 
     56 H56         4.5480   52.9458   28.4478 H         1 UNK         0.0000 
     57 H57         3.7404   53.6428   29.8525 H         1 UNK         0.0000 
     58 H58         0.8093   55.1373   27.9600 H         1 UNK         0.0000 
     59 H59         1.5204   54.9354   29.5575 H         1 UNK         0.0000 
     60 H60         2.2985   55.9644   28.3722 H         1 UNK         0.0000 
     61 H61         2.0322   54.0955   25.8547 H         1 UNK         0.0000 
     62 H62         3.5021   54.9328   26.3224 H         1 UNK         0.0000 
     63 H63         3.5225   53.1961   26.0902 H         1 UNK         0.0000 
     64 H64         1.0215   50.0494   24.9195 H         1 UNK         0.0000 
     65 H65        -0.8929   47.8176   22.8890 H         1 UNK         0.0000 
     66 H66        -0.2037   49.3710   22.5396 H         1 UNK         0.0000 
     67 H67         0.5200   48.3550   23.7647 H         1 UNK         0.0000 
     68 H68        -1.5584   46.4827   27.0175 H         1 UNK         0.0000 
     69 H69        -6.8423   46.9528   26.3980 H         1 UNK         0.0000 
     70 H70        -6.4520   46.6421   24.7176 H         1 UNK         0.0000 
     71 H71        -5.7087   45.6794   25.9785 H         1 UNK         0.0000 
@<TRIPOS>BOND
     1    1    2 1    
     2    1   41 1    
     3    1   42 1    
     4    1   43 1    
     5    2    3 1    
     6    2   24 1    
     7    2    4 1    
     8    4    5 1    
     9    4   44 1    
    10    4   45 1    
    11    5    6 1    
    12    5   23 1    
    13    5    7 1    
    14    7    8 1    
    15    7   19 1    
    16    7    9 1    
    17    9   10 1    
    18    9   46 1    
    19    9   47 1    
    20   10   11 1    
    21   10   12 1    
    22   10   40 1    
    23   12   18 1    
    24   12   13 2    
    25   13   14 1    
    26   13   48 1    
    27   14   15 2    
    28   14   16 1    
    29   16   17 2    
    30   16   49 1    
    31   17   18 1    
    32   17   50 1    
    33   18   19 1    
    34   18   39 1    
    35   19   20 1    
    36   19   38 1    
    37   20   21 1    
    38   20   22 1    
    39   20   37 1    
    40   22   23 1    
    41   22   51 1    
    42   22   52 1    
    43   23   24 1    
    44   23   36 1    
    45   24   25 1    
    46   24   35 1    
    47   25   26 2    
    48   25   27 1    
    49   27   28 1    
    50   27   53 1    
    51   27   54 1    
    52   28   29 1    
    53   29   30 2    
    54   29   31 1    
    55   31   32 1    
    56   31   33 1    
    57   31   34 1    
    58   32   55 1    
    59   32   56 1    
    60   32   57 1    
    61   33   58 1    
    62   33   59 1    
    63   33   60 1    
    64   34   61 1    
    65   34   62 1    
    66   34   63 1    
    67   35   64 1    
    68   36   65 1    
    69   36   66 1    
    70   36   67 1    
    71   37   68 1    
    72   39   69 1    
    73   39   70 1    
    74   39   71 1    
@<TRIPOS>SUBSTRUCTURE
     1 UNK         1 GROUP             0       ****    0 ROOT    
