@<TRIPOS>MOLECULE
ZINC20841848_4574
40   41    1
SMALL
USER_CHARGES


@<TRIPOS>ATOM
      1 C1          7.9195   58.0695   18.0924 C.3       1 UNK         0.0000 
      2 C2          7.1806   56.7789   17.6491 C.3       1 UNK         0.0000 
      3 C3          6.0649   57.1947   16.6629 C.3       1 UNK         0.0000 
      4 C4          8.2088   55.8694   16.9383 C.3       1 UNK         0.0000 
      5 C5          6.5729   56.0455   18.8626 C.ar      1 UNK         0.0000 
      6 N6          6.6718   56.4579   20.1065 N.2       1 UNK         0.0000 
      7 N7          6.0121   55.5399   20.9100 N.2       1 UNK         0.0000 
      8 C8          5.5180   54.6082   20.1305 C.ar      1 UNK         0.0000 
      9 N9          5.8438   54.8662   18.8188 N.pl3     1 UNK         0.0000 
     10 N10         5.5113   54.0890   17.7233 N.3       1 UNK         0.0000 
     11 S11         4.6172   53.1908   20.6846 S.3       1 UNK         0.0000 
     12 C12         3.6708   53.9483   22.0505 C.3       1 UNK         0.0000 
     13 C13         4.3971   53.9547   23.4032 C.2       1 UNK         0.0000 
     14 O14         5.6194   53.8209   23.4487 O.2       1 UNK         0.0000 
     15 N15         3.5994   54.1012   24.4855 N.am      1 UNK         0.0000 
     16 C16         3.9444   54.1013   25.8543 C.ar      1 UNK         0.0000 
     17 C17         2.8788   54.0963   26.7639 C.ar      1 UNK         0.0000 
     18 C18         3.1189   54.0714   28.1387 C.ar      1 UNK         0.0000 
     19 C19         4.4251   54.0198   28.6179 C.ar      1 UNK         0.0000 
     20 C20         5.4940   54.0032   27.7227 C.ar      1 UNK         0.0000 
     21 C21         5.2606   54.0793   26.3512 C.ar      1 UNK         0.0000 
     22 Cl22        7.1044   53.8353   28.3070 Cl        1 UNK         0.0000 
     23 Cl23        1.7978   54.0881   29.2463 Cl        1 UNK         0.0000 
     24 H24         8.3541   58.6009   17.2455 H         1 UNK         0.0000 
     25 H25         8.7283   57.8487   18.7887 H         1 UNK         0.0000 
     26 H26         7.2454   58.7640   18.5954 H         1 UNK         0.0000 
     27 H27         5.5443   56.3323   16.2426 H         1 UNK         0.0000 
     28 H28         5.3115   57.8119   17.1550 H         1 UNK         0.0000 
     29 H29         6.4614   57.7695   15.8249 H         1 UNK         0.0000 
     30 H30         7.7472   54.9776   16.5150 H         1 UNK         0.0000 
     31 H31         8.7112   56.3890   16.1219 H         1 UNK         0.0000 
     32 H32         8.9793   55.5262   17.6318 H         1 UNK         0.0000 
     33 H33         5.8569   53.1397   17.8107 H         1 UNK         0.0000 
     34 H34         4.5194   54.1149   17.5454 H         1 UNK         0.0000 
     35 H35         3.3749   54.9596   21.7778 H         1 UNK         0.0000 
     36 H36         2.7513   53.3700   22.1459 H         1 UNK         0.0000 
     37 H37         2.6162   54.1938   24.2971 H         1 UNK         0.0000 
     38 H38         1.8576   54.0966   26.4138 H         1 UNK         0.0000 
     39 H39         4.6106   53.9802   29.6796 H         1 UNK         0.0000 
     40 H40         6.1191   54.0695   25.7038 H         1 UNK         0.0000 
@<TRIPOS>BOND
     1    1    2 1    
     2    1   24 1    
     3    1   25 1    
     4    1   26 1    
     5    2    3 1    
     6    2    4 1    
     7    2    5 1    
     8    3   27 1    
     9    3   28 1    
    10    3   29 1    
    11    4   30 1    
    12    4   31 1    
    13    4   32 1    
    14    5    9 ar   
    15    5    6 ar   
    16    6    7 ar   
    17    7    8 ar   
    18    8    9 ar   
    19    8   11 1    
    20    9   10 1    
    21   10   33 1    
    22   10   34 1    
    23   11   12 1    
    24   12   13 1    
    25   12   35 1    
    26   12   36 1    
    27   13   14 2    
    28   13   15 am   BACKBONE|DICT|INTERRES
    29   15   16 1    
    30   15   37 1    
    31   16   21 ar   
    32   16   17 ar   
    33   17   18 ar   
    34   17   38 1    
    35   18   19 ar   
    36   18   23 1    
    37   19   20 ar   
    38   19   39 1    
    39   20   21 ar   
    40   20   22 1    
    41   21   40 1    
@<TRIPOS>SUBSTRUCTURE
     1 UNK         1 GROUP             0       ****    0 ROOT    
