@<TRIPOS>MOLECULE
ZINC39652722_4897
75   78    1
SMALL
USER_CHARGES


@<TRIPOS>ATOM
      1 C1          3.0500   51.5576   20.7504 C.3       1 UNK         0.0000 
      2 C2          2.3463   52.7609   21.4071 C.3       1 UNK         0.0000 
      3 C3          2.5081   52.8239   22.9575 C.3       1 UNK         0.0000 
      4 H4          2.7045   51.8077   23.2789 H         1 UNK         0.0000 
      5 C5          3.7182   53.6803   23.4615 C.ar      1 UNK         0.0000 
      6 C6          3.7987   54.0962   24.8033 C.ar      1 UNK         0.0000 
      7 C7          4.9488   54.7061   25.2977 C.ar      1 UNK         0.0000 
      8 C8          6.0430   54.8969   24.4617 C.ar      1 UNK         0.0000 
      9 C9          5.9889   54.4957   23.1314 C.ar      1 UNK         0.0000 
     10 C10         4.8363   53.8895   22.6366 C.ar      1 UNK         0.0000 
     11 C11         1.1658   53.1715   23.6479 C.2       1 UNK         0.0000 
     12 O12         0.8559   54.3578   23.6820 O.2       1 UNK         0.0000 
     13 N13         0.3735   52.2091   24.1995 N.am      1 UNK         0.0000 
     14 C14         0.5836   50.7547   24.1576 C.3       1 UNK         0.0000 
     15 C15        -0.4640   50.1917   25.1545 C.3       1 UNK         0.0000 
     16 H16        -0.0012   50.1129   26.1409 H         1 UNK         0.0000 
     17 C17        -1.6115   51.2453   25.1603 C.3       1 UNK         0.0000 
     18 C18        -0.8295   52.5610   24.9510 C.3       1 UNK         0.0000 
     19 C19        -2.6680   51.0358   24.0241 C.3       1 UNK         0.0000 
     20 C20        -3.7402   52.1448   23.9865 C.3       1 UNK         0.0000 
     21 N21        -4.4263   52.2226   25.3686 N.4       1 UNK         0.0000 
     22 C22        -3.4449   52.3645   26.5527 C.3       1 UNK         0.0000 
     23 C23        -2.4235   51.2136   26.4772 C.3       1 UNK         0.0000 
     24 C24        -0.8971   48.7640   24.7154 C.2       1 UNK         0.0000 
     25 O25        -0.8111   48.4026   23.5396 O.2       1 UNK         0.0000 
     26 N26        -1.3624   47.9519   25.6817 N.am      1 UNK         0.0000 
     27 C27        -1.8675   46.5949   25.4622 C.3       1 UNK         0.0000 
     28 C28        -3.3683   46.5296   25.1056 C.3       1 UNK         0.0000 
     29 C29        -4.3060   46.4115   26.3107 C.ar      1 UNK         0.0000 
     30 C30        -4.4223   47.5007   27.1807 C.ar      1 UNK         0.0000 
     31 C31        -5.3023   47.4684   28.2588 C.ar      1 UNK         0.0000 
     32 C32        -6.0925   46.3437   28.4700 C.ar      1 UNK         0.0000 
     33 C33        -5.9778   45.2452   27.6204 C.ar      1 UNK         0.0000 
     34 C34        -5.0699   45.2506   26.5429 C.ar      1 UNK         0.0000 
     35 O35        -4.8962   44.1762   25.6821 O.3       1 UNK         0.0000 
     36 C36        -5.6368   42.9679   25.8683 C.3       1 UNK         0.0000 
     37 C37        -5.1191   42.1367   27.0533 C.3       1 UNK         0.0000 
     38 H38         2.9480   51.5892   19.6651 H         1 UNK         0.0000 
     39 H39         4.1160   51.5330   20.9745 H         1 UNK         0.0000 
     40 H40         2.6227   50.6136   21.0897 H         1 UNK         0.0000 
     41 H41         1.2945   52.7149   21.1168 H         1 UNK         0.0000 
     42 H42         2.7049   53.6892   20.9590 H         1 UNK         0.0000 
     43 H43         2.9807   53.9208   25.4856 H         1 UNK         0.0000 
     44 H44         4.9964   55.0156   26.3303 H         1 UNK         0.0000 
     45 H45         6.9405   55.3593   24.8437 H         1 UNK         0.0000 
     46 H46         6.8443   54.6445   22.4882 H         1 UNK         0.0000 
     47 H47         4.8448   53.5648   21.6080 H         1 UNK         0.0000 
     48 H48         0.3608   50.4642   23.1298 H         1 UNK         0.0000 
     49 H49         1.5809   50.4409   24.4629 H         1 UNK         0.0000 
     50 H50        -0.4783   52.8936   25.9286 H         1 UNK         0.0000 
     51 H51        -1.4241   53.3723   24.5368 H         1 UNK         0.0000 
     52 H52        -2.1602   51.0221   23.0570 H         1 UNK         0.0000 
     53 H53        -3.1581   50.0646   24.1016 H         1 UNK         0.0000 
     54 H54        -3.3521   53.1382   23.7588 H         1 UNK         0.0000 
     55 H55        -4.5390   51.9097   23.2823 H         1 UNK         0.0000 
     56 H56        -5.0921   52.9827   25.3773 H         1 UNK         0.0000 
     57 H57        -2.9926   53.3560   26.4807 H         1 UNK         0.0000 
     58 H58        -4.0547   52.3077   27.4545 H         1 UNK         0.0000 
     59 H59        -2.8956   50.2460   26.6282 H         1 UNK         0.0000 
     60 H60        -1.7418   51.3230   27.3233 H         1 UNK         0.0000 
     61 H61        -1.2953   48.2301   26.6645 H         1 UNK         0.0000 
     62 H62        -1.2905   46.0963   24.6820 H         1 UNK         0.0000 
     63 H63        -1.6776   45.9848   26.3467 H         1 UNK         0.0000 
     64 H64        -3.6532   47.3956   24.5044 H         1 UNK         0.0000 
     65 H65        -3.5354   45.6973   24.4244 H         1 UNK         0.0000 
     66 H66        -3.8142   48.3752   27.0314 H         1 UNK         0.0000 
     67 H67        -5.3740   48.3163   28.9235 H         1 UNK         0.0000 
     68 H68        -6.7928   46.3261   29.2933 H         1 UNK         0.0000 
     69 H69        -6.6122   44.3958   27.8160 H         1 UNK         0.0000 
     70 H70        -6.7056   43.1722   25.9602 H         1 UNK         0.0000 
     71 H71        -5.5301   42.3791   24.9563 H         1 UNK         0.0000 
     72 H72        -5.7357   41.2510   27.1979 H         1 UNK         0.0000 
     73 H73        -4.0953   41.8082   26.8809 H         1 UNK         0.0000 
     74 H74        -5.1197   42.6876   27.9924 H         1 UNK         0.0000 
     75 H75        -4.9610   51.3749   25.5040 H         1 UNK         0.0000 
@<TRIPOS>BOND
     1    1    2 1    
     2    1   38 1    
     3    1   39 1    
     4    1   40 1    
     5    2    3 1    
     6    2   41 1    
     7    2   42 1    
     8    3    4 1    
     9    3    5 1    
    10    3   11 1    
    11    5   10 ar   
    12    5    6 ar   
    13    6    7 ar   
    14    6   43 1    
    15    7    8 ar   
    16    7   44 1    
    17    8    9 ar   
    18    8   45 1    
    19    9   10 ar   
    20    9   46 1    
    21   10   47 1    
    22   11   12 2    
    23   11   13 am   BACKBONE|DICT|INTERRES
    24   13   18 1    
    25   13   14 1    
    26   14   15 1    
    27   14   48 1    
    28   14   49 1    
    29   15   16 1    
    30   15   17 1    
    31   15   24 1    
    32   17   23 1    
    33   17   18 1    
    34   17   19 1    
    35   18   50 1    
    36   18   51 1    
    37   19   20 1    
    38   19   52 1    
    39   19   53 1    
    40   20   21 1    
    41   20   54 1    
    42   20   55 1    
    43   21   22 1    
    44   21   56 1    
    45   21   75 1    
    46   22   23 1    
    47   22   57 1    
    48   22   58 1    
    49   23   59 1    
    50   23   60 1    
    51   24   25 2    
    52   24   26 am   BACKBONE|DICT|INTERRES
    53   26   27 1    
    54   26   61 1    
    55   27   28 1    
    56   27   62 1    
    57   27   63 1    
    58   28   29 1    
    59   28   64 1    
    60   28   65 1    
    61   29   34 ar   
    62   29   30 ar   
    63   30   31 ar   
    64   30   66 1    
    65   31   32 ar   
    66   31   67 1    
    67   32   33 ar   
    68   32   68 1    
    69   33   34 ar   
    70   33   69 1    
    71   34   35 1    
    72   35   36 1    
    73   36   37 1    
    74   36   70 1    
    75   36   71 1    
    76   37   72 1    
    77   37   73 1    
    78   37   74 1    
@<TRIPOS>SUBSTRUCTURE
     1 UNK         1 GROUP             0       ****    0 ROOT    
