ZINC08683797_2060
                    3D
 Schrodinger Suite 2024-2.
 60 63  0  0  1  0            999 V2000
    3.2873   54.0026   28.8773 C   0  0  0  0  0  0
    3.7652   54.0374   27.4360 C   0  0  0  0  0  0
    5.1227   54.2288   27.1666 C   0  0  0  0  0  0
    5.6193   54.2920   25.8584 C   0  0  0  0  0  0
    4.6978   54.1536   24.8034 C   0  0  0  0  0  0
    3.3157   53.9825   25.0826 C   0  0  0  0  0  0
    2.8419   53.9086   26.3984 C   0  0  0  0  0  0
    2.4265   53.9079   23.5650 S   0  0  0  0  0  0
    3.9499   54.1029   22.7374 C   0  0  0  0  0  0
    5.0165   54.1858   23.4807 N   0  0  0  0  0  0
    3.9047   54.2854   21.3694 N   0  0  0  0  0  0
    5.0258   54.0266   20.5523 N   0  0  0  0  0  0
    5.8910   55.0103   20.2070 C   0  0  0  0  0  0
    5.9074   56.1329   20.7194 O   0  0  0  0  0  0
    6.9135   54.6540   19.1533 C   0  0  0  0  0  0
    8.1597   55.2977   19.1594 C   0  0  0  0  0  0
    9.1324   54.9579   18.2245 C   0  0  0  0  0  0
    8.8687   53.9772   17.2700 C   0  0  0  0  0  0
    7.6230   53.3486   17.2337 C   0  0  0  0  0  0
    6.6471   53.6894   18.1684 C   0  0  0  0  0  0
   10.1564   53.5769   16.0887 S   0  0  0  0  0  0
    9.9423   54.4878   14.9570 O   0  0  0  0  0  0
   11.4139   53.5875   16.8470 O   0  0  0  0  0  0
    9.8528   51.9220   15.5363 N   0  0  0  0  0  0
    8.9623   51.6290   14.3879 C   0  0  0  0  0  0
    9.7090   50.6906   13.4121 C   0  0  1  0  0  0
   10.5939   51.2248   13.0602 H   0  0  0  0  0  0
   10.1964   49.4273   14.1755 C   0  0  0  0  0  0
   11.0428   49.7585   15.4412 C   0  0  2  0  0  0
   11.1533   48.8360   16.0100 H   0  0  0  0  0  0
   10.2683   50.7519   16.3442 C   0  0  0  0  0  0
   12.4516   50.2833   15.0933 C   0  0  0  0  0  0
    8.8475   50.3298   12.1908 C   0  0  0  0  0  0
    7.1030   54.5185   25.6365 C   0  0  0  0  0  0
    2.2812   54.4162   28.9648 H   0  0  0  0  0  0
    3.2798   52.9806   29.2586 H   0  0  0  0  0  0
    3.9283   54.6128   29.5153 H   0  0  0  0  0  0
    5.8081   54.3376   27.9964 H   0  0  0  0  0  0
    1.7898   53.7672   26.5982 H   0  0  0  0  0  0
    3.0443   54.1206   20.8574 H   0  0  0  0  0  0
    5.0469   53.1017   20.1477 H   0  0  0  0  0  0
    8.3952   56.0519   19.8957 H   0  0  0  0  0  0
   10.0958   55.4452   18.2536 H   0  0  0  0  0  0
    7.3985   52.5990   16.4927 H   0  0  0  0  0  0
    5.6935   53.1821   18.1165 H   0  0  0  0  0  0
    8.0577   51.1575   14.7724 H   0  0  0  0  0  0
    8.6692   52.5602   13.9039 H   0  0  0  0  0  0
    9.3273   48.8397   14.4701 H   0  0  0  0  0  0
   10.7541   48.7849   13.4931 H   0  0  0  0  0  0
   10.8770   51.0953   17.1822 H   0  0  0  0  0  0
    9.3656   50.2924   16.7486 H   0  0  0  0  0  0
   12.4155   51.2487   14.5885 H   0  0  0  0  0  0
   13.0518   50.4110   15.9950 H   0  0  0  0  0  0
   12.9858   49.5919   14.4393 H   0  0  0  0  0  0
    7.9439   49.7906   12.4792 H   0  0  0  0  0  0
    8.5441   51.2244   11.6465 H   0  0  0  0  0  0
    9.4037   49.6988   11.4967 H   0  0  0  0  0  0
    7.2598   55.4815   25.1501 H   0  0  0  0  0  0
    7.4899   53.7509   24.9721 H   0  0  0  0  0  0
    7.6543   54.4932   26.5769 H   0  0  0  0  0  0
  1  2  1  0  0  0
  1 35  1  0  0  0
  1 36  1  0  0  0
  1 37  1  0  0  0
  2  7  2  0  0  0
  2  3  1  0  0  0
  3  4  2  0  0  0
  3 38  1  0  0  0
  4  5  1  0  0  0
  4 34  1  0  0  0
  5 10  1  0  0  0
  5  6  2  0  0  0
  6  7  1  0  0  0
  6  8  1  0  0  0
  7 39  1  0  0  0
  8  9  1  0  0  0
  9 10  2  0  0  0
  9 11  1  0  0  0
 11 12  1  0  0  0
 11 40  1  0  0  0
 12 13  1  0  0  0
 12 41  1  0  0  0
 13 14  2  0  0  0
 13 15  1  0  0  0
 15 20  2  0  0  0
 15 16  1  0  0  0
 16 17  2  0  0  0
 16 42  1  0  0  0
 17 18  1  0  0  0
 17 43  1  0  0  0
 18 19  2  0  0  0
 18 21  1  0  0  0
 19 20  1  0  0  0
 19 44  1  0  0  0
 20 45  1  0  0  0
 21 22  2  0  0  0
 21 23  2  0  0  0
 21 24  1  0  0  0
 24 31  1  0  0  0
 24 25  1  0  0  0
 25 26  1  0  0  0
 25 46  1  0  0  0
 25 47  1  0  0  0
 26 27  1  0  0  0
 26 28  1  0  0  0
 26 33  1  0  0  0
 28 29  1  0  0  0
 28 48  1  0  0  0
 28 49  1  0  0  0
 29 30  1  0  0  0
 29 31  1  0  0  0
 29 32  1  0  0  0
 31 50  1  0  0  0
 31 51  1  0  0  0
 32 52  1  0  0  0
 32 53  1  0  0  0
 32 54  1  0  0  0
 33 55  1  0  0  0
 33 56  1  0  0  0
 33 57  1  0  0  0
 34 58  1  0  0  0
 34 59  1  0  0  0
 34 60  1  0  0  0
M  END
> <i_i_glide_confnum>
62

> <i_i_glide_lignum>
2061

> <i_i_glide_posenum>
296

> <i_i_glide_rotatable_bonds>
6

> <i_m_Source_File_Index>
3739

> <b_m_subgroup_collapsed>
0

> <r_i_docking_score>
-4.89786

> <r_i_glide_ecoul>
-4.05055

> <r_i_glide_eff_state_penalty>
0

> <r_i_glide_einternal>
3.91667

> <r_i_glide_emodel>
-56.9837

> <r_i_glide_energy>
-46.5745

> <r_i_glide_erotb>
0.543162

> <r_i_glide_esite>
-0.0030057

> <r_i_glide_evdw>
-42.524

> <r_i_glide_gscore>
-4.89786

> <r_i_glide_hbond>
-0.186128

> <r_i_glide_ligand_efficiency>
-0.153058

> <r_i_glide_ligand_efficiency_ln>
-1.09676

> <r_i_glide_ligand_efficiency_sa>
-0.485929

> <r_i_glide_lipo>
-2.71326

> <r_i_glide_metal>
0

> <r_i_glide_rewards>
0.195153

> <s_i_glide_gridfile>
wee1_glide-grid

> <s_m_Source_File>
wee1_decoys_glide_SP.sdf

> <s_m_Source_Path>
/Users/zhangxujun/Desktop

> <s_m_entry_id>
4014

> <s_m_entry_name>
wee1_decoys_glide_SP.3739

> <s_m_subgroup_title>
wee1_decoys_glide_SP

> <s_m_subgroupid>
wee1_decoys_glide_SP


$$$$
