ZINC39687146_4084
                    3D
 Schrodinger Suite 2024-2.
 66 69  0  0  1  0            999 V2000
   -4.9275   50.0441   23.2154 C   0  0  0  0  0  0
   -5.1093   51.3788   23.9728 C   0  0  1  0  0  0
   -5.5425   52.0966   23.2817 H   0  0  0  0  0  0
   -6.1294   51.1956   25.1223 C   0  0  0  0  0  0
   -6.7082   52.5060   25.6446 C   0  0  0  0  0  0
   -6.1393   53.1333   26.7577 C   0  0  0  0  0  0
   -6.6628   54.3369   27.2298 C   0  0  0  0  0  0
   -7.7688   54.9100   26.6042 C   0  0  0  0  0  0
   -8.3445   54.2866   25.4980 C   0  0  0  0  0  0
   -7.8179   53.0890   25.0180 C   0  0  0  0  0  0
   -8.3950   52.4915   23.9507 F   0  0  0  0  0  0
   -3.8686   51.9816   24.4888 N   0  0  0  0  0  0
   -2.6315   52.0217   23.9573 C   0  0  0  0  0  0
   -2.3937   51.6507   22.8083 O   0  0  0  0  0  0
   -1.5223   52.6303   24.8667 C   0  0  2  0  0  0
   -2.0090   53.3561   25.5073 H   0  0  0  0  0  0
   -0.4720   53.3000   23.9450 C   0  0  0  0  0  0
    0.7847   53.2880   24.6962 N   0  0  0  0  0  0
    0.6684   52.4601   25.8961 C   0  0  0  0  0  0
   -0.6750   51.6904   25.7876 C   0  0  0  0  0  0
   -1.2028   51.4648   27.2266 C   0  0  0  0  0  0
   -2.5870   50.8182   27.2433 C   0  0  0  0  0  0
   -2.5134   49.4786   26.4816 N   0  3  0  0  0  0
   -1.6271   49.3310   25.2144 C   0  0  0  0  0  0
   -0.3838   50.2572   25.2564 C   0  0  0  0  0  0
    1.8913   53.9437   24.2431 C   0  0  0  0  0  0
    1.8952   54.4913   23.1400 O   0  0  0  0  0  0
    3.1488   54.0586   25.0897 C   0  0  0  0  0  0
    3.1037   54.2540   26.4782 C   0  0  0  0  0  0
    4.2593   54.4898   27.2179 C   0  0  0  0  0  0
    5.5080   54.4963   26.5818 C   0  0  0  0  0  0
    5.5750   54.2968   25.1993 C   0  0  0  0  0  0
    4.4045   54.0995   24.4629 C   0  0  0  0  0  0
    7.1031   54.2937   24.3878 Cl  0  0  0  0  0  0
    6.6598   54.7596   27.2818 O   0  0  0  0  0  0
    7.1049   53.6904   28.1042 C   0  0  0  0  0  0
    4.0987   54.8420   28.9062 Cl  0  0  0  0  0  0
   -5.8945   49.6474   22.9039 H   0  0  0  0  0  0
   -4.3473   50.1585   22.3002 H   0  0  0  0  0  0
   -4.4724   49.2784   23.8411 H   0  0  0  0  0  0
   -5.6760   50.6399   25.9446 H   0  0  0  0  0  0
   -6.9674   50.5764   24.7962 H   0  0  0  0  0  0
   -5.2934   52.6910   27.2611 H   0  0  0  0  0  0
   -6.2100   54.8258   28.0802 H   0  0  0  0  0  0
   -8.1727   55.8437   26.9675 H   0  0  0  0  0  0
   -9.1977   54.7295   25.0067 H   0  0  0  0  0  0
   -3.9985   52.4904   25.3487 H   0  0  0  0  0  0
   -0.2689   52.6985   23.0559 H   0  0  0  0  0  0
   -0.7792   54.3113   23.6818 H   0  0  0  0  0  0
    0.5498   53.1524   26.7278 H   0  0  0  0  0  0
    1.5092   51.8074   26.1297 H   0  0  0  0  0  0
   -0.4990   50.8883   27.8320 H   0  0  0  0  0  0
   -1.2942   52.4240   27.7381 H   0  0  0  0  0  0
   -2.8901   50.5469   28.2575 H   0  0  0  0  0  0
   -3.3713   51.4267   26.8147 H   0  0  0  0  0  0
   -2.0811   48.8682   27.1923 H   0  0  0  0  0  0
   -1.3357   48.2798   25.1883 H   0  0  0  0  0  0
   -2.2687   49.4960   24.3549 H   0  0  0  0  0  0
    0.0586   50.3143   24.2599 H   0  0  0  0  0  0
    0.3803   49.7729   25.8690 H   0  0  0  0  0  0
    2.1646   54.3242   27.0007 H   0  0  0  0  0  0
    4.4807   53.9757   23.3906 H   0  0  0  0  0  0
    7.9049   54.0457   28.7535 H   0  0  0  0  0  0
    6.3256   53.2853   28.7492 H   0  0  0  0  0  0
    7.5031   52.8810   27.4927 H   0  0  0  0  0  0
   -3.4328   49.0871   26.3367 H   0  0  0  0  0  0
  1  2  1  0  0  0
  1 38  1  0  0  0
  1 39  1  0  0  0
  1 40  1  0  0  0
  2  3  1  0  0  0
  2  4  1  0  0  0
  2 12  1  0  0  0
  4  5  1  0  0  0
  4 41  1  0  0  0
  4 42  1  0  0  0
  5 10  2  0  0  0
  5  6  1  0  0  0
  6  7  2  0  0  0
  6 43  1  0  0  0
  7  8  1  0  0  0
  7 44  1  0  0  0
  8  9  2  0  0  0
  8 45  1  0  0  0
  9 10  1  0  0  0
  9 46  1  0  0  0
 10 11  1  0  0  0
 12 13  1  0  0  0
 12 47  1  0  0  0
 13 14  2  0  0  0
 13 15  1  0  0  0
 15 16  1  0  0  0
 15 20  1  0  0  0
 15 17  1  0  0  0
 17 18  1  0  0  0
 17 48  1  0  0  0
 17 49  1  0  0  0
 18 19  1  0  0  0
 18 26  1  0  0  0
 19 20  1  0  0  0
 19 50  1  0  0  0
 19 51  1  0  0  0
 20 25  1  0  0  0
 20 21  1  0  0  0
 21 22  1  0  0  0
 21 52  1  0  0  0
 21 53  1  0  0  0
 22 23  1  0  0  0
 22 54  1  0  0  0
 22 55  1  0  0  0
 23 24  1  0  0  0
 23 56  1  0  0  0
 23 66  1  0  0  0
 24 25  1  0  0  0
 24 57  1  0  0  0
 24 58  1  0  0  0
 25 59  1  0  0  0
 25 60  1  0  0  0
 26 27  2  0  0  0
 26 28  1  0  0  0
 28 33  2  0  0  0
 28 29  1  0  0  0
 29 30  2  0  0  0
 29 61  1  0  0  0
 30 31  1  0  0  0
 30 37  1  0  0  0
 31 32  2  0  0  0
 31 35  1  0  0  0
 32 33  1  0  0  0
 32 34  1  0  0  0
 33 62  1  0  0  0
 35 36  1  0  0  0
 36 63  1  0  0  0
 36 64  1  0  0  0
 36 65  1  0  0  0
M  CHG  1  23   1
M  END
> <i_i_glide_confnum>
60

> <i_i_glide_lignum>
4085

> <i_i_glide_posenum>
217

> <i_i_glide_rotatable_bonds>
8

> <i_m_Source_File_Index>
3538

> <b_m_subgroup_collapsed>
0

> <r_i_docking_score>
-5.70653

> <r_i_glide_ecoul>
-5.53651

> <r_i_glide_eff_state_penalty>
0

> <r_i_glide_einternal>
2.53968

> <r_i_glide_emodel>
-54.6502

> <r_i_glide_energy>
-43.6852

> <r_i_glide_erotb>
0.450449

> <r_i_glide_esite>
-0.11163

> <r_i_glide_evdw>
-38.1487

> <r_i_glide_gscore>
-5.70653

> <r_i_glide_hbond>
-0.148921

> <r_i_glide_ligand_efficiency>
-0.163044

> <r_i_glide_ligand_efficiency_ln>
-1.25271

> <r_i_glide_ligand_efficiency_sa>
-0.533327

> <r_i_glide_lipo>
-2.50375

> <r_i_glide_metal>
0

> <r_i_glide_rewards>
-0.654771

> <s_i_glide_gridfile>
wee1_glide-grid

> <s_m_Source_File>
wee1_decoys_glide_SP.sdf

> <s_m_Source_Path>
/Users/zhangxujun/Desktop

> <s_m_entry_id>
3813

> <s_m_entry_name>
wee1_decoys_glide_SP.3538

> <s_m_subgroup_title>
wee1_decoys_glide_SP

> <s_m_subgroupid>
wee1_decoys_glide_SP


$$$$
