@<TRIPOS>MOLECULE
ZINC51634148_1803
38   40    1
SMALL
USER_CHARGES


@<TRIPOS>ATOM
      1 C1          6.2032   54.6376   26.4201 C.ar      1 UNK         0.0000 
      2 C2          4.9962   54.4967   27.0937 C.ar      1 UNK         0.0000 
      3 C3          3.8308   54.2345   26.3788 C.ar      1 UNK         0.0000 
      4 C4          3.8456   54.0967   24.9859 C.ar      1 UNK         0.0000 
      5 C5          5.0843   54.2061   24.3009 C.ar      1 UNK         0.0000 
      6 C6          6.2422   54.4967   25.0349 C.ar      1 UNK         0.0000 
      7 C7          5.1881   53.9447   22.7921 C.3       1 UNK         0.0000 
      8 C8          3.8329   54.0968   22.0817 C.3       1 UNK         0.0000 
      9 C9          2.7858   53.2709   22.8330 C.3       1 UNK         0.0000 
     10 H10         3.1044   52.2402   22.9829 H         1 UNK         0.0000 
     11 C11         2.5302   53.8573   24.2313 C.3       1 UNK         0.0000 
     12 N12         1.5185   53.2967   22.0817 N.pl3     1 UNK         0.0000 
     13 S13         0.7046   51.7806   21.7598 S.o2      1 UNK         0.0000 
     14 O14        -0.3952   52.0768   20.8357 O.2       1 UNK         0.0000 
     15 O15         1.7168   50.7686   21.4391 O.2       1 UNK         0.0000 
     16 C16        -0.0389   51.3444   23.3128 C.ar      1 UNK         0.0000 
     17 C17         0.3599   50.2057   24.0214 C.ar      1 UNK         0.0000 
     18 C18        -0.2624   49.9109   25.2353 C.ar      1 UNK         0.0000 
     19 C19        -1.2614   50.7698   25.6947 C.ar      1 UNK         0.0000 
     20 N20        -1.6491   51.8838   25.0276 N.ar      1 UNK         0.0000 
     21 C21        -1.0384   52.1570   23.8494 C.ar      1 UNK         0.0000 
     22 N22        -1.9176   50.4967   26.8817 N.pl3     1 UNK         0.0000 
     23 H23         7.1044   54.8420   26.9784 H         1 UNK         0.0000 
     24 H24         4.9625   54.6008   28.1684 H         1 UNK         0.0000 
     25 H25         2.8972   54.1454   26.9151 H         1 UNK         0.0000 
     26 H26         7.1913   54.5812   24.5244 H         1 UNK         0.0000 
     27 H27         5.9255   54.6085   22.3382 H         1 UNK         0.0000 
     28 H28         5.5578   52.9286   22.6449 H         1 UNK         0.0000 
     29 H29         3.5408   55.1480   22.0738 H         1 UNK         0.0000 
     30 H30         3.9113   53.7835   21.0391 H         1 UNK         0.0000 
     31 H31         1.8694   53.2055   24.8054 H         1 UNK         0.0000 
     32 H32         2.0198   54.8177   24.1378 H         1 UNK         0.0000 
     33 H33         1.5334   53.9139   21.2574 H         1 UNK         0.0000 
     34 H34         1.1363   49.5546   23.6433 H         1 UNK         0.0000 
     35 H35         0.0193   49.0336   25.8015 H         1 UNK         0.0000 
     36 H36        -1.3687   53.0467   23.3333 H         1 UNK         0.0000 
     37 H37        -1.6956   49.6348   27.4092 H         1 UNK         0.0000 
     38 H38        -2.6631   51.1030   27.1808 H         1 UNK         0.0000 
@<TRIPOS>BOND
     1    1    6 ar   
     2    1    2 ar   
     3    1   23 1    
     4    2    3 ar   
     5    2   24 1    
     6    3    4 ar   
     7    3   25 1    
     8    4   11 1    
     9    4    5 ar   
    10    5    6 ar   
    11    5    7 1    
    12    6   26 1    
    13    7    8 1    
    14    7   27 1    
    15    7   28 1    
    16    8    9 1    
    17    8   29 1    
    18    8   30 1    
    19    9   10 1    
    20    9   11 1    
    21    9   12 1    
    22   11   31 1    
    23   11   32 1    
    24   12   13 1    
    25   12   33 1    
    26   13   14 2    
    27   13   15 2    
    28   13   16 1    
    29   16   21 ar   
    30   16   17 ar   
    31   17   18 ar   
    32   17   34 1    
    33   18   19 ar   
    34   18   35 1    
    35   19   20 ar   
    36   19   22 1    
    37   20   21 ar   
    38   21   36 1    
    39   22   37 1    
    40   22   38 1    
@<TRIPOS>SUBSTRUCTURE
     1 UNK         1 GROUP             0       ****    0 ROOT    
