@<TRIPOS>MOLECULE
ZINC02788758_2691
52   57    1
SMALL
USER_CHARGES


@<TRIPOS>ATOM
      1 C1         -3.1969   50.2116   22.7243 C.ar      1 UNK         0.0000 
      2 C2         -2.9444   49.7153   24.0031 C.ar      1 UNK         0.0000 
      3 C3         -1.9556   50.3049   24.7852 C.ar      1 UNK         0.0000 
      4 C4         -1.2128   51.3891   24.2961 C.ar      1 UNK         0.0000 
      5 C5         -1.4911   51.8824   23.0153 C.ar      1 UNK         0.0000 
      6 C6         -2.4737   51.2928   22.2287 C.ar      1 UNK         0.0000 
      7 C7         -0.1384   52.0178   25.1364 C.ar      1 UNK         0.0000 
      8 C8          1.0203   52.7159   24.7226 C.ar      1 UNK         0.0000 
      9 C9          1.6585   53.0142   25.9104 C.ar      1 UNK         0.0000 
     10 N10         0.9232   52.4970   26.9462 N.pl3     1 UNK         0.0000 
     11 N11        -0.1718   51.8944   26.4543 N.2       1 UNK         0.0000 
     12 C12         1.1745   52.5087   28.3379 C.ar      1 UNK         0.0000 
     13 C13         0.0990   52.5078   29.2344 C.ar      1 UNK         0.0000 
     14 C14         0.3329   52.5010   30.6017 C.ar      1 UNK         0.0000 
     15 C15         1.6400   52.4965   31.0791 C.ar      1 UNK         0.0000 
     16 C16         2.7200   52.4970   30.1996 C.ar      1 UNK         0.0000 
     17 C17         2.4878   52.4991   28.8251 C.ar      1 UNK         0.0000 
     18 O18         2.8539   53.6679   26.0811 O.3       1 UNK         0.0000 
     19 C19         3.4980   53.9598   24.9181 C.2       1 UNK         0.0000 
     20 C20         3.0574   53.6960   23.6606 C.2       1 UNK         0.0000 
     21 C21         1.6907   53.0334   23.3794 C.3       1 UNK         0.0000 
     22 H22         1.0913   53.7844   22.8618 H         1 UNK         0.0000 
     23 C23         1.7583   51.8284   22.4328 C.ar      1 UNK         0.0000 
     24 C24         1.9050   50.5162   22.8958 C.ar      1 UNK         0.0000 
     25 N25         1.9274   49.4500   22.0620 N.ar      1 UNK         0.0000 
     26 C26         1.7918   49.7000   20.7292 C.ar      1 UNK         0.0000 
     27 C27         1.7970   48.6255   19.8123 C.ar      1 UNK         0.0000 
     28 C28         1.6509   48.8771   18.4517 C.ar      1 UNK         0.0000 
     29 C29         1.5063   50.1809   17.9792 C.ar      1 UNK         0.0000 
     30 C30         1.4962   51.2631   18.8595 C.ar      1 UNK         0.0000 
     31 C31         1.6377   51.0381   20.2468 C.ar      1 UNK         0.0000 
     32 N32         1.6253   52.0948   21.1070 N.ar      1 UNK         0.0000 
     33 C33         3.8859   54.0320   22.5475 C.1       1 UNK         0.0000 
     34 N34         4.6033   54.3041   21.6818 N.1       1 UNK         0.0000 
     35 N35         4.6980   54.5209   25.2544 N.pl3     1 UNK         0.0000 
     36 H36        -3.9606   49.7529   22.1146 H         1 UNK         0.0000 
     37 H37        -3.5098   48.8772   24.3829 H         1 UNK         0.0000 
     38 H38        -1.7652   49.9023   25.7732 H         1 UNK         0.0000 
     39 H39        -0.9441   52.7237   22.6199 H         1 UNK         0.0000 
     40 H40        -2.6727   51.6703   21.2355 H         1 UNK         0.0000 
     41 H41        -0.9219   52.4964   28.8810 H         1 UNK         0.0000 
     42 H42        -0.5038   52.4801   31.2820 H         1 UNK         0.0000 
     43 H43         1.8121   52.4902   32.1458 H         1 UNK         0.0000 
     44 H44         3.7325   52.4953   30.5775 H         1 UNK         0.0000 
     45 H45         3.3350   52.4810   28.1532 H         1 UNK         0.0000 
     46 H46         2.0011   50.2953   23.9507 H         1 UNK         0.0000 
     47 H47         1.9340   47.6169   20.1725 H         1 UNK         0.0000 
     48 H48         1.6809   48.0615   17.7451 H         1 UNK         0.0000 
     49 H49         1.4254   50.3520   16.9164 H         1 UNK         0.0000 
     50 H50         1.3964   52.2739   18.4917 H         1 UNK         0.0000 
     51 H51         5.3321   54.8257   24.5324 H         1 UNK         0.0000 
     52 H52         5.0862   54.3573   26.1730 H         1 UNK         0.0000 
@<TRIPOS>BOND
     1    1    6 ar   
     2    1    2 ar   
     3    1   36 1    
     4    2    3 ar   
     5    2   37 1    
     6    3    4 ar   
     7    3   38 1    
     8    4    5 ar   
     9    4    7 1    
    10    5    6 ar   
    11    5   39 1    
    12    6   40 1    
    13    7   11 ar   
    14    7    8 ar   
    15    8   21 1    
    16    8    9 ar   
    17    9   10 ar   
    18    9   18 1    
    19   10   11 ar   
    20   10   12 1    
    21   12   17 ar   
    22   12   13 ar   
    23   13   14 ar   
    24   13   41 1    
    25   14   15 ar   
    26   14   42 1    
    27   15   16 ar   
    28   15   43 1    
    29   16   17 ar   
    30   16   44 1    
    31   17   45 1    
    32   18   19 1    
    33   19   20 2    
    34   19   35 1    
    35   20   21 1    
    36   20   33 1    
    37   21   22 1    
    38   21   23 1    
    39   23   32 ar   
    40   23   24 ar   
    41   24   25 ar   
    42   24   46 1    
    43   25   26 ar   
    44   26   31 ar   
    45   26   27 ar   
    46   27   28 ar   
    47   27   47 1    
    48   28   29 ar   
    49   28   48 1    
    50   29   30 ar   
    51   29   49 1    
    52   30   31 ar   
    53   30   50 1    
    54   31   32 ar   
    55   33   34 3    
    56   35   51 1    
    57   35   52 1    
@<TRIPOS>SUBSTRUCTURE
     1 UNK         1 GROUP             0       ****    0 ROOT    
