@<TRIPOS>MOLECULE
ZINC34976345_4549
56   58    1
SMALL
USER_CHARGES


@<TRIPOS>ATOM
      1 C1          1.9079   44.4892   15.0318 C.3       1 UNK         0.0000 
      2 C2          1.3860   45.1453   16.2936 C.ar      1 UNK         0.0000 
      3 C3          0.3564   44.5441   17.0196 C.ar      1 UNK         0.0000 
      4 C4         -0.1221   45.1433   18.1833 C.ar      1 UNK         0.0000 
      5 C5          0.4278   46.3458   18.6288 C.ar      1 UNK         0.0000 
      6 C6          1.4638   46.9608   17.9056 C.ar      1 UNK         0.0000 
      7 C7          1.9272   46.3571   16.7330 C.ar      1 UNK         0.0000 
      8 N8          2.0885   48.1679   18.2622 N.am      1 UNK         0.0000 
      9 C9          1.9054   48.9458   19.3444 C.2       1 UNK         0.0000 
     10 O10         1.1706   48.6979   20.3008 O.2       1 UNK         0.0000 
     11 N11         2.6127   50.0789   19.2261 N.am      1 UNK         0.0000 
     12 C12         2.4250   51.2850   20.0240 C.3       1 UNK         0.0000 
     13 C13         3.4281   51.3320   21.1882 C.3       1 UNK         0.0000 
     14 N14         3.3007   52.5038   22.0815 N.am      1 UNK         0.0000 
     15 C15         4.3245   53.4809   21.9526 C.ar      1 UNK         0.0000 
     16 C16         4.4890   54.1106   20.7129 C.ar      1 UNK         0.0000 
     17 C17         5.5456   54.9935   20.5072 C.ar      1 UNK         0.0000 
     18 C18         6.4460   55.2495   21.5362 C.ar      1 UNK         0.0000 
     19 C19         6.2996   54.6278   22.7745 C.ar      1 UNK         0.0000 
     20 C20         5.2359   53.7491   22.9876 C.ar      1 UNK         0.0000 
     21 F21         7.4766   56.0975   21.3265 F         1 UNK         0.0000 
     22 C22         2.3044   52.4994   23.0292 C.2       1 UNK         0.0000 
     23 O23         1.4238   51.6367   23.0240 O.2       1 UNK         0.0000 
     24 N24         2.4203   53.3998   24.0372 N.am      1 UNK         0.0000 
     25 C25         1.9606   53.2541   25.3657 C.ar      1 UNK         0.0000 
     26 C26         0.8343   52.4971   25.7364 C.ar      1 UNK         0.0000 
     27 C27         0.4788   52.3687   27.0781 C.ar      1 UNK         0.0000 
     28 C28         1.2304   53.0031   28.0635 C.ar      1 UNK         0.0000 
     29 C29         2.3499   53.7700   27.7203 C.ar      1 UNK         0.0000 
     30 C30         2.7051   53.8877   26.3687 C.ar      1 UNK         0.0000 
     31 C31         3.1806   54.4533   28.8068 C.3       1 UNK         0.0000 
     32 F32         3.1216   53.7828   29.9605 F         1 UNK         0.0000 
     33 F33         2.7042   55.6820   29.0122 F         1 UNK         0.0000 
     34 F34         4.4639   54.5456   28.4505 F         1 UNK         0.0000 
     35 H35         1.1133   43.9557   14.5084 H         1 UNK         0.0000 
     36 H36         2.3020   45.2311   14.3366 H         1 UNK         0.0000 
     37 H37         2.7005   43.7833   15.2818 H         1 UNK         0.0000 
     38 H38        -0.0748   43.6130   16.6827 H         1 UNK         0.0000 
     39 H39        -0.9218   44.6796   18.7424 H         1 UNK         0.0000 
     40 H40         0.0269   46.7769   19.5325 H         1 UNK         0.0000 
     41 H41         2.7255   46.8208   16.1684 H         1 UNK         0.0000 
     42 H42         2.7910   48.4966   17.6029 H         1 UNK         0.0000 
     43 H43         3.3457   50.1150   18.5245 H         1 UNK         0.0000 
     44 H44         1.3984   51.3505   20.3931 H         1 UNK         0.0000 
     45 H45         2.5570   52.1491   19.3735 H         1 UNK         0.0000 
     46 H46         4.4405   51.3032   20.7809 H         1 UNK         0.0000 
     47 H47         3.3289   50.4224   21.7864 H         1 UNK         0.0000 
     48 H48         3.8023   53.9195   19.9007 H         1 UNK         0.0000 
     49 H49         5.6709   55.4768   19.5491 H         1 UNK         0.0000 
     50 H50         7.0122   54.8278   23.5616 H         1 UNK         0.0000 
     51 H51         5.1443   53.2707   23.9515 H         1 UNK         0.0000 
     52 H52         3.1324   54.1007   23.9084 H         1 UNK         0.0000 
     53 H53         0.2148   52.0013   25.0061 H         1 UNK         0.0000 
     54 H54        -0.3819   51.7764   27.3520 H         1 UNK         0.0000 
     55 H55         0.9375   52.8917   29.0979 H         1 UNK         0.0000 
     56 H56         3.5759   54.4714   26.1000 H         1 UNK         0.0000 
@<TRIPOS>BOND
     1    1    2 1    
     2    1   35 1    
     3    1   36 1    
     4    1   37 1    
     5    2    7 ar   
     6    2    3 ar   
     7    3    4 ar   
     8    3   38 1    
     9    4    5 ar   
    10    4   39 1    
    11    5    6 ar   
    12    5   40 1    
    13    6    7 ar   
    14    6    8 1    
    15    7   41 1    
    16    8    9 am   BACKBONE|DICT|INTERRES
    17    8   42 1    
    18    9   10 2    
    19    9   11 am   BACKBONE|DICT|INTERRES
    20   11   12 1    
    21   11   43 1    
    22   12   13 1    
    23   12   44 1    
    24   12   45 1    
    25   13   14 1    
    26   13   46 1    
    27   13   47 1    
    28   14   15 1    
    29   14   22 am   BACKBONE|DICT|INTERRES
    30   15   20 ar   
    31   15   16 ar   
    32   16   17 ar   
    33   16   48 1    
    34   17   18 ar   
    35   17   49 1    
    36   18   19 ar   
    37   18   21 1    
    38   19   20 ar   
    39   19   50 1    
    40   20   51 1    
    41   22   23 2    
    42   22   24 am   BACKBONE|DICT|INTERRES
    43   24   25 1    
    44   24   52 1    
    45   25   30 ar   
    46   25   26 ar   
    47   26   27 ar   
    48   26   53 1    
    49   27   28 ar   
    50   27   54 1    
    51   28   29 ar   
    52   28   55 1    
    53   29   30 ar   
    54   29   31 1    
    55   30   56 1    
    56   31   32 1    
    57   31   33 1    
    58   31   34 1    
@<TRIPOS>SUBSTRUCTURE
     1 UNK         1 GROUP             0       ****    0 ROOT    
