@<TRIPOS>MOLECULE
ZINC39850363_4297
48   50    1
SMALL
USER_CHARGES


@<TRIPOS>ATOM
      1 C1          2.8672   52.3354   29.2112 C.3       1 UNK         0.0000 
      2 C2          1.6546   53.2704   29.0377 C.3       1 UNK         0.0000 
      3 C3          1.9874   54.7778   29.0291 C.3       1 UNK         0.0000 
      4 O4          0.7717   52.8709   27.9838 O.3       1 UNK         0.0000 
      5 C5          1.1048   52.8964   26.6406 C.ar      1 UNK         0.0000 
      6 C6          2.3316   53.3099   26.1068 C.ar      1 UNK         0.0000 
      7 C7          2.5445   53.2942   24.7308 C.ar      1 UNK         0.0000 
      8 C8          1.5410   52.8561   23.8560 C.ar      1 UNK         0.0000 
      9 C9          0.2959   52.5073   24.3894 C.ar      1 UNK         0.0000 
     10 C10         0.0955   52.4964   25.7665 C.ar      1 UNK         0.0000 
     11 C11         1.8044   52.7244   22.3379 C.3       1 UNK         0.0000 
     12 H12         1.2702   53.5902   21.9428 H         1 UNK         0.0000 
     13 C13         1.2059   51.4505   21.6242 C.3       1 UNK         0.0000 
     14 H14         0.1280   51.5958   21.5853 H         1 UNK         0.0000 
     15 C15         1.6923   51.3436   20.1311 C.3       1 UNK         0.0000 
     16 N16         3.1630   51.4615   20.1409 N.am      1 UNK         0.0000 
     17 C17         3.8837   52.2844   20.9334 C.2       1 UNK         0.0000 
     18 O18         5.1017   52.3880   20.8440 O.2       1 UNK         0.0000 
     19 N19         3.2031   52.9318   21.9036 N.am      1 UNK         0.0000 
     20 C20         1.1921   50.0752   19.3560 C.3       1 UNK         0.0000 
     21 F21         1.7305   48.9417   19.8078 F         1 UNK         0.0000 
     22 F22        -0.1339   49.9363   19.4354 F         1 UNK         0.0000 
     23 F23         1.5015   50.1341   18.0586 F         1 UNK         0.0000 
     24 O24         1.1437   52.4572   19.4335 O.3       1 UNK         0.0000 
     25 C25         1.4336   50.1529   22.4598 C.2       1 UNK         0.0000 
     26 O26         2.5686   49.6982   22.5759 O.2       1 UNK         0.0000 
     27 C27         0.3066   49.5488   23.1726 C.2       1 UNK         0.0000 
     28 C28         0.3068   48.9663   24.4390 C.2       1 UNK         0.0000 
     29 C29        -0.9522   48.5251   24.8537 C.2       1 UNK         0.0000 
     30 C30        -1.9286   48.7442   23.8935 C.2       1 UNK         0.0000 
     31 S31        -1.2906   49.5197   22.4782 S.3       1 UNK         0.0000 
     32 H32         3.4359   52.5953   30.1048 H         1 UNK         0.0000 
     33 H33         3.5594   52.3580   28.3738 H         1 UNK         0.0000 
     34 H34         2.5349   51.3034   29.3195 H         1 UNK         0.0000 
     35 H35         1.0516   53.1186   29.9346 H         1 UNK         0.0000 
     36 H36         2.6250   55.0443   29.8718 H         1 UNK         0.0000 
     37 H37         2.4946   55.1106   28.1270 H         1 UNK         0.0000 
     38 H38         1.0757   55.3704   29.1128 H         1 UNK         0.0000 
     39 H39         3.1454   53.6355   26.7299 H         1 UNK         0.0000 
     40 H40         3.5169   53.5903   24.3660 H         1 UNK         0.0000 
     41 H41        -0.5135   52.1965   23.7475 H         1 UNK         0.0000 
     42 H42        -0.8595   52.1853   26.1641 H         1 UNK         0.0000 
     43 H43         3.6632   51.1033   19.3356 H         1 UNK         0.0000 
     44 H44         3.7055   53.6952   22.3291 H         1 UNK         0.0000 
     45 H45         1.5140   53.2715   19.7900 H         1 UNK         0.0000 
     46 H46         1.1911   48.8954   25.0567 H         1 UNK         0.0000 
     47 H47        -1.1357   48.0738   25.8206 H         1 UNK         0.0000 
     48 H48        -2.9776   48.5017   23.9545 H         1 UNK         0.0000 
@<TRIPOS>BOND
     1    1    2 1    
     2    1   32 1    
     3    1   33 1    
     4    1   34 1    
     5    2    3 1    
     6    2    4 1    
     7    2   35 1    
     8    3   36 1    
     9    3   37 1    
    10    3   38 1    
    11    4    5 1    
    12    5   10 ar   
    13    5    6 ar   
    14    6    7 ar   
    15    6   39 1    
    16    7    8 ar   
    17    7   40 1    
    18    8    9 ar   
    19    8   11 1    
    20    9   10 ar   
    21    9   41 1    
    22   10   42 1    
    23   11   12 1    
    24   11   19 1    
    25   11   13 1    
    26   13   14 1    
    27   13   15 1    
    28   13   25 1    
    29   15   16 1    
    30   15   20 1    
    31   15   24 1    
    32   16   17 am   BACKBONE|DICT|INTERRES
    33   16   43 1    
    34   17   18 2    
    35   17   19 am   BACKBONE|DICT|INTERRES
    36   19   44 1    
    37   20   21 1    
    38   20   22 1    
    39   20   23 1    
    40   24   45 1    
    41   25   26 2    
    42   25   27 1    
    43   27   31 1    
    44   27   28 2    
    45   28   29 1    
    46   28   46 1    
    47   29   30 2    
    48   29   47 1    
    49   30   31 1    
    50   30   48 1    
@<TRIPOS>SUBSTRUCTURE
     1 UNK         1 GROUP             0       ****    0 ROOT    
