@<TRIPOS>MOLECULE
ZINC39964419_2264
55   58    1
SMALL
USER_CHARGES


@<TRIPOS>ATOM
      1 C1          1.7486   54.3256   29.5244 C.3       1 UNK         0.0000 
      2 C2          2.5692   53.0981   29.0562 C.3       1 UNK         0.0000 
      3 C3          3.8938   53.0524   29.8643 C.3       1 UNK         0.0000 
      4 C4          1.7702   51.8188   29.4109 C.3       1 UNK         0.0000 
      5 C5          2.8777   53.1452   27.5114 C.3       1 UNK         0.0000 
      6 H6          3.6125   52.3641   27.3271 H         1 UNK         0.0000 
      7 C7          3.5811   54.4423   27.0327 C.3       1 UNK         0.0000 
      8 C8          4.0708   54.3364   25.5733 C.3       1 UNK         0.0000 
      9 C9          2.9437   53.8601   24.6610 C.2       1 UNK         0.0000 
     10 C10         1.8850   53.1680   25.1329 C.2       1 UNK         0.0000 
     11 C11         1.6431   52.8401   26.6029 C.3       1 UNK         0.0000 
     12 S12         0.7233   52.6751   23.8835 S.3       1 UNK         0.0000 
     13 C13         1.7318   53.3491   22.5401 C.3       1 UNK         0.0000 
     14 H14         1.1049   54.1687   22.1994 H         1 UNK         0.0000 
     15 C15         2.9835   54.0194   23.1512 C.3       1 UNK         0.0000 
     16 H16         2.9327   55.0871   22.9432 H         1 UNK         0.0000 
     17 C17         4.2741   53.5989   22.5722 C.1       1 UNK         0.0000 
     18 N18         5.2868   53.2741   22.1186 N.1       1 UNK         0.0000 
     19 N19         1.9623   52.4961   21.3605 N.am      1 UNK         0.0000 
     20 C20         2.3878   51.2157   21.3333 C.2       1 UNK         0.0000 
     21 O21         2.7023   50.5906   22.3417 O.2       1 UNK         0.0000 
     22 C22         2.4721   50.5053   19.9760 C.3       1 UNK         0.0000 
     23 S23         1.3423   51.1224   18.6751 S.3       1 UNK         0.0000 
     24 C24         2.3010   52.4641   18.0572 C.ar      1 UNK         0.0000 
     25 N25         1.8013   53.5934   17.6287 N.2       1 UNK         0.0000 
     26 H26         4.3140   51.7383   18.0813 H         1 UNK         0.0000 
     27 C27         2.8757   54.2900   17.2773 C.ar      1 UNK         0.0000 
     28 N28         4.0344   53.6762   17.4062 N.2       1 UNK         0.0000 
     29 N29         3.6581   52.4968   17.8938 N.pl3     1 UNK         0.0000 
     30 C30         2.7936   55.6589   16.7829 C.2       1 UNK         0.0000 
     31 C31         3.7469   56.6261   16.4840 C.2       1 UNK         0.0000 
     32 C32         3.0674   57.7624   16.0472 C.2       1 UNK         0.0000 
     33 C33         1.7231   57.4414   16.0863 C.2       1 UNK         0.0000 
     34 O34         1.5527   56.1716   16.5368 O.3       1 UNK         0.0000 
     35 H35         1.4439   54.2276   30.5679 H         1 UNK         0.0000 
     36 H36         0.8368   54.4545   28.9428 H         1 UNK         0.0000 
     37 H37         2.3196   55.2513   29.4475 H         1 UNK         0.0000 
     38 H38         4.5416   52.2393   29.5289 H         1 UNK         0.0000 
     39 H39         4.4611   53.9802   29.7754 H         1 UNK         0.0000 
     40 H40         3.7155   52.8965   30.9284 H         1 UNK         0.0000 
     41 H41         2.2558   50.9202   29.0273 H         1 UNK         0.0000 
     42 H42         1.6648   51.6992   30.4890 H         1 UNK         0.0000 
     43 H43         0.7582   51.8339   29.0042 H         1 UNK         0.0000 
     44 H44         2.9240   55.2969   27.1762 H         1 UNK         0.0000 
     45 H45         4.4477   54.6536   27.6596 H         1 UNK         0.0000 
     46 H46         4.4825   55.2889   25.2401 H         1 UNK         0.0000 
     47 H47         4.9152   53.6497   25.5181 H         1 UNK         0.0000 
     48 H48         1.4029   51.7787   26.6794 H         1 UNK         0.0000 
     49 H49         0.7528   53.3570   26.9593 H         1 UNK         0.0000 
     50 H50         1.7457   52.9269   20.4714 H         1 UNK         0.0000 
     51 H51         3.5049   50.4975   19.6311 H         1 UNK         0.0000 
     52 H52         2.2131   49.4604   20.1441 H         1 UNK         0.0000 
     53 H53         4.8172   56.5158   16.5810 H         1 UNK         0.0000 
     54 H54         3.4977   58.7090   15.7546 H         1 UNK         0.0000 
     55 H55         0.8260   57.9944   15.8555 H         1 UNK         0.0000 
@<TRIPOS>BOND
     1    1    2 1    
     2    1   35 1    
     3    1   36 1    
     4    1   37 1    
     5    2    3 1    
     6    2    4 1    
     7    2    5 1    
     8    3   38 1    
     9    3   39 1    
    10    3   40 1    
    11    4   41 1    
    12    4   42 1    
    13    4   43 1    
    14    5    6 1    
    15    5   11 1    
    16    5    7 1    
    17    7    8 1    
    18    7   44 1    
    19    7   45 1    
    20    8    9 1    
    21    8   46 1    
    22    8   47 1    
    23    9   15 1    
    24    9   10 2    
    25   10   11 1    
    26   10   12 1    
    27   11   48 1    
    28   11   49 1    
    29   12   13 1    
    30   13   14 1    
    31   13   15 1    
    32   13   19 1    
    33   15   16 1    
    34   15   17 1    
    35   17   18 3    
    36   19   20 am   BACKBONE|DICT|INTERRES
    37   19   50 1    
    38   20   21 2    
    39   20   22 1    
    40   22   51 1    
    41   22   52 1    
    42   22   23 1    
    43   23   24 1    
    44   24   25 ar   
    45   24   29 ar   
    46   25   27 ar   
    47   26   29 1    
    48   27   30 1    
    49   27   28 ar   
    50   28   29 ar   
    51   30   34 1    
    52   30   31 2    
    53   31   32 1    
    54   31   53 1    
    55   32   33 2    
    56   32   54 1    
    57   33   34 1    
    58   33   55 1    
@<TRIPOS>SUBSTRUCTURE
     1 UNK         1 GROUP             0       ****    0 ROOT    
