@<TRIPOS>MOLECULE
ZINC13652082_3867
44   46    1
SMALL
USER_CHARGES


@<TRIPOS>ATOM
      1 C1         -4.3764   51.3360   25.4058 C.3       1 UNK         0.0000 
      2 C2         -2.9011   51.1586   25.0145 C.ar      1 UNK         0.0000 
      3 C3         -2.2253   52.1832   24.3233 C.ar      1 UNK         0.0000 
      4 C4         -0.9015   51.9629   23.9393 C.ar      1 UNK         0.0000 
      5 C5         -0.2332   50.7903   24.2236 C.ar      1 UNK         0.0000 
      6 C6         -0.8635   49.7912   24.9699 C.ar      1 UNK         0.0000 
      7 C7         -2.2131   49.9698   25.3459 C.ar      1 UNK         0.0000 
      8 N8         -2.8650   48.9721   26.0801 N.pl3     1 UNK         0.0000 
      9 C9         -0.0981   48.5366   25.3800 C.3       1 UNK         0.0000 
     10 C10         1.1598   50.9110   23.6772 C.3       1 UNK         0.0000 
     11 C11         1.1125   52.2557   22.9142 C.3       1 UNK         0.0000 
     12 O12        -0.1283   52.8768   23.2684 O.3       1 UNK         0.0000 
     13 C13         1.0096   52.0173   21.3929 C.3       1 UNK         0.0000 
     14 C14         2.2592   53.2336   23.2723 C.3       1 UNK         0.0000 
     15 S15         2.4118   53.6742   25.0358 S.3       1 UNK         0.0000 
     16 C16         4.0843   54.1227   25.4052 C.ar      1 UNK         0.0000 
     17 C17         4.5019   54.1294   26.7404 C.ar      1 UNK         0.0000 
     18 C18         5.8174   54.5005   27.0305 C.ar      1 UNK         0.0000 
     19 N19         6.7042   54.8750   26.0736 N.ar      1 UNK         0.0000 
     20 C20         6.2871   54.8556   24.7813 C.ar      1 UNK         0.0000 
     21 C21         4.9932   54.4877   24.4040 C.ar      1 UNK         0.0000 
     22 C22        -2.9133   53.5062   24.0260 C.3       1 UNK         0.0000 
     23 H23        -4.4579   51.7639   26.4057 H         1 UNK         0.0000 
     24 H24        -4.9151   51.9705   24.7050 H         1 UNK         0.0000 
     25 H25        -4.9153   50.3901   25.3852 H         1 UNK         0.0000 
     26 H26        -2.2595   48.4960   26.7532 H         1 UNK         0.0000 
     27 H27        -3.7830   49.2104   26.4188 H         1 UNK         0.0000 
     28 H28        -0.0170   48.4970   26.4668 H         1 UNK         0.0000 
     29 H29        -0.6279   47.6404   25.0575 H         1 UNK         0.0000 
     30 H30         0.9089   48.4984   24.9681 H         1 UNK         0.0000 
     31 H31         1.4400   50.0802   23.0260 H         1 UNK         0.0000 
     32 H32         1.8884   50.9618   24.4815 H         1 UNK         0.0000 
     33 H33         1.9219   51.5710   20.9954 H         1 UNK         0.0000 
     34 H34         0.1819   51.3487   21.1506 H         1 UNK         0.0000 
     35 H35         0.8342   52.9442   20.8495 H         1 UNK         0.0000 
     36 H36         2.1538   54.1635   22.7070 H         1 UNK         0.0000 
     37 H37         3.2012   52.7881   22.9517 H         1 UNK         0.0000 
     38 H38         3.8228   53.8524   27.5320 H         1 UNK         0.0000 
     39 H39         6.1761   54.5225   28.0496 H         1 UNK         0.0000 
     40 H40         7.0203   55.1436   24.0373 H         1 UNK         0.0000 
     41 H41         4.7090   54.4988   23.3628 H         1 UNK         0.0000 
     42 H42        -3.6953   53.3781   23.2806 H         1 UNK         0.0000 
     43 H43        -3.3787   53.8921   24.9314 H         1 UNK         0.0000 
     44 H44        -2.2101   54.2639   23.6809 H         1 UNK         0.0000 
@<TRIPOS>BOND
     1    1    2 1    
     2    1   23 1    
     3    1   24 1    
     4    1   25 1    
     5    2    7 ar   
     6    2    3 ar   
     7    3    4 ar   
     8    3   22 1    
     9    4   12 1    
    10    4    5 ar   
    11    5    6 ar   
    12    5   10 1    
    13    6    7 ar   
    14    6    9 1    
    15    7    8 1    
    16    8   26 1    
    17    8   27 1    
    18    9   28 1    
    19    9   29 1    
    20    9   30 1    
    21   10   11 1    
    22   10   31 1    
    23   10   32 1    
    24   11   12 1    
    25   11   13 1    
    26   11   14 1    
    27   13   33 1    
    28   13   34 1    
    29   13   35 1    
    30   14   15 1    
    31   14   36 1    
    32   14   37 1    
    33   15   16 1    
    34   16   21 ar   
    35   16   17 ar   
    36   17   18 ar   
    37   17   38 1    
    38   18   19 ar   
    39   18   39 1    
    40   19   20 ar   
    41   20   21 ar   
    42   20   40 1    
    43   21   41 1    
    44   22   42 1    
    45   22   43 1    
    46   22   44 1    
@<TRIPOS>SUBSTRUCTURE
     1 UNK         1 GROUP             0       ****    0 ROOT    
