@<TRIPOS>MOLECULE
ZINC40111638_552
55   58    1
SMALL
USER_CHARGES


@<TRIPOS>ATOM
      1 C1          0.4601   54.4728   30.9044 C.ar      1 UNK         0.0000 
      2 C2          1.1066   55.3033   29.9932 C.ar      1 UNK         0.0000 
      3 C3          1.7064   54.7484   28.8670 C.ar      1 UNK         0.0000 
      4 C4          1.6849   53.3606   28.6712 C.ar      1 UNK         0.0000 
      5 C5          1.0508   52.5382   29.6085 C.ar      1 UNK         0.0000 
      6 C6          0.4335   53.0936   30.7239 C.ar      1 UNK         0.0000 
      7 C7          2.2802   52.7234   27.4077 C.3       1 UNK         0.0000 
      8 H8          2.5201   51.6877   27.6468 H         1 UNK         0.0000 
      9 C9          1.4161   52.8155   26.1770 C.2       1 UNK         0.0000 
     10 C10         2.0981   53.5246   25.2569 C.2       1 UNK         0.0000 
     11 C11         3.4309   53.8851   25.7157 C.2       1 UNK         0.0000 
     12 O12         4.3292   54.4932   25.1228 O.2       1 UNK         0.0000 
     13 N13         3.5063   53.3612   26.9613 N.am      1 UNK         0.0000 
     14 C14         4.7774   53.1612   27.6619 C.3       1 UNK         0.0000 
     15 C15         5.4721   54.4332   28.1544 C.3       1 UNK         0.0000 
     16 O16         6.7996   54.0967   28.4815 O.3       1 UNK         0.0000 
     17 O17         1.7683   53.8600   24.0575 O.co2     1 UNK         0.0000 
     18 C18         0.1287   52.0958   26.1037 C.2       1 UNK         0.0000 
     19 O19        -0.4260   51.7145   27.1321 O.2       1 UNK         0.0000 
     20 C20        -0.3963   51.6340   24.7909 C.ar      1 UNK         0.0000 
     21 C21        -0.9213   52.5447   23.8718 C.ar      1 UNK         0.0000 
     22 C22        -1.3665   52.0988   22.6338 C.ar      1 UNK         0.0000 
     23 C23        -1.3027   50.7451   22.3122 C.ar      1 UNK         0.0000 
     24 C24        -0.8315   49.8215   23.2473 C.ar      1 UNK         0.0000 
     25 C25        -0.3846   50.2660   24.4900 C.ar      1 UNK         0.0000 
     26 S26        -1.7607   50.2238   20.6619 S.o2      1 UNK         0.0000 
     27 O27        -2.2083   48.8285   20.7482 O.2       1 UNK         0.0000 
     28 O28        -2.6423   51.2600   20.1061 O.2       1 UNK         0.0000 
     29 N29        -0.2429   50.2584   19.7521 N.pl3     1 UNK         0.0000 
     30 C30         0.4250   51.5682   19.5440 C.3       1 UNK         0.0000 
     31 C31         1.6900   51.4217   20.3706 C.3       1 UNK         0.0000 
     32 C32         2.0806   49.9794   20.1232 C.3       1 UNK         0.0000 
     33 C33         0.7671   49.1898   20.0207 C.3       1 UNK         0.0000 
     34 H34        -0.0205   54.8963   31.7724 H         1 UNK         0.0000 
     35 H35         1.1209   56.3727   30.1473 H         1 UNK         0.0000 
     36 H36         2.1774   55.3964   28.1424 H         1 UNK         0.0000 
     37 H37         1.0026   51.4698   29.4525 H         1 UNK         0.0000 
     38 H38        -0.0757   52.4607   31.4380 H         1 UNK         0.0000 
     39 H39         4.5919   52.5122   28.5185 H         1 UNK         0.0000 
     40 H40         5.4418   52.6055   26.9976 H         1 UNK         0.0000 
     41 H41         5.5116   55.1847   27.3660 H         1 UNK         0.0000 
     42 H42         4.9235   54.9008   28.9725 H         1 UNK         0.0000 
     43 H43         7.2080   54.8635   28.9098 H         1 UNK         0.0000 
     44 H44        -0.9487   53.6015   24.0961 H         1 UNK         0.0000 
     45 H45        -1.7277   52.8167   21.9147 H         1 UNK         0.0000 
     46 H46        -0.7886   48.7686   23.0081 H         1 UNK         0.0000 
     47 H47        -0.0059   49.5456   25.2044 H         1 UNK         0.0000 
     48 H48         0.7023   51.6579   18.4927 H         1 UNK         0.0000 
     49 H49        -0.2190   52.4286   19.7281 H         1 UNK         0.0000 
     50 H50         2.4664   52.1269   20.0697 H         1 UNK         0.0000 
     51 H51         1.4808   51.5980   21.4278 H         1 UNK         0.0000 
     52 H52         2.7253   49.5909   20.9117 H         1 UNK         0.0000 
     53 H53         2.6407   49.9056   19.1874 H         1 UNK         0.0000 
     54 H54         0.6318   48.7224   20.9961 H         1 UNK         0.0000 
     55 H55         0.9018   48.5089   19.1799 H         1 UNK         0.0000 
@<TRIPOS>BOND
     1    1    6 ar   
     2    1    2 ar   
     3    1   34 1    
     4    2    3 ar   
     5    2   35 1    
     6    3    4 ar   
     7    3   36 1    
     8    4    5 ar   
     9    4    7 1    
    10    5    6 ar   
    11    5   37 1    
    12    6   38 1    
    13    7    8 1    
    14    7   13 1    
    15    7    9 1    
    16    9   10 2    
    17    9   18 1    
    18   10   11 1    
    19   10   17 1    
    20   11   12 2    
    21   11   13 am   BACKBONE|DICT|INTERRES
    22   13   14 1    
    23   14   15 1    
    24   14   39 1    
    25   14   40 1    
    26   15   16 1    
    27   15   41 1    
    28   15   42 1    
    29   16   43 1    
    30   18   19 2    
    31   18   20 1    
    32   20   25 ar   
    33   20   21 ar   
    34   21   22 ar   
    35   21   44 1    
    36   22   23 ar   
    37   22   45 1    
    38   23   24 ar   
    39   23   26 1    
    40   24   25 ar   
    41   24   46 1    
    42   25   47 1    
    43   26   27 2    
    44   26   28 2    
    45   26   29 1    
    46   29   33 1    
    47   29   30 1    
    48   30   31 1    
    49   30   48 1    
    50   30   49 1    
    51   31   32 1    
    52   31   50 1    
    53   31   51 1    
    54   32   33 1    
    55   32   52 1    
    56   32   53 1    
    57   33   54 1    
    58   33   55 1    
@<TRIPOS>SUBSTRUCTURE
     1 UNK         1 GROUP             0       ****    0 ROOT    
