ZINC62353534_6178
                    3D
 Schrodinger Suite 2024-2.
 29 31  0  0  1  0            999 V2000
   -0.8555   51.2969   28.5074 C   0  0  0  0  0  0
   -0.5478   52.2845   29.4292 C   0  0  0  0  0  0
    0.4556   53.2174   29.1810 C   0  0  0  0  0  0
    1.2473   53.1267   28.0039 C   0  0  0  0  0  0
    0.9340   52.0690   27.1110 C   0  0  0  0  0  0
   -0.1050   51.1760   27.3505 C   0  0  0  0  0  0
   -0.3707   50.1193   26.4817 N   0  0  0  0  0  0
    2.3660   54.0130   27.7829 N   0  0  0  0  0  0
    2.8951   54.8267   28.9091 C   0  0  0  0  0  0
    1.7191   55.5892   29.5290 C   0  0  0  0  0  0
    0.7066   54.4243   30.4556 S   0  0  0  0  0  0
    3.0860   54.0254   26.6069 C   0  0  0  0  0  0
    2.5913   53.7780   25.5024 O   0  0  0  0  0  0
    4.5231   54.2321   26.6828 C   0  0  0  0  0  0
    5.3750   53.7343   27.6790 C   0  0  0  0  0  0
    7.0156   54.0966   27.2811 S   0  0  0  0  0  0
    6.4378   54.8128   25.8141 C   0  0  0  0  0  0
    5.1415   54.7858   25.6505 N   0  0  0  0  0  0
   -1.6559   50.6007   28.7186 H   0  0  0  0  0  0
   -1.1092   52.3254   30.3511 H   0  0  0  0  0  0
    1.5043   51.8836   26.2179 H   0  0  0  0  0  0
    0.3263   49.8938   25.7894 H   0  0  0  0  0  0
   -0.8721   49.3517   26.9369 H   0  0  0  0  0  0
    3.3010   54.1710   29.6797 H   0  0  0  0  0  0
    3.6536   55.5515   28.6129 H   0  0  0  0  0  0
    2.0612   56.3620   30.2178 H   0  0  0  0  0  0
    1.1048   56.0802   28.7720 H   0  0  0  0  0  0
    5.1366   53.1741   28.5707 H   0  0  0  0  0  0
    7.1095   55.2106   25.0680 H   0  0  0  0  0  0
  1  6  2  0  0  0
  1  2  1  0  0  0
  1 19  1  0  0  0
  2  3  2  0  0  0
  2 20  1  0  0  0
  3 11  1  0  0  0
  3  4  1  0  0  0
  4  5  2  0  0  0
  4  8  1  0  0  0
  5  6  1  0  0  0
  5 21  1  0  0  0
  6  7  1  0  0  0
  7 22  1  0  0  0
  7 23  1  0  0  0
  8  9  1  0  0  0
  8 12  1  0  0  0
  9 10  1  0  0  0
  9 24  1  0  0  0
  9 25  1  0  0  0
 10 11  1  0  0  0
 10 26  1  0  0  0
 10 27  1  0  0  0
 12 13  2  0  0  0
 12 14  1  0  0  0
 14 18  1  0  0  0
 14 15  2  0  0  0
 15 16  1  0  0  0
 15 28  1  0  0  0
 16 17  1  0  0  0
 17 18  2  0  0  0
 17 29  1  0  0  0
M  END
> <i_i_glide_confnum>
15

> <i_i_glide_lignum>
6179

> <i_i_glide_posenum>
180

> <i_i_glide_rotatable_bonds>
2

> <i_m_Source_File_Index>
4537

> <b_m_subgroup_collapsed>
0

> <r_i_docking_score>
-6.13031

> <r_i_glide_ecoul>
-2.87871

> <r_i_glide_eff_state_penalty>
0

> <r_i_glide_einternal>
3.66037

> <r_i_glide_emodel>
-50.4285

> <r_i_glide_energy>
-37.9065

> <r_i_glide_erotb>
0.468141

> <r_i_glide_esite>
-0.0959687

> <r_i_glide_evdw>
-35.0278

> <r_i_glide_gscore>
-6.13031

> <r_i_glide_hbond>
-0.16

> <r_i_glide_ligand_efficiency>
-0.340573

> <r_i_glide_ligand_efficiency_ln>
-1.57577

> <r_i_glide_ligand_efficiency_sa>
-0.892553

> <r_i_glide_lipo>
-2.37153

> <r_i_glide_metal>
0

> <r_i_glide_rewards>
-1.78776

> <s_i_glide_gridfile>
wee1_glide-grid

> <s_m_Source_File>
wee1_decoys_glide_SP.sdf

> <s_m_Source_Path>
/Users/zhangxujun/Desktop

> <s_m_entry_id>
4812

> <s_m_entry_name>
wee1_decoys_glide_SP.4537

> <s_m_subgroup_title>
wee1_decoys_glide_SP

> <s_m_subgroupid>
wee1_decoys_glide_SP


$$$$
