ZINC09460737_2901
                    3D
 Schrodinger Suite 2024-2.
 51 54  0  0  1  0            999 V2000
    2.7097   50.4890   20.6329 C   0  0  0  0  0  0
    2.3567   49.6423   21.6817 C   0  0  0  0  0  0
    1.5546   50.1147   22.7149 C   0  0  0  0  0  0
    1.0863   51.4310   22.6894 C   0  0  0  0  0  0
    1.4411   52.2744   21.6282 C   0  0  0  0  0  0
    2.2589   51.8050   20.6052 C   0  0  0  0  0  0
    0.1052   51.8896   23.7610 C   0  0  0  0  0  0
    0.3541   53.2946   24.3422 C   0  0  0  0  0  0
    1.2984   53.3133   25.5117 C   0  0  0  0  0  0
    1.6387   53.0960   27.9749 C   0  0  0  0  0  0
    3.1092   53.5102   27.6107 C   0  0  0  0  0  0
    4.1097   53.6486   28.6723 C   0  0  0  0  0  0
    3.9045   53.5816   29.8818 O   0  0  0  0  0  0
    5.3581   53.9007   28.2194 N   0  0  0  0  0  0
    6.0681   53.9602   28.9335 H   0  0  0  0  0  0
    5.8100   54.0983   26.9538 C   0  0  0  0  0  0
    7.0261   54.2335   26.8216 O   0  0  0  0  0  0
    4.8328   54.1189   25.9621 N   0  0  0  0  0  0
    3.5081   53.7903   26.3321 C   0  0  0  0  0  0
    2.5380   53.7701   25.3533 N   0  0  0  0  0  0
    5.2436   54.3737   24.5859 C   0  0  0  0  0  0
    4.6710   53.6967   23.4862 C   0  0  0  0  0  0
    5.0826   53.9285   22.1775 C   0  0  0  0  0  0
    6.1161   54.8178   21.9313 C   0  0  0  0  0  0
    6.7334   55.4657   22.9879 C   0  0  0  0  0  0
    6.2838   55.2840   24.2915 C   0  0  0  0  0  0
    6.5347   55.0391   20.6654 F   0  0  0  0  0  0
    0.9209   54.2755   28.7131 C   0  0  0  0  0  0
    1.1052   55.4370   28.0818 F   0  0  0  0  0  0
   -0.3973   54.0863   28.7873 F   0  0  0  0  0  0
    1.3332   54.4464   29.9677 F   0  0  0  0  0  0
    1.5684   51.7184   28.7121 C   0  0  0  0  0  0
    1.9820   51.7499   29.9777 F   0  0  0  0  0  0
    0.3177   51.2549   28.7587 F   0  0  0  0  0  0
    2.3035   50.8045   28.0851 F   0  0  0  0  0  0
    3.3319   50.1227   19.8266 H   0  0  0  0  0  0
    2.7086   48.6208   21.6947 H   0  0  0  0  0  0
    1.2812   49.4438   23.5173 H   0  0  0  0  0  0
    1.0698   53.2859   21.5602 H   0  0  0  0  0  0
    2.5256   52.4511   19.7807 H   0  0  0  0  0  0
   -0.8811   51.8671   23.2954 H   0  0  0  0  0  0
    0.0613   51.1657   24.5761 H   0  0  0  0  0  0
    0.6973   54.0065   23.5910 H   0  0  0  0  0  0
   -0.6054   53.6928   24.6689 H   0  0  0  0  0  0
    2.7855   54.0867   24.4264 H   0  0  0  0  0  0
    3.9305   52.9212   23.5997 H   0  0  0  0  0  0
    4.6256   53.3953   21.3565 H   0  0  0  0  0  0
    7.5722   56.1124   22.7909 H   0  0  0  0  0  0
    6.7730   55.8573   25.0641 H   0  0  0  0  0  0
    0.8904   52.8971   26.7112 N   0  3  0  0  0  0
   -0.0559   52.5440   26.7734 H   0  0  0  0  0  0
  1  6  2  0  0  0
  1  2  1  0  0  0
  1 36  1  0  0  0
  2  3  2  0  0  0
  2 37  1  0  0  0
  3  4  1  0  0  0
  3 38  1  0  0  0
  4  5  2  0  0  0
  4  7  1  0  0  0
  5  6  1  0  0  0
  5 39  1  0  0  0
  6 40  1  0  0  0
  7  8  1  0  0  0
  7 41  1  0  0  0
  7 42  1  0  0  0
  8  9  1  0  0  0
  8 43  1  0  0  0
  8 44  1  0  0  0
  9 20  1  0  0  0
  9 50  2  0  0  0
 10 11  1  0  0  0
 10 28  1  0  0  0
 10 32  1  0  0  0
 10 50  1  0  0  0
 11 19  2  0  0  0
 11 12  1  0  0  0
 12 13  2  0  0  0
 12 14  1  0  0  0
 14 15  1  0  0  0
 14 16  1  0  0  0
 16 17  2  0  0  0
 16 18  1  0  0  0
 18 19  1  0  0  0
 18 21  1  0  0  0
 19 20  1  0  0  0
 20 45  1  0  0  0
 21 26  2  0  0  0
 21 22  1  0  0  0
 22 23  2  0  0  0
 22 46  1  0  0  0
 23 24  1  0  0  0
 23 47  1  0  0  0
 24 25  2  0  0  0
 24 27  1  0  0  0
 25 26  1  0  0  0
 25 48  1  0  0  0
 26 49  1  0  0  0
 28 29  1  0  0  0
 28 30  1  0  0  0
 28 31  1  0  0  0
 32 33  1  0  0  0
 32 34  1  0  0  0
 32 35  1  0  0  0
 50 51  1  0  0  0
M  CHG  1  50   1
M  END
> <i_i_glide_confnum>
16

> <i_i_glide_lignum>
2902

> <i_i_glide_posenum>
165

> <i_i_glide_rotatable_bonds>
6

> <i_m_Source_File_Index>
3635

> <b_m_subgroup_collapsed>
0

> <r_i_docking_score>
-7.56047

> <r_i_glide_ecoul>
-4.84801

> <r_i_glide_eff_state_penalty>
0

> <r_i_glide_einternal>
12.4001

> <r_i_glide_emodel>
-63.1768

> <r_i_glide_energy>
-46.697

> <r_i_glide_erotb>
0.325024

> <r_i_glide_esite>
-0.0483132

> <r_i_glide_evdw>
-41.849

> <r_i_glide_gscore>
-7.56047

> <r_i_glide_hbond>
-0.193667

> <r_i_glide_ligand_efficiency>
-0.216013

> <r_i_glide_ligand_efficiency_ln>
-1.65969

> <r_i_glide_ligand_efficiency_sa>
-0.706594

> <r_i_glide_lipo>
-3.05295

> <r_i_glide_metal>
0

> <r_i_glide_rewards>
-1.77091

> <s_i_glide_gridfile>
wee1_glide-grid

> <s_m_Source_File>
wee1_decoys_glide_SP.sdf

> <s_m_Source_Path>
/Users/zhangxujun/Desktop

> <s_m_entry_id>
3910

> <s_m_entry_name>
wee1_decoys_glide_SP.3635

> <s_m_subgroup_title>
wee1_decoys_glide_SP

> <s_m_subgroupid>
wee1_decoys_glide_SP


$$$$
