ZINC15972856_446
                    3D
 Schrodinger Suite 2024-2.
 60 66  0  0  1  0            999 V2000
    3.0072   53.4469   28.5264 C   0  0  0  0  0  0
    2.9135   53.5141   27.0153 C   0  0  0  0  0  0
    3.8862   54.1969   26.2755 C   0  0  0  0  0  0
    3.7893   54.2742   24.8832 C   0  0  0  0  0  0
    2.7147   53.6552   24.2464 C   0  0  0  0  0  0
    1.7601   52.9506   24.9573 C   0  0  0  0  0  0
    1.8447   52.8970   26.3522 C   0  0  0  0  0  0
    0.7234   52.4141   24.0023 C   0  0  1  0  0  0
    0.4548   50.8541   23.9749 C   0  0  1  0  0  0
    0.6959   50.4042   24.9394 H   0  0  0  0  0  0
   -1.0172   50.6802   23.7049 C   0  0  1  0  0  0
   -1.4615   50.0383   24.4651 H   0  0  0  0  0  0
   -1.6177   52.1016   23.6909 C   0  0  2  0  0  0
   -1.7001   52.4444   22.6576 H   0  0  0  0  0  0
   -0.6053   52.9402   24.2979 N   0  0  0  0  0  0
   -3.0341   52.2584   24.3001 C   0  0  0  0  0  0
   -3.2129   51.8237   25.7543 C   0  0  0  0  0  0
   -2.2939   51.2627   26.6306 C   0  0  0  0  0  0
   -2.9001   50.8973   27.8021 N   0  0  0  0  0  0
   -2.4191   50.3616   28.5175 H   0  0  0  0  0  0
   -4.2162   51.2943   27.7845 C   0  0  0  0  0  0
   -4.4424   51.8957   26.5049 C   0  0  0  0  0  0
   -5.7265   52.3910   26.2216 C   0  0  0  0  0  0
   -6.7269   52.2857   27.1878 C   0  0  0  0  0  0
   -6.4762   51.6923   28.4223 C   0  0  0  0  0  0
   -5.2219   51.1778   28.7525 C   0  0  0  0  0  0
   -1.1084   49.9944   22.3566 C   0  0  0  0  0  0
   -2.1718   49.8215   21.7546 O   0  0  0  0  0  0
    0.1452   49.6053   21.9828 N   0  0  0  0  0  0
    1.1031   50.0139   22.8699 C   0  0  0  0  0  0
    2.3059   49.7619   22.8399 O   0  0  0  0  0  0
    0.4217   48.8592   20.7971 C   0  0  0  0  0  0
   -0.4245   47.8062   20.4018 C   0  0  0  0  0  0
   -0.1310   47.0495   19.2713 C   0  0  0  0  0  0
    0.9982   47.3420   18.5138 C   0  0  0  0  0  0
    1.8366   48.3894   18.8785 C   0  0  0  0  0  0
    1.5538   49.1465   20.0126 C   0  0  0  0  0  0
    1.2812   46.5995   17.4196 F   0  0  0  0  0  0
    1.2390   53.0039   22.6512 C   0  0  0  0  0  0
    0.7046   52.8854   21.5517 O   0  0  0  0  0  0
    2.3826   53.6571   22.9057 N   0  0  0  0  0  0
    2.0199   53.5648   28.9735 H   0  0  0  0  0  0
    3.4117   52.4829   28.8361 H   0  0  0  0  0  0
    3.6344   54.2461   28.9248 H   0  0  0  0  0  0
    4.7142   54.6767   26.7761 H   0  0  0  0  0  0
    4.5308   54.8268   24.3249 H   0  0  0  0  0  0
    1.0868   52.3738   26.9201 H   0  0  0  0  0  0
   -0.7045   53.9219   24.0856 H   0  0  0  0  0  0
   -3.7305   51.6935   23.6782 H   0  0  0  0  0  0
   -3.3403   53.3012   24.1964 H   0  0  0  0  0  0
   -1.2493   51.0244   26.4923 H   0  0  0  0  0  0
   -5.9378   52.8443   25.2631 H   0  0  0  0  0  0
   -7.7174   52.6594   26.9714 H   0  0  0  0  0  0
   -7.2798   51.6180   29.1408 H   0  0  0  0  0  0
   -5.0380   50.7123   29.7108 H   0  0  0  0  0  0
   -1.2977   47.5483   20.9812 H   0  0  0  0  0  0
   -0.7778   46.2377   18.9787 H   0  0  0  0  0  0
    2.7050   48.6148   18.2763 H   0  0  0  0  0  0
    2.2211   49.9551   20.2712 H   0  0  0  0  0  0
    2.9116   54.1227   22.1820 H   0  0  0  0  0  0
  1  2  1  0  0  0
  1 42  1  0  0  0
  1 43  1  0  0  0
  1 44  1  0  0  0
  2  7  2  0  0  0
  2  3  1  0  0  0
  3  4  2  0  0  0
  3 45  1  0  0  0
  4  5  1  0  0  0
  4 46  1  0  0  0
  5 41  1  0  0  0
  5  6  2  0  0  0
  6  7  1  0  0  0
  6  8  1  0  0  0
  7 47  1  0  0  0
  8 15  1  0  0  0
  8  9  1  0  0  0
  8 39  1  0  0  0
  9 10  1  0  0  0
  9 30  1  0  0  0
  9 11  1  0  0  0
 11 12  1  0  0  0
 11 13  1  0  0  0
 11 27  1  0  0  0
 13 14  1  0  0  0
 13 15  1  0  0  0
 13 16  1  0  0  0
 15 48  1  0  0  0
 16 17  1  0  0  0
 16 49  1  0  0  0
 16 50  1  0  0  0
 17 22  1  0  0  0
 17 18  2  0  0  0
 18 19  1  0  0  0
 18 51  1  0  0  0
 19 20  1  0  0  0
 19 21  1  0  0  0
 21 26  2  0  0  0
 21 22  1  0  0  0
 22 23  2  0  0  0
 23 24  1  0  0  0
 23 52  1  0  0  0
 24 25  2  0  0  0
 24 53  1  0  0  0
 25 26  1  0  0  0
 25 54  1  0  0  0
 26 55  1  0  0  0
 27 28  2  0  0  0
 27 29  1  0  0  0
 29 30  1  0  0  0
 29 32  1  0  0  0
 30 31  2  0  0  0
 32 37  2  0  0  0
 32 33  1  0  0  0
 33 34  2  0  0  0
 33 56  1  0  0  0
 34 35  1  0  0  0
 34 57  1  0  0  0
 35 36  2  0  0  0
 35 38  1  0  0  0
 36 37  1  0  0  0
 36 58  1  0  0  0
 37 59  1  0  0  0
 39 40  2  0  0  0
 39 41  1  0  0  0
 41 60  1  0  0  0
M  END
> <i_i_glide_confnum>
58

> <i_i_glide_lignum>
447

> <i_i_glide_posenum>
134

> <i_i_glide_rotatable_bonds>
3

> <i_m_Source_File_Index>
2633

> <b_m_subgroup_collapsed>
0

> <r_i_docking_score>
-4.0669

> <r_i_glide_ecoul>
-1.96293

> <r_i_glide_eff_state_penalty>
0

> <r_i_glide_einternal>
4.51056

> <r_i_glide_emodel>
-46.6474

> <r_i_glide_energy>
-38.0269

> <r_i_glide_erotb>
0.250002

> <r_i_glide_esite>
-0.128671

> <r_i_glide_evdw>
-36.064

> <r_i_glide_gscore>
-4.0669

> <r_i_glide_hbond>
-0.0591671

> <r_i_glide_ligand_efficiency>
-0.109916

> <r_i_glide_ligand_efficiency_ln>
-0.882016

> <r_i_glide_ligand_efficiency_sa>
-0.366265

> <r_i_glide_lipo>
-1.70956

> <r_i_glide_metal>
0

> <r_i_glide_rewards>
-0.321864

> <s_i_glide_gridfile>
wee1_glide-grid

> <s_m_Source_File>
wee1_decoys_glide_SP.sdf

> <s_m_Source_Path>
/Users/zhangxujun/Desktop

> <s_m_entry_id>
2908

> <s_m_entry_name>
wee1_decoys_glide_SP.2633

> <s_m_subgroup_title>
wee1_decoys_glide_SP

> <s_m_subgroupid>
wee1_decoys_glide_SP


$$$$
