@<TRIPOS>MOLECULE
ZINC62794671_1817
41   43    1
SMALL
USER_CHARGES


@<TRIPOS>ATOM
      1 C1          0.2526   51.7009   24.9310 C.ar      1 UNK         0.0000 
      2 C2          1.1650   52.5773   25.5143 C.ar      1 UNK         0.0000 
      3 C3          1.2082   52.7601   26.9012 C.ar      1 UNK         0.0000 
      4 C4          0.3259   52.0034   27.6976 C.ar      1 UNK         0.0000 
      5 C5         -0.5996   51.1425   27.1023 C.ar      1 UNK         0.0000 
      6 C6         -0.6568   50.9736   25.7121 C.ar      1 UNK         0.0000 
      7 C7         -1.6313   50.0408   25.0796 C.2       1 UNK         0.0000 
      8 N8         -2.3950   50.3135   24.0875 N.2       1 UNK         0.0000 
      9 O9         -2.3865   51.6540   23.6469 O.3       1 UNK         0.0000 
     10 N10        -1.5946   48.8030   25.6817 N.pl3     1 UNK         0.0000 
     11 Cl11        0.3596   52.0691   29.4298 Cl        1 UNK         0.0000 
     12 N12         2.1571   53.6067   27.4630 N.pl3     1 UNK         0.0000 
     13 C13         1.8014   54.7668   28.2944 C.3       1 UNK         0.0000 
     14 C14         2.7410   54.9071   29.5101 C.3       1 UNK         0.0000 
     15 O15         4.1120   54.8797   29.1126 O.3       1 UNK         0.0000 
     16 C16         4.4452   53.6848   28.4064 C.3       1 UNK         0.0000 
     17 H17         4.2409   52.8107   29.0309 H         1 UNK         0.0000 
     18 C18         3.5893   53.6001   27.1092 C.3       1 UNK         0.0000 
     19 H19         3.8170   52.6240   26.6827 H         1 UNK         0.0000 
     20 C20         3.9970   54.6773   26.0650 C.3       1 UNK         0.0000 
     21 C21         5.4999   54.6123   25.7389 C.3       1 UNK         0.0000 
     22 C22         6.3705   54.6976   27.0058 C.3       1 UNK         0.0000 
     23 C23         5.9570   53.6731   28.0766 C.3       1 UNK         0.0000 
     24 H24         0.2568   51.5887   23.8546 H         1 UNK         0.0000 
     25 H25         1.8396   53.1139   24.8673 H         1 UNK         0.0000 
     26 H26        -1.2702   50.5827   27.7405 H         1 UNK         0.0000 
     27 H27        -3.0231   51.6291   22.9261 H         1 UNK         0.0000 
     28 H28        -2.2184   48.0940   25.3373 H         1 UNK         0.0000 
     29 H29        -1.2955   48.7021   26.6535 H         1 UNK         0.0000 
     30 H30         1.8271   55.6719   27.6904 H         1 UNK         0.0000 
     31 H31         0.7744   54.6754   28.6513 H         1 UNK         0.0000 
     32 H32         2.5338   55.8381   30.0369 H         1 UNK         0.0000 
     33 H33         2.5432   54.0928   30.2081 H         1 UNK         0.0000 
     34 H34         3.4264   54.5643   25.1433 H         1 UNK         0.0000 
     35 H35         3.7701   55.6802   26.4323 H         1 UNK         0.0000 
     36 H36         5.7640   55.4178   25.0532 H         1 UNK         0.0000 
     37 H37         5.7164   53.6832   25.2106 H         1 UNK         0.0000 
     38 H38         6.3045   55.6965   27.4361 H         1 UNK         0.0000 
     39 H39         7.4192   54.5489   26.7458 H         1 UNK         0.0000 
     40 H40         6.5511   53.8055   28.9796 H         1 UNK         0.0000 
     41 H41         6.2118   52.6849   27.6915 H         1 UNK         0.0000 
@<TRIPOS>BOND
     1    1    6 ar   
     2    1    2 ar   
     3    1   24 1    
     4    2    3 ar   
     5    2   25 1    
     6    3    4 ar   
     7    3   12 1    
     8    4    5 ar   
     9    4   11 1    
    10    5    6 ar   
    11    5   26 1    
    12    6    7 1    
    13    7    8 2    
    14    7   10 1    
    15    8    9 1    
    16    9   27 1    
    17   10   28 1    
    18   10   29 1    
    19   12   18 1    
    20   12   13 1    
    21   13   14 1    
    22   13   30 1    
    23   13   31 1    
    24   14   15 1    
    25   14   32 1    
    26   14   33 1    
    27   15   16 1    
    28   16   17 1    
    29   16   23 1    
    30   16   18 1    
    31   18   19 1    
    32   18   20 1    
    33   20   21 1    
    34   20   34 1    
    35   20   35 1    
    36   21   22 1    
    37   21   36 1    
    38   21   37 1    
    39   22   23 1    
    40   22   38 1    
    41   22   39 1    
    42   23   40 1    
    43   23   41 1    
@<TRIPOS>SUBSTRUCTURE
     1 UNK         1 GROUP             0       ****    0 ROOT    
