@<TRIPOS>MOLECULE
ZINC30881648_4985
76   79    1
SMALL
USER_CHARGES


@<TRIPOS>ATOM
      1 C1          6.6713   52.9655   16.4873 C.3       1 UNK         0.0000 
      2 C2          5.2627   53.5144   16.3408 C.2       1 UNK         0.0000 
      3 C3          4.3694   52.9392   15.5118 C.2       1 UNK         0.0000 
      4 C4          2.8954   53.3345   15.3409 C.3       1 UNK         0.0000 
      5 H5          2.7958   53.6614   14.3058 H         1 UNK         0.0000 
      6 C6          2.4789   54.5487   16.2612 C.3       1 UNK         0.0000 
      7 H7          2.1738   54.1250   17.2165 H         1 UNK         0.0000 
      8 C8          3.6972   55.4645   16.5624 C.3       1 UNK         0.0000 
      9 C9          4.9148   54.7410   17.1800 C.3       1 UNK         0.0000 
     10 H10         5.7452   55.4357   17.0502 H         1 UNK         0.0000 
     11 C11         4.7159   54.3724   18.6892 C.3       1 UNK         0.0000 
     12 C12         5.7594   54.9462   19.6766 C.2       1 UNK         0.0000 
     13 O13         6.7523   55.5222   19.2253 O.2       1 UNK         0.0000 
     14 N14         5.6236   54.7094   21.0114 N.am      1 UNK         0.0000 
     15 C15         6.6341   55.2968   21.9239 C.3       1 UNK         0.0000 
     16 C16         6.7586   54.4714   23.2262 C.3       1 UNK         0.0000 
     17 N17         5.4512   54.1002   23.7961 N.pl3     1 UNK         0.0000 
     18 C18         4.6284   53.3796   22.8051 C.3       1 UNK         0.0000 
     19 C19         4.3335   54.2779   21.5894 C.3       1 UNK         0.0000 
     20 C20         5.1434   54.1740   25.1960 C.ar      1 UNK         0.0000 
     21 C21         6.1329   54.3016   26.1879 C.ar      1 UNK         0.0000 
     22 C22         5.7737   54.3377   27.5388 C.ar      1 UNK         0.0000 
     23 C23         4.4264   54.2386   27.8915 C.ar      1 UNK         0.0000 
     24 C24         3.4652   54.0988   26.8878 C.ar      1 UNK         0.0000 
     25 N25         3.8575   54.0698   25.5979 N.pl3     1 UNK         0.0000 
     26 C26         1.2870   55.4142   15.7094 C.3       1 UNK         0.0000 
     27 C27         0.0577   54.6153   15.2268 C.3       1 UNK         0.0000 
     28 C28         0.7975   56.4795   16.7167 C.3       1 UNK         0.0000 
     29 C29         2.0574   52.0317   15.5191 C.3       1 UNK         0.0000 
     30 N30         2.3046   51.2972   16.7638 N.am      1 UNK         0.0000 
     31 C31         1.6426   51.4677   17.9156 C.2       1 UNK         0.0000 
     32 O32         0.5758   52.0791   18.0105 O.2       1 UNK         0.0000 
     33 N33         2.3083   50.9006   18.9372 N.am      1 UNK         0.0000 
     34 C34         1.9508   50.9258   20.2941 C.ar      1 UNK         0.0000 
     35 C35         1.3304   52.0293   20.8957 C.ar      1 UNK         0.0000 
     36 C36         1.0239   52.0013   22.2539 C.ar      1 UNK         0.0000 
     37 C37         1.3329   50.8711   23.0045 C.ar      1 UNK         0.0000 
     38 C38         1.9486   49.7741   22.4093 C.ar      1 UNK         0.0000 
     39 C39         2.2668   49.8041   21.0559 C.ar      1 UNK         0.0000 
     40 H40         7.4088   53.7204   16.2181 H         1 UNK         0.0000 
     41 H41         6.8482   52.6587   17.5176 H         1 UNK         0.0000 
     42 H42         6.8381   52.0950   15.8549 H         1 UNK         0.0000 
     43 H43         4.7086   52.0771   14.9560 H         1 UNK         0.0000 
     44 H44         4.0029   55.9730   15.6446 H         1 UNK         0.0000 
     45 H45         3.4225   56.2798   17.2292 H         1 UNK         0.0000 
     46 H46         3.7330   54.7242   18.9971 H         1 UNK         0.0000 
     47 H47         4.6880   53.2868   18.8118 H         1 UNK         0.0000 
     48 H48         7.6207   55.2546   21.4575 H         1 UNK         0.0000 
     49 H49         6.3223   56.3040   22.1882 H         1 UNK         0.0000 
     50 H50         7.2670   55.1052   23.9498 H         1 UNK         0.0000 
     51 H51         7.3748   53.5811   23.0989 H         1 UNK         0.0000 
     52 H52         3.7119   52.9849   23.2455 H         1 UNK         0.0000 
     53 H53         5.1894   52.5011   22.4843 H         1 UNK         0.0000 
     54 H54         3.8346   55.1744   21.9620 H         1 UNK         0.0000 
     55 H55         3.6661   53.7438   20.9133 H         1 UNK         0.0000 
     56 H56         7.1782   54.3423   25.9280 H         1 UNK         0.0000 
     57 H57         6.5335   54.4358   28.3043 H         1 UNK         0.0000 
     58 H58         4.1356   54.2655   28.9309 H         1 UNK         0.0000 
     59 H59         2.4035   54.0049   27.0678 H         1 UNK         0.0000 
     60 H60         1.6543   55.9500   14.8344 H         1 UNK         0.0000 
     61 H61        -0.3478   53.9848   16.0223 H         1 UNK         0.0000 
     62 H62        -0.7423   55.2774   14.8935 H         1 UNK         0.0000 
     63 H63         0.2924   53.9852   14.3672 H         1 UNK         0.0000 
     64 H64         0.5489   56.0278   17.6802 H         1 UNK         0.0000 
     65 H65         1.5387   57.2587   16.8849 H         1 UNK         0.0000 
     66 H66        -0.0939   56.9940   16.3598 H         1 UNK         0.0000 
     67 H67         2.3144   51.3442   14.7123 H         1 UNK         0.0000 
     68 H68         0.9911   52.1916   15.3918 H         1 UNK         0.0000 
     69 H69         3.0407   50.5944   16.7347 H         1 UNK         0.0000 
     70 H70         3.1298   50.3571   18.7003 H         1 UNK         0.0000 
     71 H71         1.0936   52.9045   20.3161 H         1 UNK         0.0000 
     72 H72         0.5400   52.8454   22.7197 H         1 UNK         0.0000 
     73 H73         1.0884   50.8394   24.0559 H         1 UNK         0.0000 
     74 H74         2.1726   48.8968   22.9927 H         1 UNK         0.0000 
     75 H75         2.7323   48.9415   20.6010 H         1 UNK         0.0000 
     76 H76         3.1551   53.9581   24.8798 H         1 UNK         0.0000 
@<TRIPOS>BOND
     1    1    2 1    
     2    1   40 1    
     3    1   41 1    
     4    1   42 1    
     5    2    9 1    
     6    2    3 2    
     7    3    4 1    
     8    3   43 1    
     9    4    5 1    
    10    4    6 1    
    11    4   29 1    
    12    6    7 1    
    13    6    8 1    
    14    6   26 1    
    15    8    9 1    
    16    8   44 1    
    17    8   45 1    
    18    9   10 1    
    19    9   11 1    
    20   11   12 1    
    21   11   46 1    
    22   11   47 1    
    23   12   13 2    
    24   12   14 am   BACKBONE|DICT|INTERRES
    25   14   19 1    
    26   14   15 1    
    27   15   16 1    
    28   15   48 1    
    29   15   49 1    
    30   16   17 1    
    31   16   50 1    
    32   16   51 1    
    33   17   18 1    
    34   17   20 1    
    35   18   19 1    
    36   18   52 1    
    37   18   53 1    
    38   19   54 1    
    39   19   55 1    
    40   20   25 ar   
    41   20   21 ar   
    42   21   22 ar   
    43   21   56 1    
    44   22   23 ar   
    45   22   57 1    
    46   23   24 ar   
    47   23   58 1    
    48   24   25 ar   
    49   24   59 1    
    50   25   76 1    
    51   26   27 1    
    52   26   28 1    
    53   26   60 1    
    54   27   61 1    
    55   27   62 1    
    56   27   63 1    
    57   28   64 1    
    58   28   65 1    
    59   28   66 1    
    60   29   30 1    
    61   29   67 1    
    62   29   68 1    
    63   30   31 am   BACKBONE|DICT|INTERRES
    64   30   69 1    
    65   31   32 2    
    66   31   33 am   BACKBONE|DICT|INTERRES
    67   33   34 1    
    68   33   70 1    
    69   34   39 ar   
    70   34   35 ar   
    71   35   36 ar   
    72   35   71 1    
    73   36   37 ar   
    74   36   72 1    
    75   37   38 ar   
    76   37   73 1    
    77   38   39 ar   
    78   38   74 1    
    79   39   75 1    
@<TRIPOS>SUBSTRUCTURE
     1 UNK         1 GROUP             0       ****    0 ROOT    
