ZINC33010946_4440
                    3D
 Schrodinger Suite 2024-2.
 51 55  0  0  1  0            999 V2000
    7.0205   55.4876   22.2260 C   0  0  0  0  0  0
    6.7210   55.6933   20.8806 C   0  0  0  0  0  0
    5.7546   54.9020   20.2609 C   0  0  0  0  0  0
    5.1045   53.8913   20.9665 C   0  0  0  0  0  0
    5.4206   53.6768   22.3061 C   0  0  0  0  0  0
    6.3512   54.4967   22.9436 C   0  0  0  0  0  0
    6.7025   54.2720   24.6667 S   0  0  0  0  0  0
    5.4441   55.1792   25.6328 C   0  0  0  0  0  0
    4.0612   54.5317   25.6039 C   0  0  0  0  0  0
    3.5545   54.1024   26.7811 N   0  0  0  0  0  0
    2.3177   53.5216   26.7820 C   0  0  0  0  0  0
    1.6684   53.2193   25.5426 C   0  0  0  0  0  0
    0.4957   52.4858   25.1254 C   0  0  0  0  0  0
    0.3120   52.5268   23.7629 C   0  0  0  0  0  0
    1.5071   53.4174   22.8819 S   0  0  0  0  0  0
    2.3257   53.7587   24.3871 C   0  0  0  0  0  0
    3.4600   54.4509   24.3994 N   0  0  0  0  0  0
   -0.9124   51.7940   23.2935 C   0  0  0  0  0  0
   -1.3120   51.0067   24.5443 C   0  0  0  0  0  0
   -0.5998   51.6427   25.7466 C   0  0  0  0  0  0
    1.7878   53.2487   28.0621 N   0  0  0  0  0  0
    0.3816   52.9483   28.3481 C   0  0  0  0  0  0
    0.0212   53.2923   29.8001 C   0  0  2  0  0  0
   -0.8958   53.8677   29.8510 H   0  0  0  0  0  0
    1.1909   54.1549   30.2194 C   0  0  0  0  0  0
    2.3653   53.6946   29.3447 C   0  0  1  0  0  0
    3.0560   54.5276   29.2083 H   0  0  0  0  0  0
    3.2515   52.5870   29.9736 C   0  0  0  0  0  0
    3.0248   52.0973   31.0768 O   0  0  0  0  0  0
    4.3224   52.2098   29.2820 N   0  0  0  0  0  0
   -0.0859   52.0967   30.5465 O   0  0  0  0  0  0
    5.3624   55.1760   18.6047 Cl  0  0  0  0  0  0
    7.7681   56.0962   22.7117 H   0  0  0  0  0  0
    7.2314   56.4599   20.3173 H   0  0  0  0  0  0
    4.3642   53.2744   20.4766 H   0  0  0  0  0  0
    4.9218   52.8961   22.8565 H   0  0  0  0  0  0
    5.3879   56.2072   25.2805 H   0  0  0  0  0  0
    5.7989   55.2389   26.6630 H   0  0  0  0  0  0
   -1.7006   52.4793   22.9797 H   0  0  0  0  0  0
   -0.7136   51.1181   22.4603 H   0  0  0  0  0  0
   -2.3954   50.9757   24.6770 H   0  0  0  0  0  0
   -0.9832   49.9700   24.4397 H   0  0  0  0  0  0
   -0.2170   50.8449   26.3851 H   0  0  0  0  0  0
   -1.3045   52.2320   26.3318 H   0  0  0  0  0  0
    0.1569   51.8967   28.1796 H   0  0  0  0  0  0
   -0.2340   53.6056   27.7331 H   0  0  0  0  0  0
    1.3666   54.0802   31.2851 H   0  0  0  0  0  0
    0.9952   55.2106   30.0233 H   0  0  0  0  0  0
    4.9508   51.5247   29.6668 H   0  0  0  0  0  0
    4.4707   52.5676   28.3493 H   0  0  0  0  0  0
   -0.3702   52.2730   31.4536 H   0  0  0  0  0  0
  1  6  2  0  0  0
  1  2  1  0  0  0
  1 33  1  0  0  0
  2  3  2  0  0  0
  2 34  1  0  0  0
  3  4  1  0  0  0
  3 32  1  0  0  0
  4  5  2  0  0  0
  4 35  1  0  0  0
  5  6  1  0  0  0
  5 36  1  0  0  0
  6  7  1  0  0  0
  7  8  1  0  0  0
  8  9  1  0  0  0
  8 37  1  0  0  0
  8 38  1  0  0  0
  9 17  2  0  0  0
  9 10  1  0  0  0
 10 11  2  0  0  0
 11 12  1  0  0  0
 11 21  1  0  0  0
 12 16  2  0  0  0
 12 13  1  0  0  0
 13 20  1  0  0  0
 13 14  2  0  0  0
 14 15  1  0  0  0
 14 18  1  0  0  0
 15 16  1  0  0  0
 16 17  1  0  0  0
 18 19  1  0  0  0
 18 39  1  0  0  0
 18 40  1  0  0  0
 19 20  1  0  0  0
 19 41  1  0  0  0
 19 42  1  0  0  0
 20 43  1  0  0  0
 20 44  1  0  0  0
 21 26  1  0  0  0
 21 22  1  0  0  0
 22 23  1  0  0  0
 22 45  1  0  0  0
 22 46  1  0  0  0
 23 24  1  0  0  0
 23 25  1  0  0  0
 23 31  1  0  0  0
 25 26  1  0  0  0
 25 47  1  0  0  0
 25 48  1  0  0  0
 26 27  1  0  0  0
 26 28  1  0  0  0
 28 29  2  0  0  0
 28 30  1  0  0  0
 30 49  1  0  0  0
 30 50  1  0  0  0
 31 51  1  0  0  0
M  END
> <i_i_glide_confnum>
54

> <i_i_glide_lignum>
4441

> <i_i_glide_posenum>
361

> <i_i_glide_rotatable_bonds>
6

> <i_m_Source_File_Index>
5067

> <b_m_subgroup_collapsed>
0

> <r_i_docking_score>
-7.18367

> <r_i_glide_ecoul>
-3.27268

> <r_i_glide_eff_state_penalty>
0

> <r_i_glide_einternal>
4.92478

> <r_i_glide_emodel>
-72.4648

> <r_i_glide_energy>
-52.2133

> <r_i_glide_erotb>
0.37893

> <r_i_glide_esite>
0

> <r_i_glide_evdw>
-48.9406

> <r_i_glide_gscore>
-7.18367

> <r_i_glide_hbond>
-0.309131

> <r_i_glide_ligand_efficiency>
-0.239456

> <r_i_glide_ligand_efficiency_ln>
-1.63221

> <r_i_glide_ligand_efficiency_sa>
-0.744044

> <r_i_glide_lipo>
-3.14824

> <r_i_glide_metal>
0

> <r_i_glide_rewards>
-1.16729

> <s_i_glide_gridfile>
wee1_glide-grid

> <s_m_Source_File>
wee1_decoys_glide_SP.sdf

> <s_m_Source_Path>
/Users/zhangxujun/Desktop

> <s_m_entry_id>
5342

> <s_m_entry_name>
wee1_decoys_glide_SP.5067

> <s_m_subgroup_title>
wee1_decoys_glide_SP

> <s_m_subgroupid>
wee1_decoys_glide_SP


$$$$
