@<TRIPOS>MOLECULE
ZINC39885771_4046
53   56    1
SMALL
USER_CHARGES


@<TRIPOS>ATOM
      1 C1         -1.1288   50.2570   26.4816 C.3       1 UNK         0.0000 
      2 C2         -0.3063   51.3493   27.1403 C.ar      1 UNK         0.0000 
      3 C3          0.4791   52.1818   26.3488 C.ar      1 UNK         0.0000 
      4 C4          1.2222   53.1953   26.9399 C.ar      1 UNK         0.0000 
      5 C5          1.2091   53.3733   28.3265 C.ar      1 UNK         0.0000 
      6 C6          0.4125   52.5414   29.1187 C.ar      1 UNK         0.0000 
      7 C7         -0.3508   51.5385   28.5237 C.ar      1 UNK         0.0000 
      8 C8          2.0141   54.5005   28.9661 C.3       1 UNK         0.0000 
      9 S9          3.6010   53.9277   29.6767 S.3       1 UNK         0.0000 
     10 C10         4.7412   54.0534   28.3250 C.2       1 UNK         0.0000 
     11 N11         6.0199   53.7691   28.4200 N.2       1 UNK         0.0000 
     12 N12         6.7018   53.8349   27.2073 N.2       1 UNK         0.0000 
     13 C13         5.9158   54.1500   26.2082 C.2       1 UNK         0.0000 
     14 S14         4.2876   54.4967   26.7086 S.3       1 UNK         0.0000 
     15 N15         6.3388   54.0968   24.8859 N.am      1 UNK         0.0000 
     16 C16         5.5702   54.1812   23.7762 C.2       1 UNK         0.0000 
     17 O17         4.3800   54.4966   23.7537 O.2       1 UNK         0.0000 
     18 C18         6.3045   53.7922   22.4852 C.3       1 UNK         0.0000 
     19 N19         5.4662   53.8884   21.2527 N.am      1 UNK         0.0000 
     20 C20         4.6070   52.8844   20.9272 C.2       1 UNK         0.0000 
     21 O21         4.4289   51.8770   21.6184 O.2       1 UNK         0.0000 
     22 C22         3.9557   53.1615   19.6651 C.2       1 UNK         0.0000 
     23 C23         3.0365   52.3082   19.1508 C.2       1 UNK         0.0000 
     24 C24         2.2517   52.4504   17.9043 C.ar      1 UNK         0.0000 
     25 C25         1.7983   53.6907   17.4411 C.ar      1 UNK         0.0000 
     26 C26         1.0575   53.7795   16.2659 C.ar      1 UNK         0.0000 
     27 C27         0.7613   52.6243   15.5423 C.ar      1 UNK         0.0000 
     28 C28         1.2111   51.3835   15.9942 C.ar      1 UNK         0.0000 
     29 C29         1.9473   51.2989   17.1729 C.ar      1 UNK         0.0000 
     30 C30        -0.0276   52.7195   14.2494 C.3       1 UNK         0.0000 
     31 S31         4.5938   54.6603   18.9904 S.3       1 UNK         0.0000 
     32 C32         5.6570   54.8966   20.3480 C.2       1 UNK         0.0000 
     33 S33         6.7044   56.1905   20.3603 S.2       1 UNK         0.0000 
     34 H34        -2.0697   50.1017   27.0112 H         1 UNK         0.0000 
     35 H35        -1.3880   50.5157   25.4549 H         1 UNK         0.0000 
     36 H36        -0.5774   49.3159   26.4805 H         1 UNK         0.0000 
     37 H37         0.5056   52.0552   25.2762 H         1 UNK         0.0000 
     38 H38         1.7762   53.8533   26.2927 H         1 UNK         0.0000 
     39 H39         0.3765   52.6704   30.1912 H         1 UNK         0.0000 
     40 H40        -0.9679   50.8974   29.1383 H         1 UNK         0.0000 
     41 H41         1.4290   54.9482   29.7704 H         1 UNK         0.0000 
     42 H42         2.1640   55.3222   28.2659 H         1 UNK         0.0000 
     43 H43         7.3069   53.8479   24.7530 H         1 UNK         0.0000 
     44 H44         6.6096   52.7550   22.6232 H         1 UNK         0.0000 
     45 H45         7.2282   54.3676   22.4159 H         1 UNK         0.0000 
     46 H46         2.8068   51.4079   19.7061 H         1 UNK         0.0000 
     47 H47         2.0003   54.5916   17.9998 H         1 UNK         0.0000 
     48 H48         0.7154   54.7452   15.9232 H         1 UNK         0.0000 
     49 H49         1.0000   50.4839   15.4346 H         1 UNK         0.0000 
     50 H50         2.3043   50.3316   17.5007 H         1 UNK         0.0000 
     51 H51         0.1268   53.6845   13.7646 H         1 UNK         0.0000 
     52 H52         0.2984   51.9584   13.5392 H         1 UNK         0.0000 
     53 H53        -1.0929   52.5855   14.4395 H         1 UNK         0.0000 
@<TRIPOS>BOND
     1    1    2 1    
     2    1   34 1    
     3    1   35 1    
     4    1   36 1    
     5    2    7 ar   
     6    2    3 ar   
     7    3    4 ar   
     8    3   37 1    
     9    4    5 ar   
    10    4   38 1    
    11    5    6 ar   
    12    5    8 1    
    13    6    7 ar   
    14    6   39 1    
    15    7   40 1    
    16    8    9 1    
    17    8   41 1    
    18    8   42 1    
    19    9   10 1    
    20   10   14 1    
    21   10   11 2    
    22   11   12 1    
    23   12   13 2    
    24   13   14 1    
    25   13   15 am   BACKBONE|DICT|INTERRES
    26   15   16 am   BACKBONE|DICT|INTERRES
    27   15   43 1    
    28   16   17 2    
    29   16   18 1    
    30   18   19 1    
    31   18   44 1    
    32   18   45 1    
    33   19   32 am   BACKBONE|DICT|INTERRES
    34   19   20 am   BACKBONE|DICT|INTERRES
    35   20   21 2    
    36   20   22 1    
    37   22   23 2    
    38   22   31 1    
    39   23   24 1    
    40   23   46 1    
    41   24   29 ar   
    42   24   25 ar   
    43   25   26 ar   
    44   25   47 1    
    45   26   27 ar   
    46   26   48 1    
    47   27   28 ar   
    48   27   30 1    
    49   28   29 ar   
    50   28   49 1    
    51   29   50 1    
    52   30   51 1    
    53   30   52 1    
    54   30   53 1    
    55   31   32 1    
    56   32   33 2    
@<TRIPOS>SUBSTRUCTURE
     1 UNK         1 GROUP             0       ****    0 ROOT    
