@<TRIPOS>MOLECULE
ZINC16608357_3003
61   64    1
SMALL
USER_CHARGES


@<TRIPOS>ATOM
      1 C1          3.5563   50.4651   13.6526 C.3       1 UNK         0.0000 
      2 O2          2.4308   51.3169   13.8267 O.3       1 UNK         0.0000 
      3 C3          2.4000   52.1837   14.9021 C.ar      1 UNK         0.0000 
      4 C4          3.4181   52.3030   15.8612 C.ar      1 UNK         0.0000 
      5 C5          3.3138   53.2264   16.9041 C.ar      1 UNK         0.0000 
      6 C6          2.1562   54.0122   17.0063 C.ar      1 UNK         0.0000 
      7 C7          1.1286   53.9105   16.0576 C.ar      1 UNK         0.0000 
      8 C8          1.2695   52.9948   15.0145 C.ar      1 UNK         0.0000 
      9 O9         -0.0305   54.6606   16.0741 O.3       1 UNK         0.0000 
     10 C10        -0.2059   55.6398   17.0946 C.3       1 UNK         0.0000 
     11 N11         4.3867   53.2970   17.8148 N.am      1 UNK         0.0000 
     12 C12         4.7849   54.3837   18.5178 C.2       1 UNK         0.0000 
     13 O13         4.2376   55.4843   18.4813 O.2       1 UNK         0.0000 
     14 N14         5.8741   54.1277   19.2628 N.am      1 UNK         0.0000 
     15 C15         6.3656   54.8645   20.4486 C.3       1 UNK         0.0000 
     16 H16         7.3795   54.5022   20.5884 H         1 UNK         0.0000 
     17 C17         6.4899   56.4052   20.2368 C.3       1 UNK         0.0000 
     18 C18         7.3522   56.8851   19.0780 C.ar      1 UNK         0.0000 
     19 C19         6.8933   57.9396   18.2563 C.ar      1 UNK         0.0000 
     20 C20         7.7124   58.4543   17.2622 C.ar      1 UNK         0.0000 
     21 C21         8.9930   57.9490   17.0794 C.ar      1 UNK         0.0000 
     22 C22         9.4706   56.9299   17.8965 C.ar      1 UNK         0.0000 
     23 C23         8.6677   56.4005   18.8978 C.ar      1 UNK         0.0000 
     24 C24         5.5820   54.5329   21.7454 C.2       1 UNK         0.0000 
     25 O25         4.3905   54.2295   21.6855 O.2       1 UNK         0.0000 
     26 N26         6.3054   54.6573   22.8822 N.am      1 UNK         0.0000 
     27 C27         5.8751   54.4987   24.1927 C.2       1 UNK         0.0000 
     28 N28         6.7045   54.6644   25.1904 N.2       1 UNK         0.0000 
     29 N29         6.1220   54.4263   26.4259 N.2       1 UNK         0.0000 
     30 C30         4.8512   54.0986   26.3427 C.2       1 UNK         0.0000 
     31 S31         4.2470   54.0977   24.7004 S.3       1 UNK         0.0000 
     32 C32         4.0013   53.7028   27.5145 C.ar      1 UNK         0.0000 
     33 C33         4.6099   53.3105   28.7148 C.ar      1 UNK         0.0000 
     34 C34         3.8356   52.9029   29.7971 C.ar      1 UNK         0.0000 
     35 C35         2.4481   52.8950   29.6890 C.ar      1 UNK         0.0000 
     36 C36         1.8284   53.2939   28.5076 C.ar      1 UNK         0.0000 
     37 C37         2.6030   53.6958   27.4229 C.ar      1 UNK         0.0000 
     38 F38         1.7007   52.4980   30.7423 F         1 UNK         0.0000 
     39 H39         3.4187   49.8741   12.7461 H         1 UNK         0.0000 
     40 H40         4.4811   51.0311   13.5354 H         1 UNK         0.0000 
     41 H41         3.6650   49.7668   14.4813 H         1 UNK         0.0000 
     42 H42         4.3017   51.6871   15.8046 H         1 UNK         0.0000 
     43 H43         2.0542   54.6983   17.8303 H         1 UNK         0.0000 
     44 H44         0.4841   52.9054   14.2792 H         1 UNK         0.0000 
     45 H45        -1.1526   56.1591   16.9436 H         1 UNK         0.0000 
     46 H46        -0.2366   55.1776   18.0817 H         1 UNK         0.0000 
     47 H47         0.5863   56.3907   17.0747 H         1 UNK         0.0000 
     48 H48         4.9273   52.4441   17.8938 H         1 UNK         0.0000 
     49 H49         6.3732   53.2754   19.0601 H         1 UNK         0.0000 
     50 H50         5.5041   56.8413   20.1083 H         1 UNK         0.0000 
     51 H51         6.8813   56.8877   21.1342 H         1 UNK         0.0000 
     52 H52         5.9070   58.3578   18.3947 H         1 UNK         0.0000 
     53 H53         7.3505   59.2593   16.6367 H         1 UNK         0.0000 
     54 H54         9.6270   58.3560   16.3055 H         1 UNK         0.0000 
     55 H55        10.4739   56.5509   17.7633 H         1 UNK         0.0000 
     56 H56         9.0684   55.6312   19.5412 H         1 UNK         0.0000 
     57 H57         7.2808   54.9096   22.7887 H         1 UNK         0.0000 
     58 H58         5.6868   53.3054   28.8093 H         1 UNK         0.0000 
     59 H59         4.3016   52.5871   30.7176 H         1 UNK         0.0000 
     60 H60         0.7511   53.2816   28.4334 H         1 UNK         0.0000 
     61 H61         2.1074   53.9964   26.5110 H         1 UNK         0.0000 
@<TRIPOS>BOND
     1    1    2 1    
     2    1   39 1    
     3    1   40 1    
     4    1   41 1    
     5    2    3 1    
     6    3    8 ar   
     7    3    4 ar   
     8    4    5 ar   
     9    4   42 1    
    10    5    6 ar   
    11    5   11 1    
    12    6    7 ar   
    13    6   43 1    
    14    7    8 ar   
    15    7    9 1    
    16    8   44 1    
    17    9   10 1    
    18   10   45 1    
    19   10   46 1    
    20   10   47 1    
    21   11   12 am   BACKBONE|DICT|INTERRES
    22   11   48 1    
    23   12   13 2    
    24   12   14 am   BACKBONE|DICT|INTERRES
    25   14   15 1    
    26   14   49 1    
    27   15   16 1    
    28   15   17 1    
    29   15   24 1    
    30   17   18 1    
    31   17   50 1    
    32   17   51 1    
    33   18   23 ar   
    34   18   19 ar   
    35   19   20 ar   
    36   19   52 1    
    37   20   21 ar   
    38   20   53 1    
    39   21   22 ar   
    40   21   54 1    
    41   22   23 ar   
    42   22   55 1    
    43   23   56 1    
    44   24   25 2    
    45   24   26 am   BACKBONE|DICT|INTERRES
    46   26   27 am   BACKBONE|DICT|INTERRES
    47   26   57 1    
    48   27   31 1    
    49   27   28 2    
    50   28   29 1    
    51   29   30 2    
    52   30   31 1    
    53   30   32 1    
    54   32   37 ar   
    55   32   33 ar   
    56   33   34 ar   
    57   33   58 1    
    58   34   35 ar   
    59   34   59 1    
    60   35   36 ar   
    61   35   38 1    
    62   36   37 ar   
    63   36   60 1    
    64   37   61 1    
@<TRIPOS>SUBSTRUCTURE
     1 UNK         1 GROUP             0       ****    0 ROOT    
