@<TRIPOS>MOLECULE
ZINC23443981_1076
73   76    1
SMALL
USER_CHARGES


@<TRIPOS>ATOM
      1 C1          5.4948   55.6497   17.5938 C.3       1 UNK         0.0000 
      2 O2          6.4906   55.8747   18.5847 O.3       1 UNK         0.0000 
      3 C3          6.2653   55.4375   19.8750 C.ar      1 UNK         0.0000 
      4 C4          7.2681   55.6966   20.8073 C.ar      1 UNK         0.0000 
      5 C5          7.1194   55.2978   22.1322 C.ar      1 UNK         0.0000 
      6 C6          5.9822   54.6168   22.5451 C.ar      1 UNK         0.0000 
      7 C7          4.9441   54.3785   21.6416 C.ar      1 UNK         0.0000 
      8 C8          5.1037   54.7763   20.3062 C.ar      1 UNK         0.0000 
      9 C9          3.6267   53.7370   22.0833 C.3       1 UNK         0.0000 
     10 H10         2.8324   54.4450   21.8448 H         1 UNK         0.0000 
     11 C11         3.3562   52.4152   21.3343 C.3       1 UNK         0.0000 
     12 N12         2.1522   51.6899   21.9808 N.4       1 UNK         0.0000 
     13 C13         2.0547   50.2296   21.5013 C.3       1 UNK         0.0000 
     14 C14         0.9220   49.5450   22.2885 C.3       1 UNK         0.0000 
     15 N15        -0.3361   50.2820   22.0367 N.am      1 UNK         0.0000 
     16 C16        -0.3317   51.7023   22.4432 C.3       1 UNK         0.0000 
     17 C17         0.8170   52.4168   21.6999 C.3       1 UNK         0.0000 
     18 C18        -1.5129   49.6635   21.7286 C.2       1 UNK         0.0000 
     19 O19        -2.6089   50.2129   21.8681 O.2       1 UNK         0.0000 
     20 C20        -1.4803   48.2571   21.1812 C.ar      1 UNK         0.0000 
     21 C21        -0.6683   47.9256   20.0861 C.ar      1 UNK         0.0000 
     22 C22        -0.6737   46.6317   19.5708 C.ar      1 UNK         0.0000 
     23 C23        -1.4900   45.6571   20.1397 C.ar      1 UNK         0.0000 
     24 C24        -2.3168   45.9680   21.2331 C.ar      1 UNK         0.0000 
     25 C25        -2.3063   47.2713   21.7348 C.ar      1 UNK         0.0000 
     26 O26        -3.1530   45.0662   21.8640 O.3       1 UNK         0.0000 
     27 C27        -3.3143   43.7691   21.3033 C.3       1 UNK         0.0000 
     28 O28         3.5943   53.4314   23.4844 O.3       1 UNK         0.0000 
     29 C29         3.2321   54.4944   24.3570 C.3       1 UNK         0.0000 
     30 C30         3.1435   53.9654   25.7806 C.ar      1 UNK         0.0000 
     31 C31         4.2312   54.0958   26.6462 C.ar      1 UNK         0.0000 
     32 C32         4.1456   53.6195   27.9526 C.ar      1 UNK         0.0000 
     33 C33         2.9638   53.0220   28.4145 C.ar      1 UNK         0.0000 
     34 C34         1.8779   52.8900   27.5353 C.ar      1 UNK         0.0000 
     35 C35         1.9709   53.3529   26.2252 C.ar      1 UNK         0.0000 
     36 C36         2.8906   52.5260   29.8282 C.2       1 UNK         0.0000 
     37 O37         3.8840   52.3272   30.5326 O.2       1 UNK         0.0000 
     38 O38         1.6159   52.4138   30.2829 O.3       1 UNK         0.0000 
     39 C39         1.3412   52.0972   31.6432 C.3       1 UNK         0.0000 
     40 H40         5.8414   56.0544   16.6422 H         1 UNK         0.0000 
     41 H41         5.3026   54.5860   17.4508 H         1 UNK         0.0000 
     42 H42         4.5600   56.1552   17.8450 H         1 UNK         0.0000 
     43 H43         8.1723   56.1980   20.4950 H         1 UNK         0.0000 
     44 H44         7.9032   55.5153   22.8402 H         1 UNK         0.0000 
     45 H45         5.9061   54.3079   23.5765 H         1 UNK         0.0000 
     46 H46         4.2993   54.5921   19.6115 H         1 UNK         0.0000 
     47 H47         4.2015   51.7352   21.4528 H         1 UNK         0.0000 
     48 H48         3.1262   52.5421   20.2744 H         1 UNK         0.0000 
     49 H49         1.9148   50.2126   20.4163 H         1 UNK         0.0000 
     50 H50         3.0064   49.7550   21.7485 H         1 UNK         0.0000 
     51 H51         1.1492   49.5757   23.3558 H         1 UNK         0.0000 
     52 H52         0.8686   48.4967   22.0292 H         1 UNK         0.0000 
     53 H53        -1.2766   52.1988   22.2151 H         1 UNK         0.0000 
     54 H54        -0.1793   51.7814   23.5208 H         1 UNK         0.0000 
     55 H55         0.6620   52.4866   20.6206 H         1 UNK         0.0000 
     56 H56         0.9199   53.4190   22.1108 H         1 UNK         0.0000 
     57 H57        -0.0383   48.6712   19.6204 H         1 UNK         0.0000 
     58 H58        -0.0479   46.3867   18.7247 H         1 UNK         0.0000 
     59 H59        -1.4715   44.6655   19.7175 H         1 UNK         0.0000 
     60 H60        -2.9541   47.5140   22.5662 H         1 UNK         0.0000 
     61 H61        -4.0215   43.1961   21.9053 H         1 UNK         0.0000 
     62 H62        -3.7043   43.8191   20.2844 H         1 UNK         0.0000 
     63 H63        -2.3655   43.2332   21.2981 H         1 UNK         0.0000 
     64 H64         3.9655   55.2965   24.3133 H         1 UNK         0.0000 
     65 H65         2.2696   54.9240   24.0735 H         1 UNK         0.0000 
     66 H66         5.1472   54.5593   26.3107 H         1 UNK         0.0000 
     67 H67         5.0037   53.7264   28.6014 H         1 UNK         0.0000 
     68 H68         0.9564   52.4223   27.8517 H         1 UNK         0.0000 
     69 H69         1.1240   53.2452   25.5622 H         1 UNK         0.0000 
     70 H70         0.3032   51.7813   31.7442 H         1 UNK         0.0000 
     71 H71         1.9739   51.2960   32.0213 H         1 UNK         0.0000 
     72 H72         1.4847   52.9654   32.2845 H         1 UNK         0.0000 
     73 H73         2.3204   51.6926   22.9794 H         1 UNK         0.0000 
@<TRIPOS>BOND
     1    1    2 1    
     2    1   40 1    
     3    1   41 1    
     4    1   42 1    
     5    2    3 1    
     6    3    8 ar   
     7    3    4 ar   
     8    4    5 ar   
     9    4   43 1    
    10    5    6 ar   
    11    5   44 1    
    12    6    7 ar   
    13    6   45 1    
    14    7    8 ar   
    15    7    9 1    
    16    8   46 1    
    17    9   10 1    
    18    9   11 1    
    19    9   28 1    
    20   11   12 1    
    21   11   47 1    
    22   11   48 1    
    23   12   17 1    
    24   12   13 1    
    25   12   73 1    
    26   13   14 1    
    27   13   49 1    
    28   13   50 1    
    29   14   15 1    
    30   14   51 1    
    31   14   52 1    
    32   15   16 1    
    33   15   18 am   BACKBONE|DICT|INTERRES
    34   16   17 1    
    35   16   53 1    
    36   16   54 1    
    37   17   55 1    
    38   17   56 1    
    39   18   19 2    
    40   18   20 1    
    41   20   25 ar   
    42   20   21 ar   
    43   21   22 ar   
    44   21   57 1    
    45   22   23 ar   
    46   22   58 1    
    47   23   24 ar   
    48   23   59 1    
    49   24   25 ar   
    50   24   26 1    
    51   25   60 1    
    52   26   27 1    
    53   27   61 1    
    54   27   62 1    
    55   27   63 1    
    56   28   29 1    
    57   29   30 1    
    58   29   64 1    
    59   29   65 1    
    60   30   35 ar   
    61   30   31 ar   
    62   31   32 ar   
    63   31   66 1    
    64   32   33 ar   
    65   32   67 1    
    66   33   34 ar   
    67   33   36 1    
    68   34   35 ar   
    69   34   68 1    
    70   35   69 1    
    71   36   37 2    
    72   36   38 1    
    73   38   39 1    
    74   39   70 1    
    75   39   71 1    
    76   39   72 1    
@<TRIPOS>SUBSTRUCTURE
     1 UNK         1 GROUP             0       ****    0 ROOT    
