@<TRIPOS>MOLECULE
ZINC23181319_5301
63   66    1
SMALL
USER_CHARGES


@<TRIPOS>ATOM
      1 C1          0.7044   48.9024   25.0300 C.3       1 UNK         0.0000 
      2 C2         -0.6636   49.5703   25.2020 C.3       1 UNK         0.0000 
      3 H3         -0.5772   50.2556   26.0460 H         1 UNK         0.0000 
      4 C4         -1.1062   50.4146   23.9489 C.3       1 UNK         0.0000 
      5 H5         -1.0534   49.7286   23.1020 H         1 UNK         0.0000 
      6 C6         -2.5621   50.8656   24.0453 C.2       1 UNK         0.0000 
      7 C7         -3.6640   50.3670   23.3458 C.2       1 UNK         0.0000 
      8 C8         -4.8871   50.9458   23.6900 C.2       1 UNK         0.0000 
      9 C9         -4.7556   51.9142   24.6655 C.2       1 UNK         0.0000 
     10 S10        -3.1094   52.0914   25.1676 S.3       1 UNK         0.0000 
     11 N11        -0.2609   51.5893   23.6237 N.3       1 UNK         0.0000 
     12 C12         0.6262   51.3887   22.4662 C.3       1 UNK         0.0000 
     13 C13         1.5915   52.5703   22.1313 C.3       1 UNK         0.0000 
     14 N14         1.9807   53.4954   23.2173 N.pl3     1 UNK         0.0000 
     15 C15         0.8604   53.6741   24.1489 C.3       1 UNK         0.0000 
     16 C16         0.3802   52.3256   24.7140 C.3       1 UNK         0.0000 
     17 C17         3.3121   53.8286   23.4937 C.ar      1 UNK         0.0000 
     18 C18         3.7499   54.0105   24.8189 C.ar      1 UNK         0.0000 
     19 C19         5.0751   54.3383   25.1118 C.ar      1 UNK         0.0000 
     20 C20         5.9969   54.4971   24.0809 C.ar      1 UNK         0.0000 
     21 C21         5.5832   54.3549   22.7598 C.ar      1 UNK         0.0000 
     22 C22         4.2551   54.0422   22.4645 C.ar      1 UNK         0.0000 
     23 F23         3.9047   53.9644   21.1594 F         1 UNK         0.0000 
     24 N24        -1.6136   48.5574   25.6817 N.am      1 UNK         0.0000 
     25 C25        -2.2214   47.5725   24.9741 C.2       1 UNK         0.0000 
     26 O26        -2.0514   47.4269   23.7606 O.2       1 UNK         0.0000 
     27 C27        -3.1314   46.6438   25.7364 C.2       1 UNK         0.0000 
     28 O28        -3.6954   45.6967   25.1759 O.2       1 UNK         0.0000 
     29 N29        -3.2956   46.8966   27.0545 N.am      1 UNK         0.0000 
     30 C30        -4.0212   46.0627   28.0023 C.3       1 UNK         0.0000 
     31 C31        -5.1001   46.8132   28.7651 C.ar      1 UNK         0.0000 
     32 C32        -6.4471   46.6450   28.4338 C.ar      1 UNK         0.0000 
     33 C33        -7.4295   47.2927   29.1802 C.ar      1 UNK         0.0000 
     34 C34        -7.0619   48.1010   30.2541 C.ar      1 UNK         0.0000 
     35 C35        -5.7206   48.2688   30.5884 C.ar      1 UNK         0.0000 
     36 C36        -4.7384   47.6179   29.8478 C.ar      1 UNK         0.0000 
     37 F37        -8.0142   48.7253   30.9814 F         1 UNK         0.0000 
     38 H38         1.4619   49.5982   24.6808 H         1 UNK         0.0000 
     39 H39         1.0772   48.4973   25.9719 H         1 UNK         0.0000 
     40 H40         0.6718   48.0985   24.2945 H         1 UNK         0.0000 
     41 H41        -3.5780   49.5797   22.6114 H         1 UNK         0.0000 
     42 H42        -5.8304   50.6655   23.2437 H         1 UNK         0.0000 
     43 H43        -5.5345   52.5170   25.1097 H         1 UNK         0.0000 
     44 H44         1.3194   50.6073   22.7841 H         1 UNK         0.0000 
     45 H45         0.0969   51.0520   21.5726 H         1 UNK         0.0000 
     46 H46         1.0734   53.2225   21.4278 H         1 UNK         0.0000 
     47 H47         2.4513   52.1768   21.5908 H         1 UNK         0.0000 
     48 H48         0.0400   54.2157   23.6817 H         1 UNK         0.0000 
     49 H49         1.1565   54.3103   24.9780 H         1 UNK         0.0000 
     50 H50        -0.3459   52.5274   25.5006 H         1 UNK         0.0000 
     51 H51         1.2226   51.7883   25.1516 H         1 UNK         0.0000 
     52 H52         3.0787   53.8585   25.6486 H         1 UNK         0.0000 
     53 H53         5.3877   54.4494   26.1398 H         1 UNK         0.0000 
     54 H54         7.0270   54.7410   24.3015 H         1 UNK         0.0000 
     55 H55         6.2885   54.5012   21.9541 H         1 UNK         0.0000 
     56 H56        -1.6993   48.5362   26.6965 H         1 UNK         0.0000 
     57 H57        -2.7460   47.6350   27.4982 H         1 UNK         0.0000 
     58 H58        -3.2848   45.6971   28.7196 H         1 UNK         0.0000 
     59 H59        -4.4437   45.1669   27.5415 H         1 UNK         0.0000 
     60 H60        -6.7356   46.0177   27.6026 H         1 UNK         0.0000 
     61 H61        -8.4729   47.1709   28.9316 H         1 UNK         0.0000 
     62 H62        -5.4432   48.8966   31.4210 H         1 UNK         0.0000 
     63 H63        -3.6958   47.7423   30.1079 H         1 UNK         0.0000 
@<TRIPOS>BOND
     1    1    2 1    
     2    1   38 1    
     3    1   39 1    
     4    1   40 1    
     5    2    3 1    
     6    2    4 1    
     7    2   24 1    
     8    4    5 1    
     9    4    6 1    
    10    4   11 1    
    11    6   10 1    
    12    6    7 2    
    13    7    8 1    
    14    7   41 1    
    15    8    9 2    
    16    8   42 1    
    17    9   10 1    
    18    9   43 1    
    19   11   16 1    
    20   11   12 1    
    21   12   13 1    
    22   12   44 1    
    23   12   45 1    
    24   13   14 1    
    25   13   46 1    
    26   13   47 1    
    27   14   15 1    
    28   14   17 1    
    29   15   16 1    
    30   15   48 1    
    31   15   49 1    
    32   16   50 1    
    33   16   51 1    
    34   17   22 ar   
    35   17   18 ar   
    36   18   19 ar   
    37   18   52 1    
    38   19   20 ar   
    39   19   53 1    
    40   20   21 ar   
    41   20   54 1    
    42   21   22 ar   
    43   21   55 1    
    44   22   23 1    
    45   24   25 am   BACKBONE|DICT|INTERRES
    46   24   56 1    
    47   25   26 2    
    48   25   27 1    
    49   27   28 2    
    50   27   29 am   BACKBONE|DICT|INTERRES
    51   29   30 1    
    52   29   57 1    
    53   30   31 1    
    54   30   58 1    
    55   30   59 1    
    56   31   36 ar   
    57   31   32 ar   
    58   32   33 ar   
    59   32   60 1    
    60   33   34 ar   
    61   33   61 1    
    62   34   35 ar   
    63   34   37 1    
    64   35   36 ar   
    65   35   62 1    
    66   36   63 1    
@<TRIPOS>SUBSTRUCTURE
     1 UNK         1 GROUP             0       ****    0 ROOT    
