@<TRIPOS>MOLECULE
ZINC01275773_1955
49   53    1
SMALL
USER_CHARGES


@<TRIPOS>ATOM
      1 C1          6.6762   54.4279   24.7016 C.ar      1 UNK         0.0000 
      2 C2          6.1610   54.1861   23.4299 C.ar      1 UNK         0.0000 
      3 C3          4.7829   54.0969   23.2492 C.ar      1 UNK         0.0000 
      4 C4          3.9244   54.2579   24.3406 C.ar      1 UNK         0.0000 
      5 C5          4.4504   54.4956   25.6159 C.ar      1 UNK         0.0000 
      6 C6          5.8287   54.5755   25.7964 C.ar      1 UNK         0.0000 
      7 C7          2.4158   54.2544   24.1206 C.3       1 UNK         0.0000 
      8 O8          1.7352   53.6966   25.2457 O.3       1 UNK         0.0000 
      9 C9          1.1368   52.4546   25.1877 C.ar      1 UNK         0.0000 
     10 C10         1.1041   51.6239   24.0576 C.ar      1 UNK         0.0000 
     11 C11         0.4539   50.3964   24.1146 C.ar      1 UNK         0.0000 
     12 C12        -0.1680   49.9747   25.2932 C.ar      1 UNK         0.0000 
     13 C13        -0.1025   50.7853   26.4290 C.ar      1 UNK         0.0000 
     14 C14         0.5333   52.0213   26.3675 C.ar      1 UNK         0.0000 
     15 C15        -0.8817   48.6929   25.3582 C.2       1 UNK         0.0000 
     16 N16        -1.8546   48.2982   24.6215 N.2       1 UNK         0.0000 
     17 N17        -2.4145   49.2033   23.7232 N.pl3     1 UNK         0.0000 
     18 C18        -3.2745   50.2628   23.9891 C.ar      1 UNK         0.0000 
     19 N19        -3.5795   50.8957   22.8820 N.2       1 UNK         0.0000 
     20 N20        -2.9613   50.2360   21.8323 N.2       1 UNK         0.0000 
     21 C21        -2.3064   49.2183   22.3340 C.ar      1 UNK         0.0000 
     22 S22        -1.4231   48.0785   21.3023 S.3       1 UNK         0.0000 
     23 C23        -3.8814   50.6347   25.2758 C.ar      1 UNK         0.0000 
     24 C24        -4.9393   51.4908   25.5478 C.ar      1 UNK         0.0000 
     25 C25        -5.1484   51.4296   26.9122 C.ar      1 UNK         0.0000 
     26 N26        -4.2975   50.6511   27.5318 N.2       1 UNK         0.0000 
     27 H27        -2.7974   49.5015   26.7063 H         1 UNK         0.0000 
     28 N28        -3.5421   50.1659   26.5296 N.pl3     1 UNK         0.0000 
     29 C29        -6.3537   52.2312   27.3340 C.3       1 UNK         0.0000 
     30 C30        -7.0020   52.5592   25.9736 C.3       1 UNK         0.0000 
     31 C31        -5.9116   52.4354   24.8944 C.3       1 UNK         0.0000 
     32 H32         7.7439   54.4975   24.8373 H         1 UNK         0.0000 
     33 H33         6.8279   54.0866   22.5870 H         1 UNK         0.0000 
     34 H34         4.3848   53.9216   22.2595 H         1 UNK         0.0000 
     35 H35         3.7932   54.6294   26.4625 H         1 UNK         0.0000 
     36 H36         6.2367   54.7588   26.7794 H         1 UNK         0.0000 
     37 H37         2.1078   55.2970   24.0817 H         1 UNK         0.0000 
     38 H38         2.1390   53.8520   23.1477 H         1 UNK         0.0000 
     39 H39         1.5735   51.8892   23.1242 H         1 UNK         0.0000 
     40 H40         0.4375   49.7733   23.2316 H         1 UNK         0.0000 
     41 H41        -0.5668   50.4744   27.3546 H         1 UNK         0.0000 
     42 H42         0.5598   52.6510   27.2444 H         1 UNK         0.0000 
     43 H43        -0.4978   48.0381   26.1303 H         1 UNK         0.0000 
     44 H44        -7.0396   51.6605   27.9625 H         1 UNK         0.0000 
     45 H45        -6.0944   53.1366   27.8810 H         1 UNK         0.0000 
     46 H46        -7.7900   51.8324   25.7675 H         1 UNK         0.0000 
     47 H47        -7.4804   53.5402   25.9688 H         1 UNK         0.0000 
     48 H48        -5.4522   53.4053   24.7026 H         1 UNK         0.0000 
     49 H49        -6.3105   52.0686   23.9491 H         1 UNK         0.0000 
@<TRIPOS>BOND
     1    1    6 ar   
     2    1    2 ar   
     3    1   32 1    
     4    2    3 ar   
     5    2   33 1    
     6    3    4 ar   
     7    3   34 1    
     8    4    5 ar   
     9    4    7 1    
    10    5    6 ar   
    11    5   35 1    
    12    6   36 1    
    13    7    8 1    
    14    7   37 1    
    15    7   38 1    
    16    8    9 1    
    17    9   14 ar   
    18    9   10 ar   
    19   10   11 ar   
    20   10   39 1    
    21   11   12 ar   
    22   11   40 1    
    23   12   13 ar   
    24   12   15 1    
    25   13   14 ar   
    26   13   41 1    
    27   14   42 1    
    28   15   16 2    
    29   15   43 1    
    30   16   17 1    
    31   17   21 ar   
    32   17   18 ar   
    33   18   19 ar   
    34   18   23 1    
    35   19   20 ar   
    36   20   21 ar   
    37   21   22 1    
    38   23   24 ar   
    39   23   28 ar   
    40   24   31 1    
    41   24   25 ar   
    42   25   29 1    
    43   25   26 ar   
    44   26   28 ar   
    45   27   28 1    
    46   29   30 1    
    47   29   44 1    
    48   29   45 1    
    49   30   31 1    
    50   30   46 1    
    51   30   47 1    
    52   31   48 1    
    53   31   49 1    
@<TRIPOS>SUBSTRUCTURE
     1 UNK         1 GROUP             0       ****    0 ROOT    
