ZINC13204480_1987
                    3D
 Schrodinger Suite 2024-2.
 57 59  0  0  1  0            999 V2000
    0.9226   51.7951   24.2651 C   0  0  0  0  0  0
   -0.3758   50.9625   24.2073 C   0  0  2  0  0  0
   -0.5484   50.7254   23.1566 H   0  0  0  0  0  0
   -1.5895   51.7810   24.7023 C   0  0  0  0  0  0
   -2.8998   50.9948   24.5328 C   0  0  0  0  0  0
   -2.8180   49.6386   25.2575 C   0  0  0  0  0  0
   -1.5927   48.7782   24.8467 C   0  0  2  0  0  0
   -1.5280   47.9637   25.5746 H   0  0  0  0  0  0
   -0.2643   49.5963   24.9589 C   0  0  2  0  0  0
    0.5182   49.0262   24.4529 H   0  0  0  0  0  0
    0.1652   49.7228   26.4384 C   0  0  0  0  0  0
   -1.7486   48.1952   23.5063 N   0  0  0  0  0  0
   -2.0906   46.9215   23.2399 C   0  0  0  0  0  0
   -2.3528   46.0970   24.1179 O   0  0  0  0  0  0
   -2.0941   46.6833   21.9105 N   0  0  0  0  0  0
   -2.2990   45.5034   21.2817 C   0  0  0  0  0  0
   -2.4924   44.4216   21.8439 O   0  0  0  0  0  0
   -2.2629   45.5811   19.7466 C   0  0  0  0  0  0
   -2.8400   44.0792   18.8697 S   0  0  0  0  0  0
   -1.2999   43.2427   18.6270 C   0  0  0  0  0  0
   -0.2868   43.3155   19.4579 N   0  0  0  0  0  0
    0.7461   42.5671   18.9245 N   0  0  0  0  0  0
    0.3391   42.0840   17.7740 C   0  0  0  0  0  0
   -0.9915   42.4198   17.5554 N   0  0  0  0  0  0
   -1.8789   41.9977   16.4551 C   0  0  0  0  0  0
   -2.9324   40.9544   16.8749 C   0  0  0  0  0  0
   -3.2955   40.9013   18.0693 O   0  0  0  0  0  0
    1.2386   41.2638   16.8984 C   0  0  0  0  0  0
    2.0853   40.3084   17.4809 C   0  0  0  0  0  0
    2.9562   39.5619   16.6896 C   0  0  0  0  0  0
    2.9931   39.7680   15.3131 C   0  0  0  0  0  0
    2.1676   40.7257   14.7232 C   0  0  0  0  0  0
    1.3000   41.4789   15.5160 C   0  0  0  0  0  0
    4.0727   38.8414   14.3331 Cl  0  0  0  0  0  0
    1.1295   52.1640   25.2713 H   0  0  0  0  0  0
    1.7840   51.2104   23.9394 H   0  0  0  0  0  0
    0.8610   52.6652   23.6103 H   0  0  0  0  0  0
   -1.4483   52.0869   25.7405 H   0  0  0  0  0  0
   -1.6515   52.7164   24.1470 H   0  0  0  0  0  0
   -3.7361   51.5743   24.9253 H   0  0  0  0  0  0
   -3.1093   50.8398   23.4735 H   0  0  0  0  0  0
   -2.7877   49.8037   26.3356 H   0  0  0  0  0  0
   -3.7338   49.0717   25.0865 H   0  0  0  0  0  0
   -0.5806   50.2386   27.0423 H   0  0  0  0  0  0
    1.1044   50.2566   26.5520 H   0  0  0  0  0  0
    0.3073   48.7351   26.8814 H   0  0  0  0  0  0
   -1.8747   48.8727   22.7709 H   0  0  0  0  0  0
   -1.9015   47.4724   21.3157 H   0  0  0  0  0  0
   -2.9232   46.3919   19.4357 H   0  0  0  0  0  0
   -1.2620   45.8522   19.4109 H   0  0  0  0  0  0
   -2.3909   42.8765   16.0696 H   0  0  0  0  0  0
   -1.2982   41.5799   15.6424 H   0  0  0  0  0  0
    2.0751   40.1448   18.5509 H   0  0  0  0  0  0
    3.6079   38.8274   17.1447 H   0  0  0  0  0  0
    2.2087   40.8915   13.6564 H   0  0  0  0  0  0
    0.6946   42.2433   15.0479 H   0  0  0  0  0  0
   -3.4033   40.2065   15.9903 O   0  5  0  0  0  0
  1  2  1  0  0  0
  1 35  1  0  0  0
  1 36  1  0  0  0
  1 37  1  0  0  0
  2  3  1  0  0  0
  2  9  1  0  0  0
  2  4  1  0  0  0
  4  5  1  0  0  0
  4 38  1  0  0  0
  4 39  1  0  0  0
  5  6  1  0  0  0
  5 40  1  0  0  0
  5 41  1  0  0  0
  6  7  1  0  0  0
  6 42  1  0  0  0
  6 43  1  0  0  0
  7  8  1  0  0  0
  7  9  1  0  0  0
  7 12  1  0  0  0
  9 10  1  0  0  0
  9 11  1  0  0  0
 11 44  1  0  0  0
 11 45  1  0  0  0
 11 46  1  0  0  0
 12 13  1  0  0  0
 12 47  1  0  0  0
 13 14  2  0  0  0
 13 15  1  0  0  0
 15 16  1  0  0  0
 15 48  1  0  0  0
 16 17  2  0  0  0
 16 18  1  0  0  0
 18 19  1  0  0  0
 18 49  1  0  0  0
 18 50  1  0  0  0
 19 20  1  0  0  0
 20 24  1  0  0  0
 20 21  2  0  0  0
 21 22  1  0  0  0
 22 23  2  0  0  0
 23 24  1  0  0  0
 23 28  1  0  0  0
 24 25  1  0  0  0
 25 26  1  0  0  0
 25 51  1  0  0  0
 25 52  1  0  0  0
 26 27  2  0  0  0
 26 57  1  0  0  0
 28 33  2  0  0  0
 28 29  1  0  0  0
 29 30  2  0  0  0
 29 53  1  0  0  0
 30 31  1  0  0  0
 30 54  1  0  0  0
 31 32  2  0  0  0
 31 34  1  0  0  0
 32 33  1  0  0  0
 32 55  1  0  0  0
 33 56  1  0  0  0
M  CHG  1  57  -1
M  END
> <i_i_glide_confnum>
81

> <i_i_glide_lignum>
1988

> <i_i_glide_posenum>
170

> <i_i_glide_rotatable_bonds>
10

> <i_m_Source_File_Index>
215

> <b_m_subgroup_collapsed>
0

> <r_i_docking_score>
-3.85024

> <r_i_glide_ecoul>
-8.83988

> <r_i_glide_eff_state_penalty>
0

> <r_i_glide_einternal>
6.10556

> <r_i_glide_emodel>
-43.6228

> <r_i_glide_energy>
-31.9624

> <r_i_glide_erotb>
0.556592

> <r_i_glide_esite>
-0.374267

> <r_i_glide_evdw>
-23.1225

> <r_i_glide_gscore>
-3.85024

> <r_i_glide_hbond>
-0.540672

> <r_i_glide_ligand_efficiency>
-0.12032

> <r_i_glide_ligand_efficiency_ln>
-0.862175

> <r_i_glide_ligand_efficiency_sa>
-0.381993

> <r_i_glide_lipo>
-0.336547

> <r_i_glide_metal>
0

> <r_i_glide_rewards>
-0.673242

> <s_i_glide_gridfile>
wee1_glide-grid

> <s_m_Source_File>
wee1_decoys_glide_SP.sdf

> <s_m_Source_Path>
/Users/zhangxujun/Desktop

> <s_m_entry_id>
490

> <s_m_entry_name>
wee1_decoys_glide_SP.215

> <s_m_subgroup_title>
wee1_decoys_glide_SP

> <s_m_subgroupid>
wee1_decoys_glide_SP


$$$$
