@<TRIPOS>MOLECULE
ZINC03012217_3399
62   66    1
SMALL
USER_CHARGES


@<TRIPOS>ATOM
      1 C1         -0.7448   51.6966   28.1651 C.3       1 UNK         0.0000 
      2 C2         -0.4968   51.6966   29.6819 C.3       1 UNK         0.0000 
      3 O3          0.7833   52.2455   29.9973 O.3       1 UNK         0.0000 
      4 C4          0.9416   53.5880   30.0226 C.2       1 UNK         0.0000 
      5 O5         -0.0133   54.3674   30.0822 O.2       1 UNK         0.0000 
      6 N6          2.2842   53.9762   29.8789 N.am      1 UNK         0.0000 
      7 C7          2.5227   55.2426   29.1754 C.3       1 UNK         0.0000 
      8 C8          3.0331   54.8318   27.7864 C.3       1 UNK         0.0000 
      9 C9          4.3806   54.0871   27.8706 C.3       1 UNK         0.0000 
     10 C10         4.1549   52.8226   28.7294 C.3       1 UNK         0.0000 
     11 C11         3.4303   53.0571   30.0805 C.3       1 UNK         0.0000 
     12 N12         4.8950   53.8154   26.5355 N.am      1 UNK         0.0000 
     13 C13         5.8338   54.4951   25.8418 C.2       1 UNK         0.0000 
     14 O14         6.6698   55.2548   26.3407 O.2       1 UNK         0.0000 
     15 C15         5.7101   54.3250   24.4073 C.ar      1 UNK         0.0000 
     16 C16         6.5644   54.8601   23.4271 C.ar      1 UNK         0.0000 
     17 C17         5.9908   54.5504   22.2056 C.ar      1 UNK         0.0000 
     18 N18         4.8448   53.8397   22.5017 N.pl3     1 UNK         0.0000 
     19 N19         4.7075   53.6968   23.8209 N.2       1 UNK         0.0000 
     20 C20         3.9541   53.1688   21.5466 C.3       1 UNK         0.0000 
     21 H21         4.3779   52.1803   21.3625 H         1 UNK         0.0000 
     22 C22         4.0733   53.9657   20.2299 C.3       1 UNK         0.0000 
     23 C23         5.5266   54.2801   19.8083 C.3       1 UNK         0.0000 
     24 H24         6.0296   53.3427   19.5649 H         1 UNK         0.0000 
     25 N25         6.2985   54.8969   20.9028 N.pl3     1 UNK         0.0000 
     26 C26         5.5331   55.0795   18.5094 C.ar      1 UNK         0.0000 
     27 C27         5.5046   54.4038   17.2702 C.ar      1 UNK         0.0000 
     28 C28         5.4552   55.1149   16.0617 C.ar      1 UNK         0.0000 
     29 C29         5.4391   56.5043   16.1307 C.ar      1 UNK         0.0000 
     30 C30         5.4641   57.1610   17.3259 C.ar      1 UNK         0.0000 
     31 C31         5.5075   56.4852   18.5354 C.ar      1 UNK         0.0000 
     32 O32         5.3958   58.4973   17.1149 O.3       1 UNK         0.0000 
     33 C33         5.4917   58.6759   15.7272 C.3       1 UNK         0.0000 
     34 O34         5.3545   57.4140   15.1232 O.3       1 UNK         0.0000 
     35 C35         2.4887   52.9568   22.0326 C.3       1 UNK         0.0000 
     36 F36         1.7152   52.4988   21.0469 F         1 UNK         0.0000 
     37 F37         2.3933   52.0669   23.0185 F         1 UNK         0.0000 
     38 F38         1.9438   54.0890   22.4819 F         1 UNK         0.0000 
     39 H39        -1.6910   51.2069   27.9343 H         1 UNK         0.0000 
     40 H40         0.0402   51.1514   27.6404 H         1 UNK         0.0000 
     41 H41        -0.7838   52.7079   27.7599 H         1 UNK         0.0000 
     42 H42        -1.2949   52.2227   30.2049 H         1 UNK         0.0000 
     43 H43        -0.5435   50.6775   30.0466 H         1 UNK         0.0000 
     44 H44         1.6505   55.8999   29.1259 H         1 UNK         0.0000 
     45 H45         3.3092   55.7983   29.6817 H         1 UNK         0.0000 
     46 H46         2.2872   54.2123   27.2831 H         1 UNK         0.0000 
     47 H47         3.1122   55.6966   27.1411 H         1 UNK         0.0000 
     48 H48         5.0916   54.7423   28.3841 H         1 UNK         0.0000 
     49 H49         5.1043   52.3141   28.9100 H         1 UNK         0.0000 
     50 H50         3.5456   52.1140   28.1629 H         1 UNK         0.0000 
     51 H51         4.1027   53.5116   30.8101 H         1 UNK         0.0000 
     52 H52         3.1187   52.1017   30.5048 H         1 UNK         0.0000 
     53 H53         4.3803   53.1218   26.0133 H         1 UNK         0.0000 
     54 H54         7.4661   55.4360   23.5900 H         1 UNK         0.0000 
     55 H55         3.5603   53.4260   19.4320 H         1 UNK         0.0000 
     56 H56         3.5094   54.8941   20.3196 H         1 UNK         0.0000 
     57 H57         7.2658   55.0272   20.6451 H         1 UNK         0.0000 
     58 H58         5.5026   53.3224   17.2451 H         1 UNK         0.0000 
     59 H59         5.4219   54.5927   15.1175 H         1 UNK         0.0000 
     60 H60         5.5046   57.0250   19.4695 H         1 UNK         0.0000 
     61 H61         6.4725   59.0925   15.4958 H         1 UNK         0.0000 
     62 H62         4.7087   59.3585   15.3960 H         1 UNK         0.0000 
@<TRIPOS>BOND
     1    1    2 1    
     2    1   39 1    
     3    1   40 1    
     4    1   41 1    
     5    2    3 1    
     6    2   42 1    
     7    2   43 1    
     8    3    4 1    
     9    4    5 2    
    10    4    6 am   BACKBONE|DICT|INTERRES
    11    6   11 1    
    12    6    7 1    
    13    7    8 1    
    14    7   44 1    
    15    7   45 1    
    16    8    9 1    
    17    8   46 1    
    18    8   47 1    
    19    9   10 1    
    20    9   12 1    
    21    9   48 1    
    22   10   11 1    
    23   10   49 1    
    24   10   50 1    
    25   11   51 1    
    26   11   52 1    
    27   12   13 am   BACKBONE|DICT|INTERRES
    28   12   53 1    
    29   13   14 2    
    30   13   15 1    
    31   15   19 ar   
    32   15   16 ar   
    33   16   17 ar   
    34   16   54 1    
    35   17   25 1    
    36   17   18 ar   
    37   18   19 ar   
    38   18   20 1    
    39   20   21 1    
    40   20   22 1    
    41   20   35 1    
    42   22   23 1    
    43   22   55 1    
    44   22   56 1    
    45   23   24 1    
    46   23   25 1    
    47   23   26 1    
    48   25   57 1    
    49   26   31 ar   
    50   26   27 ar   
    51   27   28 ar   
    52   27   58 1    
    53   28   29 ar   
    54   28   59 1    
    55   29   34 1    
    56   29   30 ar   
    57   30   31 ar   
    58   30   32 1    
    59   31   60 1    
    60   32   33 1    
    61   33   34 1    
    62   33   61 1    
    63   33   62 1    
    64   35   36 1    
    65   35   37 1    
    66   35   38 1    
@<TRIPOS>SUBSTRUCTURE
     1 UNK         1 GROUP             0       ****    0 ROOT    
