@<TRIPOS>MOLECULE
ZINC20745141_1231
52   54    1
SMALL
USER_CHARGES


@<TRIPOS>ATOM
      1 C1          0.3598   51.2181   27.8164 C.3       1 UNK         0.0000 
      2 O2          0.0839   50.6040   26.5668 O.3       1 UNK         0.0000 
      3 C3         -1.0896   50.8424   25.9261 C.2       1 UNK         0.0000 
      4 O4         -1.9766   51.5954   26.3363 O.2       1 UNK         0.0000 
      5 C5         -1.2385   50.0496   24.6292 C.3       1 UNK         0.0000 
      6 H6         -2.0776   50.4509   24.0551 H         1 UNK         0.0000 
      7 C7         -1.5071   48.5457   24.8866 C.3       1 UNK         0.0000 
      8 C8         -2.9598   48.2551   25.3012 C.3       1 UNK         0.0000 
      9 S9         -3.3871   46.4968   25.3750 S.3       1 UNK         0.0000 
     10 C10        -2.7796   46.0966   27.0328 C.3       1 UNK         0.0000 
     11 N11        -0.0061   50.2078   23.8355 N.am      1 UNK         0.0000 
     12 C12         0.2584   51.2299   22.9938 C.2       1 UNK         0.0000 
     13 O13        -0.5851   52.0995   22.7572 O.2       1 UNK         0.0000 
     14 N14         1.5280   51.2675   22.5019 N.am      1 UNK         0.0000 
     15 C15         2.3075   50.0239   22.2359 C.3       1 UNK         0.0000 
     16 C16         2.0656   49.5615   20.7665 C.3       1 UNK         0.0000 
     17 C17         2.3045   50.7647   19.8711 C.ar      1 UNK         0.0000 
     18 C18         2.3160   52.0725   20.3432 C.ar      1 UNK         0.0000 
     19 N19         2.5937   52.8967   19.2689 N.pl3     1 UNK         0.0000 
     20 C20         2.8446   52.1196   18.1606 C.ar      1 UNK         0.0000 
     21 N21         2.7023   50.8049   18.5441 N.pl3     1 UNK         0.0000 
     22 H22         2.9567   50.0085   17.9611 H         1 UNK         0.0000 
     23 C23         2.0167   52.4859   21.7875 C.3       1 UNK         0.0000 
     24 H24         1.2061   53.2152   21.7406 H         1 UNK         0.0000 
     25 C25         3.1265   53.2288   22.5488 C.ar      1 UNK         0.0000 
     26 C26         4.4510   53.2708   22.0834 C.ar      1 UNK         0.0000 
     27 C27         5.4473   53.8988   22.8346 C.ar      1 UNK         0.0000 
     28 C28         5.1337   54.4960   24.0545 C.ar      1 UNK         0.0000 
     29 C29         3.8178   54.4835   24.5132 C.ar      1 UNK         0.0000 
     30 C30         2.8197   53.8614   23.7637 C.ar      1 UNK         0.0000 
     31 F31         1.5524   53.8653   24.2349 F         1 UNK         0.0000 
     32 Br32        6.4978   55.3446   25.0790 Br        1 UNK         0.0000 
     33 H33        -0.3812   50.9246   28.5619 H         1 UNK         0.0000 
     34 H34         1.3422   50.9058   28.1742 H         1 UNK         0.0000 
     35 H35         0.3556   52.3055   27.7296 H         1 UNK         0.0000 
     36 H36        -1.2937   47.9711   23.9838 H         1 UNK         0.0000 
     37 H37        -0.8292   48.1512   25.6476 H         1 UNK         0.0000 
     38 H38        -3.1731   48.7095   26.2711 H         1 UNK         0.0000 
     39 H39        -3.6424   48.7193   24.5895 H         1 UNK         0.0000 
     40 H40        -1.7033   46.2522   27.1001 H         1 UNK         0.0000 
     41 H41        -3.2651   46.7288   27.7786 H         1 UNK         0.0000 
     42 H42        -2.9990   45.0590   27.2760 H         1 UNK         0.0000 
     43 H43         0.6923   49.4949   23.9802 H         1 UNK         0.0000 
     44 H44         3.3570   50.2834   22.3713 H         1 UNK         0.0000 
     45 H45         2.1647   49.2522   22.9922 H         1 UNK         0.0000 
     46 H46         2.7044   48.7193   20.5071 H         1 UNK         0.0000 
     47 H47         1.0425   49.2010   20.6549 H         1 UNK         0.0000 
     48 H48         3.1610   52.4637   17.1861 H         1 UNK         0.0000 
     49 H49         4.7275   52.7942   21.1545 H         1 UNK         0.0000 
     50 H50         6.4670   53.9170   22.4816 H         1 UNK         0.0000 
     51 H51         3.5645   54.9501   25.4531 H         1 UNK         0.0000 
     52 H52         2.5960   53.9117   19.3104 H         1 UNK         0.0000 
@<TRIPOS>BOND
     1    1    2 1    
     2    1   33 1    
     3    1   34 1    
     4    1   35 1    
     5    2    3 1    
     6    3    4 2    
     7    3    5 1    
     8    5    6 1    
     9    5    7 1    
    10    5   11 1    
    11    7    8 1    
    12    7   36 1    
    13    7   37 1    
    14    8    9 1    
    15    8   38 1    
    16    8   39 1    
    17    9   10 1    
    18   10   40 1    
    19   10   41 1    
    20   10   42 1    
    21   11   12 am   BACKBONE|DICT|INTERRES
    22   11   43 1    
    23   12   13 2    
    24   12   14 am   BACKBONE|DICT|INTERRES
    25   14   23 1    
    26   14   15 1    
    27   15   16 1    
    28   15   44 1    
    29   15   45 1    
    30   16   17 1    
    31   16   46 1    
    32   16   47 1    
    33   17   21 ar   
    34   17   18 ar   
    35   18   19 ar   
    36   18   23 1    
    37   19   20 ar   
    38   19   52 1    
    39   20   21 ar   
    40   20   48 1    
    41   21   22 1    
    42   23   24 1    
    43   23   25 1    
    44   25   30 ar   
    45   25   26 ar   
    46   26   27 ar   
    47   26   49 1    
    48   27   28 ar   
    49   27   50 1    
    50   28   29 ar   
    51   28   32 1    
    52   29   30 ar   
    53   29   51 1    
    54   30   31 1    
@<TRIPOS>SUBSTRUCTURE
     1 UNK         1 GROUP             0       ****    0 ROOT    
