@<TRIPOS>MOLECULE
ZINC07785034_3911
40   43    1
SMALL
USER_CHARGES


@<TRIPOS>ATOM
      1 C1          7.4600   55.3533   16.5370 C.ar      1 UNK         0.0000 
      2 C2          7.4337   56.5815   15.8835 C.ar      1 UNK         0.0000 
      3 C3          7.2463   57.7519   16.6142 C.ar      1 UNK         0.0000 
      4 C4          7.0911   57.7031   18.0000 C.ar      1 UNK         0.0000 
      5 C5          7.1132   56.4640   18.6801 C.ar      1 UNK         0.0000 
      6 C6          7.2968   55.2936   17.9196 C.ar      1 UNK         0.0000 
      7 C7          6.8894   56.3719   20.1778 C.2       1 UNK         0.0000 
      8 O8          6.3045   57.2628   20.7902 O.2       1 UNK         0.0000 
      9 N9          7.4084   55.2967   20.8056 N.am      1 UNK         0.0000 
     10 N10         7.1048   55.0644   22.1597 N.am      1 UNK         0.0000 
     11 C11         5.9269   54.4967   22.5116 C.2       1 UNK         0.0000 
     12 O12         5.1007   54.0549   21.7097 O.2       1 UNK         0.0000 
     13 C13         5.7006   54.4465   23.9351 C.2       1 UNK         0.0000 
     14 C14         6.6166   54.5667   24.9805 C.2       1 UNK         0.0000 
     15 C15         6.0391   54.3849   26.2410 C.2       1 UNK         0.0000 
     16 C16         4.6759   54.0966   26.1949 C.2       1 UNK         0.0000 
     17 S17         4.1082   54.0968   24.5456 S.3       1 UNK         0.0000 
     18 C18         3.7841   53.7703   27.3035 C.2       1 UNK         0.0000 
     19 N19         2.4851   53.6965   27.1826 N.2       1 UNK         0.0000 
     20 C20         1.8913   53.3018   28.3392 C.ar      1 UNK         0.0000 
     21 C21         0.5105   53.1295   28.5133 C.ar      1 UNK         0.0000 
     22 C22         0.0460   52.7234   29.7653 C.ar      1 UNK         0.0000 
     23 C23         0.9228   52.4964   30.8243 C.ar      1 UNK         0.0000 
     24 C24         2.3022   52.6296   30.6675 C.ar      1 UNK         0.0000 
     25 C25         2.7789   53.0511   29.4188 C.ar      1 UNK         0.0000 
     26 S26         4.4227   53.3571   28.8817 S.3       1 UNK         0.0000 
     27 O27         6.9260   58.8969   18.6547 O.3       1 UNK         0.0000 
     28 H28         7.5962   54.4432   15.9705 H         1 UNK         0.0000 
     29 H29         7.5538   56.6268   14.8109 H         1 UNK         0.0000 
     30 H30         7.2242   58.7009   16.0978 H         1 UNK         0.0000 
     31 H31         7.2990   54.3161   18.3814 H         1 UNK         0.0000 
     32 H32         7.6835   54.4540   20.3251 H         1 UNK         0.0000 
     33 H33         7.7786   55.4605   22.8009 H         1 UNK         0.0000 
     34 H34         7.6678   54.7625   24.8378 H         1 UNK         0.0000 
     35 H35         6.6035   54.4307   27.1615 H         1 UNK         0.0000 
     36 H36        -0.1762   53.2968   27.6975 H         1 UNK         0.0000 
     37 H37        -1.0113   52.5707   29.9214 H         1 UNK         0.0000 
     38 H38         0.5154   52.1832   31.7779 H         1 UNK         0.0000 
     39 H39         2.9743   52.4352   31.4912 H         1 UNK         0.0000 
     40 H40         6.7021   59.6422   18.0813 H         1 UNK         0.0000 
@<TRIPOS>BOND
     1    1    6 ar   
     2    1    2 ar   
     3    1   28 1    
     4    2    3 ar   
     5    2   29 1    
     6    3    4 ar   
     7    3   30 1    
     8    4    5 ar   
     9    4   27 1    
    10    5    6 ar   
    11    5    7 1    
    12    6   31 1    
    13    7    8 2    
    14    7    9 am   BACKBONE|DICT|INTERRES
    15    9   10 1    
    16    9   32 1    
    17   10   11 am   BACKBONE|DICT|INTERRES
    18   10   33 1    
    19   11   12 2    
    20   11   13 1    
    21   13   17 1    
    22   13   14 2    
    23   14   15 1    
    24   14   34 1    
    25   15   16 2    
    26   15   35 1    
    27   16   17 1    
    28   16   18 1    
    29   18   26 1    
    30   18   19 2    
    31   19   20 1    
    32   20   25 ar   
    33   20   21 ar   
    34   21   22 ar   
    35   21   36 1    
    36   22   23 ar   
    37   22   37 1    
    38   23   24 ar   
    39   23   38 1    
    40   24   25 ar   
    41   24   39 1    
    42   25   26 1    
    43   27   40 1    
@<TRIPOS>SUBSTRUCTURE
     1 UNK         1 GROUP             0       ****    0 ROOT    
