@<TRIPOS>MOLECULE
ZINC40333803_1789
40   42    1
SMALL
USER_CHARGES


@<TRIPOS>ATOM
      1 C1          6.7962   55.4633   25.0042 C.3       1 UNK         0.0000 
      2 C2          5.4990   54.8038   25.4171 C.ar      1 UNK         0.0000 
      3 C3          4.5367   54.4966   24.4523 C.ar      1 UNK         0.0000 
      4 C4          3.3225   53.9283   24.8310 C.ar      1 UNK         0.0000 
      5 C5          3.0771   53.6549   26.1754 C.ar      1 UNK         0.0000 
      6 C6          4.0302   53.9668   27.1481 C.ar      1 UNK         0.0000 
      7 C7          5.2478   54.5323   26.7662 C.ar      1 UNK         0.0000 
      8 S8          3.6652   53.6503   28.8719 S.o2      1 UNK         0.0000 
      9 O9          3.6621   52.1956   29.0621 O.2       1 UNK         0.0000 
     10 O10         4.5462   54.4968   29.6817 O.2       1 UNK         0.0000 
     11 N11         2.0145   54.2273   29.0931 N.pl3     1 UNK         0.0000 
     12 C12         1.6945   55.6638   28.9466 C.3       1 UNK         0.0000 
     13 C13         1.2840   56.0284   30.3608 C.3       1 UNK         0.0000 
     14 C14         0.5689   54.7928   30.8821 C.3       1 UNK         0.0000 
     15 C15         1.1401   53.5897   30.1128 C.3       1 UNK         0.0000 
     16 H16         1.7209   52.9371   30.7679 H         1 UNK         0.0000 
     17 C17         0.0874   52.7556   29.3977 C.ar      1 UNK         0.0000 
     18 C18        -0.2655   52.6289   28.0535 C.ar      1 UNK         0.0000 
     19 C19        -1.2960   51.6968   27.9316 C.ar      1 UNK         0.0000 
     20 C20        -1.6143   51.2967   29.2111 C.ar      1 UNK         0.0000 
     21 N21        -0.7561   51.9138   30.0821 N.pl3     1 UNK         0.0000 
     22 H22        -0.7634   51.7771   31.0870 H         1 UNK         0.0000 
     23 N23         2.3605   53.6314   23.8675 N.pl3     1 UNK         0.0000 
     24 H24         7.1045   56.1808   25.7623 H         1 UNK         0.0000 
     25 H25         6.6857   56.0197   24.0726 H         1 UNK         0.0000 
     26 H26         7.5726   54.7100   24.8823 H         1 UNK         0.0000 
     27 H27         4.7297   54.7057   23.4109 H         1 UNK         0.0000 
     28 H28         2.1486   53.1938   26.4658 H         1 UNK         0.0000 
     29 H29         5.9875   54.7767   27.5166 H         1 UNK         0.0000 
     30 H30         2.4930   56.2406   28.4820 H         1 UNK         0.0000 
     31 H31         0.8425   55.7694   28.2736 H         1 UNK         0.0000 
     32 H32         2.1743   56.2465   30.9454 H         1 UNK         0.0000 
     33 H33         0.6636   56.9203   30.3988 H         1 UNK         0.0000 
     34 H34         0.7040   54.6888   31.9593 H         1 UNK         0.0000 
     35 H35        -0.4956   54.8963   30.6900 H         1 UNK         0.0000 
     36 H36         0.1854   53.1612   27.2335 H         1 UNK         0.0000 
     37 H37        -1.7662   51.3616   27.0193 H         1 UNK         0.0000 
     38 H38        -2.3378   50.5790   29.5777 H         1 UNK         0.0000 
     39 H39         1.5624   53.0734   24.1313 H         1 UNK         0.0000 
     40 H40         2.5995   53.7369   22.8912 H         1 UNK         0.0000 
@<TRIPOS>BOND
     1    1    2 1    
     2    1   24 1    
     3    1   25 1    
     4    1   26 1    
     5    2    7 ar   
     6    2    3 ar   
     7    3    4 ar   
     8    3   27 1    
     9    4    5 ar   
    10    4   23 1    
    11    5    6 ar   
    12    5   28 1    
    13    6    7 ar   
    14    6    8 1    
    15    7   29 1    
    16    8    9 2    
    17    8   10 2    
    18    8   11 1    
    19   11   15 1    
    20   11   12 1    
    21   12   13 1    
    22   12   30 1    
    23   12   31 1    
    24   13   14 1    
    25   13   32 1    
    26   13   33 1    
    27   14   15 1    
    28   14   34 1    
    29   14   35 1    
    30   15   16 1    
    31   15   17 1    
    32   17   21 ar   
    33   17   18 ar   
    34   18   19 ar   
    35   18   36 1    
    36   19   20 ar   
    37   19   37 1    
    38   20   21 ar   
    39   20   38 1    
    40   21   22 1    
    41   23   39 1    
    42   23   40 1    
@<TRIPOS>SUBSTRUCTURE
     1 UNK         1 GROUP             0       ****    0 ROOT    
