@<TRIPOS>MOLECULE
ZINC13428477_1945
50   53    1
SMALL
USER_CHARGES


@<TRIPOS>ATOM
      1 C1          1.2068   55.5394   30.1313 C.3       1 UNK         0.0000 
      2 C2          1.0915   54.0023   30.2434 C.3       1 UNK         0.0000 
      3 H3          1.4719   53.6822   31.2148 H         1 UNK         0.0000 
      4 C4         -0.3340   53.4807   30.0924 C.3       1 UNK         0.0000 
      5 C5         -0.2760   52.4826   28.9845 C.ar      1 UNK         0.0000 
      6 C6         -1.2709   51.6967   28.3924 C.ar      1 UNK         0.0000 
      7 C7         -0.9490   50.8975   27.2959 C.ar      1 UNK         0.0000 
      8 C8          0.3743   50.7981   26.8726 C.ar      1 UNK         0.0000 
      9 C9          1.3602   51.5402   27.5242 C.ar      1 UNK         0.0000 
     10 C10         1.0272   52.4230   28.5340 C.ar      1 UNK         0.0000 
     11 N11         1.8568   53.3255   29.2026 N.pl3     1 UNK         0.0000 
     12 S12         3.5979   53.1306   29.4332 S.o2      1 UNK         0.0000 
     13 O13         3.8634   51.6987   29.6190 O.2       1 UNK         0.0000 
     14 O14         3.9505   54.0853   30.4803 O.2       1 UNK         0.0000 
     15 C15         4.4680   53.7001   27.9722 C.ar      1 UNK         0.0000 
     16 C16         5.8056   54.0635   28.1252 C.ar      1 UNK         0.0000 
     17 C17         6.5446   54.4944   27.0324 C.ar      1 UNK         0.0000 
     18 C18         5.9677   54.5364   25.7667 C.ar      1 UNK         0.0000 
     19 C19         4.6277   54.1486   25.5790 C.ar      1 UNK         0.0000 
     20 C20         3.8799   53.7569   26.7039 C.ar      1 UNK         0.0000 
     21 C21         3.9993   54.0962   24.2012 C.2       1 UNK         0.0000 
     22 O22         2.7840   53.9359   24.0744 O.2       1 UNK         0.0000 
     23 N23         4.8607   54.1915   23.1655 N.am      1 UNK         0.0000 
     24 C24         4.6465   54.0119   21.7859 C.ar      1 UNK         0.0000 
     25 C25         3.6775   53.1088   21.3212 C.ar      1 UNK         0.0000 
     26 C26         3.5036   52.8950   19.9579 C.ar      1 UNK         0.0000 
     27 C27         4.2890   53.5863   19.0412 C.ar      1 UNK         0.0000 
     28 C28         5.2522   54.4901   19.4862 C.ar      1 UNK         0.0000 
     29 C29         5.4597   54.7151   20.8568 C.ar      1 UNK         0.0000 
     30 C30         6.5156   55.7025   21.2804 C.2       1 UNK         0.0000 
     31 O31         7.1039   55.4908   22.3659 O.co2     1 UNK         0.0000 
     32 F32         2.5674   52.0196   19.5279 F         1 UNK         0.0000 
     33 H33         0.5996   56.0344   30.8888 H         1 UNK         0.0000 
     34 H34         2.2285   55.8894   30.2723 H         1 UNK         0.0000 
     35 H35         0.8835   55.8944   29.1523 H         1 UNK         0.0000 
     36 H36        -0.6865   53.0319   31.0242 H         1 UNK         0.0000 
     37 H37        -0.9582   54.3236   29.8349 H         1 UNK         0.0000 
     38 H38        -2.2889   51.7037   28.7516 H         1 UNK         0.0000 
     39 H39        -1.7104   50.2886   26.8298 H         1 UNK         0.0000 
     40 H40         0.6379   50.1205   26.0740 H         1 UNK         0.0000 
     41 H41         2.3973   51.4385   27.2814 H         1 UNK         0.0000 
     42 H42         6.2763   54.0323   29.0969 H         1 UNK         0.0000 
     43 H43         7.5694   54.7884   27.1807 H         1 UNK         0.0000 
     44 H44         6.5883   54.8636   24.9429 H         1 UNK         0.0000 
     45 H45         2.8428   53.4868   26.5816 H         1 UNK         0.0000 
     46 H46         5.8021   54.5150   23.3601 H         1 UNK         0.0000 
     47 H47         3.0607   52.5476   22.0065 H         1 UNK         0.0000 
     48 H48         4.1514   53.4158   17.9837 H         1 UNK         0.0000 
     49 H49         5.8468   55.0156   18.7513 H         1 UNK         0.0000 
     50 O50         6.7177   56.7060   20.5565 O.co2     1 UNK         0.0000 
@<TRIPOS>BOND
     1    1    2 1    
     2    1   33 1    
     3    1   34 1    
     4    1   35 1    
     5    2    3 1    
     6    2   11 1    
     7    2    4 1    
     8    4    5 1    
     9    4   36 1    
    10    4   37 1    
    11    5   10 ar   
    12    5    6 ar   
    13    6    7 ar   
    14    6   38 1    
    15    7    8 ar   
    16    7   39 1    
    17    8    9 ar   
    18    8   40 1    
    19    9   10 ar   
    20    9   41 1    
    21   10   11 1    
    22   11   12 1    
    23   12   13 2    
    24   12   14 2    
    25   12   15 1    
    26   15   20 ar   
    27   15   16 ar   
    28   16   17 ar   
    29   16   42 1    
    30   17   18 ar   
    31   17   43 1    
    32   18   19 ar   
    33   18   44 1    
    34   19   20 ar   
    35   19   21 1    
    36   20   45 1    
    37   21   22 2    
    38   21   23 am   BACKBONE|DICT|INTERRES
    39   23   24 1    
    40   23   46 1    
    41   24   29 ar   
    42   24   25 ar   
    43   25   26 ar   
    44   25   47 1    
    45   26   27 ar   
    46   26   32 1    
    47   27   28 ar   
    48   27   48 1    
    49   28   29 ar   
    50   28   49 1    
    51   29   30 1    
    52   30   31 2    
    53   30   50 1    
@<TRIPOS>SUBSTRUCTURE
     1 UNK         1 GROUP             0       ****    0 ROOT    
