@<TRIPOS>MOLECULE
ZINC15675832_5008
58   62    1
SMALL
USER_CHARGES


@<TRIPOS>ATOM
      1 C1         -0.1947   51.3294   26.5561 C.ar      1 UNK         0.0000 
      2 C2          0.1581   51.2972   27.8998 C.ar      1 UNK         0.0000 
      3 C3          1.2223   52.0721   28.3621 C.ar      1 UNK         0.0000 
      4 C4          1.9433   52.8723   27.4776 C.ar      1 UNK         0.0000 
      5 C5          1.5987   52.8967   26.1284 C.ar      1 UNK         0.0000 
      6 C6          0.5284   52.1243   25.6612 C.ar      1 UNK         0.0000 
      7 C7          0.1721   52.1281   24.2127 C.2       1 UNK         0.0000 
      8 N8          1.0989   52.1475   23.2762 N.2       1 UNK         0.0000 
      9 C9          0.3936   52.0967   22.1787 C.2       1 UNK         0.0000 
     10 O10        -0.9445   52.0966   22.4092 O.3       1 UNK         0.0000 
     11 N11        -1.0765   52.0978   23.7951 N.2       1 UNK         0.0000 
     12 C12         0.8805   52.0967   20.7255 C.3       1 UNK         0.0000 
     13 H13         0.9942   53.1373   20.4248 H         1 UNK         0.0000 
     14 C14        -0.2394   51.5636   19.7464 C.3       1 UNK         0.0000 
     15 C15         0.3607   51.0080   18.4860 C.ar      1 UNK         0.0000 
     16 C16         1.5947   50.4204   18.4778 C.ar      1 UNK         0.0000 
     17 N17         1.9044   50.0896   17.1755 N.pl3     1 UNK         0.0000 
     18 C18         0.8653   50.4864   16.3615 C.ar      1 UNK         0.0000 
     19 N19        -0.0868   51.0699   17.1757 N.pl3     1 UNK         0.0000 
     20 H20        -0.9528   51.4900   16.8686 H         1 UNK         0.0000 
     21 C21         2.4172   50.2394   19.7193 C.3       1 UNK         0.0000 
     22 N22         2.2530   51.4729   20.5313 N.am      1 UNK         0.0000 
     23 C23         3.4011   52.0092   21.0542 C.2       1 UNK         0.0000 
     24 O24         4.4522   51.3726   21.1645 O.2       1 UNK         0.0000 
     25 N25         3.3171   53.2964   21.4446 N.am      1 UNK         0.0000 
     26 C26         4.4326   54.1764   21.7939 C.3       1 UNK         0.0000 
     27 C27         5.3183   53.7516   22.9938 C.3       1 UNK         0.0000 
     28 C28         6.3824   54.8019   23.3693 C.3       1 UNK         0.0000 
     29 C29         7.1880   55.2936   22.1524 C.3       1 UNK         0.0000 
     30 C30         6.3043   55.7532   20.9869 C.3       1 UNK         0.0000 
     31 C31         5.2592   54.6918   20.5906 C.3       1 UNK         0.0000 
     32 O32         1.5939   52.0155   29.6815 O.3       1 UNK         0.0000 
     33 C33         0.7994   52.7909   30.5744 C.3       1 UNK         0.0000 
     34 F34         0.9888   54.0965   30.3733 F         1 UNK         0.0000 
     35 F35        -0.4956   52.4956   30.4817 F         1 UNK         0.0000 
     36 F36         1.1959   52.4970   31.8097 F         1 UNK         0.0000 
     37 H37        -1.0148   50.7135   26.2144 H         1 UNK         0.0000 
     38 H38        -0.3940   50.6629   28.5783 H         1 UNK         0.0000 
     39 H39         2.7768   53.4586   27.8352 H         1 UNK         0.0000 
     40 H40         2.1693   53.5097   25.4453 H         1 UNK         0.0000 
     41 H41        -0.9643   52.3502   19.5377 H         1 UNK         0.0000 
     42 H42        -0.7980   50.7570   20.2239 H         1 UNK         0.0000 
     43 H43         0.8342   50.4027   15.2834 H         1 UNK         0.0000 
     44 H44         3.4620   50.1136   19.4198 H         1 UNK         0.0000 
     45 H45         2.1760   49.3365   20.2808 H         1 UNK         0.0000 
     46 H46         2.4775   53.7837   21.1654 H         1 UNK         0.0000 
     47 H47         3.8953   55.0507   22.1625 H         1 UNK         0.0000 
     48 H48         5.8421   52.8274   22.7482 H         1 UNK         0.0000 
     49 H49         4.6961   53.5350   23.8635 H         1 UNK         0.0000 
     50 H50         7.0640   54.3831   24.1115 H         1 UNK         0.0000 
     51 H51         5.9044   55.6500   23.8595 H         1 UNK         0.0000 
     52 H52         7.8485   54.4967   21.8170 H         1 UNK         0.0000 
     53 H53         7.8573   56.0967   22.4584 H         1 UNK         0.0000 
     54 H54         6.9245   56.0033   20.1250 H         1 UNK         0.0000 
     55 H55         5.8012   56.6759   21.2770 H         1 UNK         0.0000 
     56 H56         4.5995   55.1009   19.8237 H         1 UNK         0.0000 
     57 H57         5.7755   53.8482   20.1289 H         1 UNK         0.0000 
     58 H58         2.8237   49.6968   16.8817 H         1 UNK         0.0000 
@<TRIPOS>BOND
     1    1    6 ar   
     2    1    2 ar   
     3    1   37 1    
     4    2    3 ar   
     5    2   38 1    
     6    3    4 ar   
     7    3   32 1    
     8    4    5 ar   
     9    4   39 1    
    10    5    6 ar   
    11    5   40 1    
    12    6    7 1    
    13    7   11 2    
    14    7    8 1    
    15    8    9 2    
    16    9   10 1    
    17    9   12 1    
    18   10   11 1    
    19   12   13 1    
    20   12   22 1    
    21   12   14 1    
    22   14   15 1    
    23   14   41 1    
    24   14   42 1    
    25   15   19 ar   
    26   15   16 ar   
    27   16   17 ar   
    28   16   21 1    
    29   17   18 ar   
    30   17   58 1    
    31   18   19 ar   
    32   18   43 1    
    33   19   20 1    
    34   21   22 1    
    35   21   44 1    
    36   21   45 1    
    37   22   23 am   BACKBONE|DICT|INTERRES
    38   23   24 2    
    39   23   25 am   BACKBONE|DICT|INTERRES
    40   25   26 1    
    41   25   46 1    
    42   26   31 1    
    43   26   27 1    
    44   26   47 1    
    45   27   28 1    
    46   27   48 1    
    47   27   49 1    
    48   28   29 1    
    49   28   50 1    
    50   28   51 1    
    51   29   30 1    
    52   29   52 1    
    53   29   53 1    
    54   30   31 1    
    55   30   54 1    
    56   30   55 1    
    57   31   56 1    
    58   31   57 1    
    59   32   33 1    
    60   33   34 1    
    61   33   35 1    
    62   33   36 1    
@<TRIPOS>SUBSTRUCTURE
     1 UNK         1 GROUP             0       ****    0 ROOT    
