@<TRIPOS>MOLECULE
ZINC41949126_1590
37   38    1
SMALL
USER_CHARGES


@<TRIPOS>ATOM
      1 C1          6.4914   54.6658   26.5697 C.3       1 UNK         0.0000 
      2 C2          5.2980   54.4676   25.6595 C.2       1 UNK         0.0000 
      3 C3          3.9864   54.3391   26.1422 C.2       1 UNK         0.0000 
      4 C4          3.0472   54.0967   25.1589 C.2       1 UNK         0.0000 
      5 S5          3.7688   54.0723   23.5967 S.3       1 UNK         0.0000 
      6 C6          5.3701   54.2695   24.2691 C.2       1 UNK         0.0000 
      7 C7          6.5977   54.1784   23.3729 C.3       1 UNK         0.0000 
      8 N8          6.5873   55.1347   22.2643 N.am      1 UNK         0.0000 
      9 C9          6.0618   54.9065   21.0417 C.2       1 UNK         0.0000 
     10 O10         5.5037   53.8496   20.7276 O.2       1 UNK         0.0000 
     11 C11         6.2095   56.0589   20.1004 C.2       1 UNK         0.0000 
     12 O12         6.7042   57.1391   20.4435 O.2       1 UNK         0.0000 
     13 N13         5.7178   55.7669   18.8719 N.am      1 UNK         0.0000 
     14 C14         5.5900   56.5691   17.7215 C.ar      1 UNK         0.0000 
     15 C15         5.0938   55.9299   16.5843 C.ar      1 UNK         0.0000 
     16 C16         4.9056   56.6413   15.4010 C.ar      1 UNK         0.0000 
     17 C17         5.1963   58.0096   15.3324 C.ar      1 UNK         0.0000 
     18 C18         5.7035   58.6429   16.4770 C.ar      1 UNK         0.0000 
     19 C19         5.9000   57.9330   17.6609 C.ar      1 UNK         0.0000 
     20 C20         4.9745   58.7607   14.0352 C.2       1 UNK         0.0000 
     21 O21         4.9206   58.1740   12.9563 O.2       1 UNK         0.0000 
     22 N22         4.8236   60.0868   14.0918 N.am      1 UNK         0.0000 
     23 H23         6.8398   55.6983   26.5476 H         1 UNK         0.0000 
     24 H24         6.2755   54.4020   27.6047 H         1 UNK         0.0000 
     25 H25         7.3314   54.0393   26.2772 H         1 UNK         0.0000 
     26 H26         3.7338   54.4133   27.1903 H         1 UNK         0.0000 
     27 H27         1.9817   53.9628   25.2721 H         1 UNK         0.0000 
     28 H28         7.5043   54.3653   23.9487 H         1 UNK         0.0000 
     29 H29         6.7121   53.1618   22.9896 H         1 UNK         0.0000 
     30 H30         7.0423   56.0226   22.4253 H         1 UNK         0.0000 
     31 H31         5.3615   54.8243   18.7788 H         1 UNK         0.0000 
     32 H32         4.8477   54.8779   16.6041 H         1 UNK         0.0000 
     33 H33         4.5186   56.1179   14.5380 H         1 UNK         0.0000 
     34 H34         5.9449   59.6961   16.4761 H         1 UNK         0.0000 
     35 H35         6.2829   58.4724   18.5121 H         1 UNK         0.0000 
     36 H36         4.7041   60.5567   14.9890 H         1 UNK         0.0000 
     37 H37         4.6973   60.6046   13.2382 H         1 UNK         0.0000 
@<TRIPOS>BOND
     1    1    2 1    
     2    1   23 1    
     3    1   24 1    
     4    1   25 1    
     5    2    6 2    
     6    2    3 1    
     7    3    4 2    
     8    3   26 1    
     9    4    5 1    
    10    4   27 1    
    11    5    6 1    
    12    6    7 1    
    13    7    8 1    
    14    7   28 1    
    15    7   29 1    
    16    8    9 am   BACKBONE|DICT|INTERRES
    17    8   30 1    
    18    9   10 2    
    19    9   11 1    
    20   11   12 2    
    21   11   13 am   BACKBONE|DICT|INTERRES
    22   13   14 1    
    23   13   31 1    
    24   14   19 ar   
    25   14   15 ar   
    26   15   16 ar   
    27   15   32 1    
    28   16   17 ar   
    29   16   33 1    
    30   17   18 ar   
    31   17   20 1    
    32   18   19 ar   
    33   18   34 1    
    34   19   35 1    
    35   20   21 2    
    36   20   22 am   BACKBONE|DICT|INTERRES
    37   22   36 1    
    38   22   37 1    
@<TRIPOS>SUBSTRUCTURE
     1 UNK         1 GROUP             0       ****    0 ROOT    
