@<TRIPOS>MOLECULE
ZINC09425251_987
62   66    1
SMALL
USER_CHARGES


@<TRIPOS>ATOM
      1 C1          5.4513   54.3330   28.2097 C.3       1 UNK         0.0000 
      2 C2          4.5372   54.1552   27.0129 C.2       1 UNK         0.0000 
      3 C3          4.7659   54.4518   25.6637 C.2       1 UNK         0.0000 
      4 S4          3.3367   54.0316   24.7519 S.3       1 UNK         0.0000 
      5 C5          2.5980   53.4566   26.2198 C.2       1 UNK         0.0000 
      6 N6          3.3615   53.6201   27.2798 N.2       1 UNK         0.0000 
      7 N7          1.3048   52.8961   26.2349 N.am      1 UNK         0.0000 
      8 C8          0.4488   52.7648   25.0409 C.3       1 UNK         0.0000 
      9 H9          0.3047   53.7609   24.6211 H         1 UNK         0.0000 
     10 C10        -0.8437   52.2453   25.5992 C.2       1 UNK         0.0000 
     11 C11        -1.9962   51.9599   24.7412 C.2       1 UNK         0.0000 
     12 C12        -2.5317   50.5523   24.6368 C.ar      1 UNK         0.0000 
     13 C13        -2.0488   49.4975   25.4366 C.ar      1 UNK         0.0000 
     14 C14        -2.5197   48.1934   25.2816 C.ar      1 UNK         0.0000 
     15 C15        -3.4843   47.9174   24.3168 C.ar      1 UNK         0.0000 
     16 C16        -3.9778   48.9519   23.5069 C.ar      1 UNK         0.0000 
     17 C17        -3.5154   50.2574   23.6756 C.ar      1 UNK         0.0000 
     18 O18        -4.9673   48.7406   22.5659 O.3       1 UNK         0.0000 
     19 C19        -5.1310   47.3684   22.1907 C.3       1 UNK         0.0000 
     20 C20        -5.1077   46.4528   23.4394 C.3       1 UNK         0.0000 
     21 O21        -3.8724   46.6013   24.1489 O.3       1 UNK         0.0000 
     22 O22        -2.4327   52.8728   24.0331 O.2       1 UNK         0.0000 
     23 C23        -0.6871   52.0972   26.9182 C.2       1 UNK         0.0000 
     24 O24        -1.5409   51.6966   27.7949 O.co2     1 UNK         0.0000 
     25 C25         0.6492   52.4644   27.3574 C.2       1 UNK         0.0000 
     26 O26         1.1074   52.4174   28.5062 O.2       1 UNK         0.0000 
     27 C27         0.9808   51.8879   23.8977 C.ar      1 UNK         0.0000 
     28 C28         1.1059   50.5069   24.0665 C.ar      1 UNK         0.0000 
     29 C29         1.4374   49.6980   22.9869 C.ar      1 UNK         0.0000 
     30 C30         1.6536   50.2539   21.7248 C.ar      1 UNK         0.0000 
     31 C31         1.5547   51.6419   21.5607 C.ar      1 UNK         0.0000 
     32 C32         1.2125   52.4518   22.6401 C.ar      1 UNK         0.0000 
     33 C33         1.9708   49.3112   20.5588 C.3       1 UNK         0.0000 
     34 C34         0.7078   48.5761   20.0710 C.3       1 UNK         0.0000 
     35 C35         2.7001   49.9737   19.3759 C.3       1 UNK         0.0000 
     36 C36         5.9459   54.9936   25.0027 C.2       1 UNK         0.0000 
     37 O37         6.7635   55.6967   25.5948 O.2       1 UNK         0.0000 
     38 C38         6.2094   54.6277   23.5430 C.3       1 UNK         0.0000 
     39 H39         5.8593   53.3751   28.5394 H         1 UNK         0.0000 
     40 H40         6.3027   54.9820   28.0016 H         1 UNK         0.0000 
     41 H41         4.9324   54.7727   29.0653 H         1 UNK         0.0000 
     42 H42        -1.2957   49.6516   26.1958 H         1 UNK         0.0000 
     43 H43        -2.1260   47.4080   25.9108 H         1 UNK         0.0000 
     44 H44        -3.9202   51.0333   23.0414 H         1 UNK         0.0000 
     45 H45        -4.3186   47.0819   21.5205 H         1 UNK         0.0000 
     46 H46        -6.0682   47.2524   21.6451 H         1 UNK         0.0000 
     47 H47        -5.2399   45.4085   23.1546 H         1 UNK         0.0000 
     48 H48        -5.9357   46.7245   24.0978 H         1 UNK         0.0000 
     49 H49         0.9126   50.0524   25.0276 H         1 UNK         0.0000 
     50 H50         1.5038   48.6303   23.1316 H         1 UNK         0.0000 
     51 H51         1.7105   52.1042   20.5972 H         1 UNK         0.0000 
     52 H52         1.1030   53.5150   22.4851 H         1 UNK         0.0000 
     53 H53         2.6623   48.5625   20.9514 H         1 UNK         0.0000 
     54 H54         0.2020   48.0550   20.8826 H         1 UNK         0.0000 
     55 H55        -0.0084   49.2714   19.6324 H         1 UNK         0.0000 
     56 H56         0.9537   47.8323   19.3119 H         1 UNK         0.0000 
     57 H57         3.5801   50.5258   19.7044 H         1 UNK         0.0000 
     58 H58         3.0326   49.2169   18.6670 H         1 UNK         0.0000 
     59 H59         2.0564   50.6628   18.8297 H         1 UNK         0.0000 
     60 H60         5.3597   54.8941   22.9149 H         1 UNK         0.0000 
     61 H61         6.3745   53.5532   23.4538 H         1 UNK         0.0000 
     62 H62         7.0943   55.1462   23.1691 H         1 UNK         0.0000 
@<TRIPOS>BOND
     1    1    2 1    
     2    1   39 1    
     3    1   40 1    
     4    1   41 1    
     5    2    6 1    
     6    2    3 2    
     7    3    4 1    
     8    3   36 1    
     9    4    5 1    
    10    5    6 2    
    11    5    7 am   BACKBONE|DICT|INTERRES
    12    7   25 am   BACKBONE|DICT|INTERRES
    13    7    8 1    
    14    8   10 1    
    15    8   27 1    
    16    8    9 1    
    17   10   23 2    
    18   10   11 1    
    19   11   22 2    
    20   11   12 1    
    21   12   17 ar   
    22   12   13 ar   
    23   13   14 ar   
    24   13   42 1    
    25   14   15 ar   
    26   14   43 1    
    27   15   21 1    
    28   15   16 ar   
    29   16   17 ar   
    30   16   18 1    
    31   17   44 1    
    32   18   19 1    
    33   19   20 1    
    34   19   45 1    
    35   19   46 1    
    36   20   21 1    
    37   20   47 1    
    38   20   48 1    
    39   23   25 1    
    40   23   24 1    
    41   25   26 2    
    42   27   32 ar   
    43   27   28 ar   
    44   28   29 ar   
    45   28   49 1    
    46   29   30 ar   
    47   29   50 1    
    48   30   31 ar   
    49   30   33 1    
    50   31   32 ar   
    51   31   51 1    
    52   32   52 1    
    53   33   34 1    
    54   33   35 1    
    55   33   53 1    
    56   34   54 1    
    57   34   55 1    
    58   34   56 1    
    59   35   57 1    
    60   35   58 1    
    61   35   59 1    
    62   36   37 2    
    63   36   38 1    
    64   38   60 1    
    65   38   61 1    
    66   38   62 1    
@<TRIPOS>SUBSTRUCTURE
     1 UNK         1 GROUP             0       ****    0 ROOT    
