@<TRIPOS>MOLECULE
ZINC36351168_4992
57   61    1
SMALL
USER_CHARGES


@<TRIPOS>ATOM
      1 C1          1.1650   47.6441   19.2849 C.3       1 UNK         0.0000 
      2 C2          2.0248   48.8311   19.7178 C.3       1 UNK         0.0000 
      3 O3          1.6785   49.2204   21.0446 O.3       1 UNK         0.0000 
      4 C4          2.3251   50.2616   21.6189 C.2       1 UNK         0.0000 
      5 O5          3.2461   50.8951   21.0978 O.2       1 UNK         0.0000 
      6 C6          1.8194   50.6866   23.0183 C.3       1 UNK         0.0000 
      7 H7          2.6694   50.5649   23.6862 H         1 UNK         0.0000 
      8 C8          1.3590   52.1729   22.9895 C.3       1 UNK         0.0000 
      9 H9          0.9213   52.4212   22.0249 H         1 UNK         0.0000 
     10 C10         0.2535   52.0770   24.0641 C.3       1 UNK         0.0000 
     11 C11        -0.4456   50.7744   23.5509 C.3       1 UNK         0.0000 
     12 N12         0.7111   49.8724   23.5791 N.3       1 UNK         0.0000 
     13 N13        -1.5361   50.8295   24.5259 N.pl3     1 UNK         0.0000 
     14 C14        -2.3120   49.7942   25.0085 C.ar      1 UNK         0.0000 
     15 C15        -3.5288   50.0491   25.5276 C.ar      1 UNK         0.0000 
     16 C16        -3.9775   51.4353   25.5541 C.ar      1 UNK         0.0000 
     17 C17        -3.1916   52.4408   25.1068 C.ar      1 UNK         0.0000 
     18 C18        -1.9325   52.1367   24.5873 C.ar      1 UNK         0.0000 
     19 N19        -0.9442   52.8972   24.0817 N.pl3     1 UNK         0.0000 
     20 C20        -4.3404   48.9535   26.1935 C.3       1 UNK         0.0000 
     21 C21        -1.1261   50.6082   22.1514 C.ar      1 UNK         0.0000 
     22 C22        -1.5282   49.3208   21.7557 C.ar      1 UNK         0.0000 
     23 C23        -2.1492   49.1069   20.5292 C.ar      1 UNK         0.0000 
     24 C24        -2.3782   50.1813   19.6772 C.ar      1 UNK         0.0000 
     25 C25        -2.0081   51.4680   20.0539 C.ar      1 UNK         0.0000 
     26 C26        -1.4050   51.6822   21.2908 C.ar      1 UNK         0.0000 
     27 Cl27       -3.1312   49.9182   18.1471 Cl        1 UNK         0.0000 
     28 C28         0.8296   52.1523   25.5292 C.ar      1 UNK         0.0000 
     29 C29         0.6553   51.1363   26.4866 C.ar      1 UNK         0.0000 
     30 C30         1.1062   51.2967   27.7937 C.ar      1 UNK         0.0000 
     31 C31         1.7803   52.4540   28.1629 C.ar      1 UNK         0.0000 
     32 C32         1.9866   53.4644   27.2317 C.ar      1 UNK         0.0000 
     33 C33         1.5047   53.3121   25.9345 C.ar      1 UNK         0.0000 
     34 Cl34        2.3621   52.6331   29.7788 Cl        1 UNK         0.0000 
     35 O35         2.4072   53.1138   23.1432 O.3       1 UNK         0.0000 
     36 H36         0.1063   47.9016   19.2751 H         1 UNK         0.0000 
     37 H37         1.4390   47.3196   18.2811 H         1 UNK         0.0000 
     38 H38         1.3072   46.8024   19.9589 H         1 UNK         0.0000 
     39 H39         3.0803   48.5602   19.6646 H         1 UNK         0.0000 
     40 H40         1.8740   49.6664   19.0301 H         1 UNK         0.0000 
     41 H41         0.5598   49.0412   23.0235 H         1 UNK         0.0000 
     42 H42        -1.8515   48.8168   25.0136 H         1 UNK         0.0000 
     43 H43        -4.9578   51.6642   25.9484 H         1 UNK         0.0000 
     44 H44        -3.5551   53.4569   25.1476 H         1 UNK         0.0000 
     45 H45        -4.6765   49.2970   27.1733 H         1 UNK         0.0000 
     46 H46        -5.2393   48.7293   25.6191 H         1 UNK         0.0000 
     47 H47        -3.7574   48.0477   26.3679 H         1 UNK         0.0000 
     48 H48        -1.3607   48.4728   22.4033 H         1 UNK         0.0000 
     49 H49        -2.4460   48.1098   20.2384 H         1 UNK         0.0000 
     50 H50        -2.1879   52.2944   19.3828 H         1 UNK         0.0000 
     51 H51        -1.1514   52.6937   21.5551 H         1 UNK         0.0000 
     52 H52         0.1686   50.2037   26.2493 H         1 UNK         0.0000 
     53 H53         0.9341   50.5199   28.5197 H         1 UNK         0.0000 
     54 H54         2.5048   54.3688   27.5138 H         1 UNK         0.0000 
     55 H55         1.6421   54.1277   25.2430 H         1 UNK         0.0000 
     56 H56         2.9915   53.0457   22.3811 H         1 UNK         0.0000 
     57 H57        -0.9288   53.9072   24.0807 H         1 UNK         0.0000 
@<TRIPOS>BOND
     1    1    2 1    
     2    1   36 1    
     3    1   37 1    
     4    1   38 1    
     5    2    3 1    
     6    2   39 1    
     7    2   40 1    
     8    3    4 1    
     9    4    5 2    
    10    4    6 1    
    11    6    7 1    
    12    6   12 1    
    13    6    8 1    
    14    8    9 1    
    15    8   10 1    
    16    8   35 1    
    17   10   19 1    
    18   10   11 1    
    19   10   28 1    
    20   11   12 1    
    21   11   13 1    
    22   11   21 1    
    23   12   41 1    
    24   13   18 ar   
    25   13   14 ar   
    26   14   15 ar   
    27   14   42 1    
    28   15   16 ar   
    29   15   20 1    
    30   16   17 ar   
    31   16   43 1    
    32   17   18 ar   
    33   17   44 1    
    34   18   19 2    
    35   19   57 1    
    36   20   45 1    
    37   20   46 1    
    38   20   47 1    
    39   21   26 ar   
    40   21   22 ar   
    41   22   23 ar   
    42   22   48 1    
    43   23   24 ar   
    44   23   49 1    
    45   24   25 ar   
    46   24   27 1    
    47   25   26 ar   
    48   25   50 1    
    49   26   51 1    
    50   28   33 ar   
    51   28   29 ar   
    52   29   30 ar   
    53   29   52 1    
    54   30   31 ar   
    55   30   53 1    
    56   31   32 ar   
    57   31   34 1    
    58   32   33 ar   
    59   32   54 1    
    60   33   55 1    
    61   35   56 1    
@<TRIPOS>SUBSTRUCTURE
     1 UNK         1 GROUP             0       ****    0 ROOT    
