@<TRIPOS>MOLECULE
ZINC09869616_2697
36   38    1
SMALL
USER_CHARGES


@<TRIPOS>ATOM
      1 C1          4.9650   54.3739   28.4721 C.ar      1 UNK         0.0000 
      2 C2          4.0641   53.9494   29.4425 C.ar      1 UNK         0.0000 
      3 C3          2.8483   53.3783   29.0906 C.ar      1 UNK         0.0000 
      4 C4          2.5051   53.2690   27.7361 C.ar      1 UNK         0.0000 
      5 C5          3.4131   53.6968   26.7555 C.ar      1 UNK         0.0000 
      6 C6          4.6592   54.2431   27.1120 C.ar      1 UNK         0.0000 
      7 C7          5.6616   54.7057   26.0965 C.2       1 UNK         0.0000 
      8 O8          6.7045   55.2964   26.3939 O.2       1 UNK         0.0000 
      9 O9          5.3204   54.3972   24.8246 O.3       1 UNK         0.0000 
     10 C10         6.1696   54.7617   23.7381 C.3       1 UNK         0.0000 
     11 C11         5.5546   54.4282   22.3785 C.ar      1 UNK         0.0000 
     12 C12         4.3827   53.6520   22.2788 C.ar      1 UNK         0.0000 
     13 C13         3.9068   53.3388   21.0115 C.ar      1 UNK         0.0000 
     14 C14         4.5173   53.7979   19.8826 C.ar      1 UNK         0.0000 
     15 C15         5.6535   54.5930   19.9364 C.ar      1 UNK         0.0000 
     16 C16         6.1800   54.8968   21.2002 C.ar      1 UNK         0.0000 
     17 Br17        7.7862   55.9183   21.2814 Br        1 UNK         0.0000 
     18 O18         3.8322   53.3735   18.7913 O.3       1 UNK         0.0000 
     19 C19         2.8468   52.4960   19.2685 C.3       1 UNK         0.0000 
     20 O20         2.8234   52.5946   20.6702 O.3       1 UNK         0.0000 
     21 S21         0.9063   52.6252   27.2418 S.o2      1 UNK         0.0000 
     22 O22        -0.0961   53.2910   28.0792 O.2       1 UNK         0.0000 
     23 O23         0.8390   52.6818   25.7779 O.2       1 UNK         0.0000 
     24 N24         0.9155   50.9449   27.6802 N.pl3     1 UNK         0.0000 
     25 Cl25        1.8232   52.8236   30.3714 Cl        1 UNK         0.0000 
     26 H26         5.9037   54.8040   28.7938 H         1 UNK         0.0000 
     27 H27         4.3042   54.0582   30.4835 H         1 UNK         0.0000 
     28 H28         3.1403   53.6032   25.7132 H         1 UNK         0.0000 
     29 H29         6.3542   55.8366   23.7772 H         1 UNK         0.0000 
     30 H30         7.1358   54.2612   23.8258 H         1 UNK         0.0000 
     31 H31         3.8665   53.2963   23.1568 H         1 UNK         0.0000 
     32 H32         6.1321   54.9505   19.0368 H         1 UNK         0.0000 
     33 H33         1.8768   52.7836   18.8618 H         1 UNK         0.0000 
     34 H34         3.1050   51.4758   18.9746 H         1 UNK         0.0000 
     35 H35         0.2436   50.7052   28.4151 H         1 UNK         0.0000 
     36 H36         0.8519   50.3113   26.8800 H         1 UNK         0.0000 
@<TRIPOS>BOND
     1    1    6 ar   
     2    1    2 ar   
     3    1   26 1    
     4    2    3 ar   
     5    2   27 1    
     6    3    4 ar   
     7    3   25 1    
     8    4    5 ar   
     9    4   21 1    
    10    5    6 ar   
    11    5   28 1    
    12    6    7 1    
    13    7    8 2    
    14    7    9 1    
    15    9   10 1    
    16   10   11 1    
    17   10   29 1    
    18   10   30 1    
    19   11   16 ar   
    20   11   12 ar   
    21   12   13 ar   
    22   12   31 1    
    23   13   20 1    
    24   13   14 ar   
    25   14   15 ar   
    26   14   18 1    
    27   15   16 ar   
    28   15   32 1    
    29   16   17 1    
    30   18   19 1    
    31   19   20 1    
    32   19   33 1    
    33   19   34 1    
    34   21   22 2    
    35   21   23 2    
    36   21   24 1    
    37   24   35 1    
    38   24   36 1    
@<TRIPOS>SUBSTRUCTURE
     1 UNK         1 GROUP             0       ****    0 ROOT    
