ZINC63704999_2486
                    3D
 Schrodinger Suite 2024-2.
 54 57  0  0  1  0            999 V2000
   -0.4229   51.0553   27.7321 C   0  0  0  0  0  0
    0.1389   51.9511   28.8131 C   0  0  0  0  0  0
   -0.4339   52.0969   30.0812 C   0  0  0  0  0  0
    0.2077   53.0191   30.8833 C   0  0  0  0  0  0
    1.5625   53.7101   30.0815 S   0  0  0  0  0  0
    1.3198   52.6923   28.6984 C   0  0  0  0  0  0
    2.3236   52.7152   27.5775 C   0  0  0  0  0  0
    1.8065   53.5018   26.3701 C   0  0  0  0  0  0
    2.7550   53.5828   25.2656 N   0  0  0  0  0  0
    3.9016   54.2880   25.2673 C   0  0  0  0  0  0
    4.3086   54.8968   26.2580 O   0  0  0  0  0  0
    4.6593   54.3466   23.9586 C   0  0  0  0  0  0
    5.9469   54.8960   23.9249 C   0  0  0  0  0  0
    6.5692   55.1611   22.7087 C   0  0  0  0  0  0
    5.9364   54.8162   21.5082 C   0  0  0  0  0  0
    4.7332   54.0856   21.5172 C   0  0  0  0  0  0
    4.0766   53.9355   22.7466 C   0  0  0  0  0  0
    4.2094   53.6159   20.2715 N   0  0  0  0  0  0
    4.8017   54.1073   19.1038 C   0  0  0  0  0  0
    5.8367   54.8685   19.0552 N   0  0  0  0  0  0
    6.5205   55.2965   20.1904 C   0  0  0  0  0  0
    7.5068   56.0322   20.1931 O   0  0  0  0  0  0
    4.1551   53.5643   17.8474 C   0  0  1  0  0  0
    4.8594   52.9254   17.3125 H   0  0  0  0  0  0
    2.7877   52.4966   18.3346 S   0  0  0  0  0  0
    3.2925   52.5382   20.0198 C   0  0  0  0  0  0
    2.6122   51.4132   21.0455 S   0  0  0  0  0  0
    3.7258   54.6681   16.8611 C   0  0  0  0  0  0
    4.3382   54.7889   15.8004 O   0  0  0  0  0  0
    2.6718   55.4476   17.1786 N   0  0  0  0  0  0
    2.1150   56.4934   16.3148 C   0  0  0  0  0  0
    0.6434   56.7730   16.6577 C   0  0  0  0  0  0
    2.9692   57.7758   16.3065 C   0  0  0  0  0  0
   -1.2988   50.4973   28.0608 H   0  0  0  0  0  0
   -0.7204   51.6288   26.8558 H   0  0  0  0  0  0
    0.3143   50.3387   27.3708 H   0  0  0  0  0  0
   -1.2956   51.5326   30.4039 H   0  0  0  0  0  0
   -0.0508   53.3043   31.8937 H   0  0  0  0  0  0
    2.5378   51.6967   27.2818 H   0  0  0  0  0  0
    3.2712   53.1315   27.9221 H   0  0  0  0  0  0
    1.5165   54.4967   26.6970 H   0  0  0  0  0  0
    0.8939   53.0438   25.9891 H   0  0  0  0  0  0
    2.5396   53.0240   24.4546 H   0  0  0  0  0  0
    6.4340   55.2161   24.8359 H   0  0  0  0  0  0
    7.5045   55.6976   22.7114 H   0  0  0  0  0  0
    3.0772   53.5396   22.7492 H   0  0  0  0  0  0
    2.1916   55.2803   18.0522 H   0  0  0  0  0  0
    2.1093   56.1103   15.2906 H   0  0  0  0  0  0
    0.2467   57.5643   16.0204 H   0  0  0  0  0  0
    0.5162   57.1180   17.6817 H   0  0  0  0  0  0
    0.0195   55.8919   16.5002 H   0  0  0  0  0  0
    2.4948   58.5563   15.7099 H   0  0  0  0  0  0
    3.1013   58.1914   17.3038 H   0  0  0  0  0  0
    3.9519   57.6006   15.8656 H   0  0  0  0  0  0
  1  2  1  0  0  0
  1 34  1  0  0  0
  1 35  1  0  0  0
  1 36  1  0  0  0
  2  6  2  0  0  0
  2  3  1  0  0  0
  3  4  2  0  0  0
  3 37  1  0  0  0
  4  5  1  0  0  0
  4 38  1  0  0  0
  5  6  1  0  0  0
  6  7  1  0  0  0
  7  8  1  0  0  0
  7 39  1  0  0  0
  7 40  1  0  0  0
  8  9  1  0  0  0
  8 41  1  0  0  0
  8 42  1  0  0  0
  9 10  1  0  0  0
  9 43  1  0  0  0
 10 11  2  0  0  0
 10 12  1  0  0  0
 12 17  2  0  0  0
 12 13  1  0  0  0
 13 14  2  0  0  0
 13 44  1  0  0  0
 14 15  1  0  0  0
 14 45  1  0  0  0
 15 21  1  0  0  0
 15 16  2  0  0  0
 16 17  1  0  0  0
 16 18  1  0  0  0
 17 46  1  0  0  0
 18 26  1  0  0  0
 18 19  1  0  0  0
 19 20  2  0  0  0
 19 23  1  0  0  0
 20 21  1  0  0  0
 21 22  2  0  0  0
 23 24  1  0  0  0
 23 25  1  0  0  0
 23 28  1  0  0  0
 25 26  1  0  0  0
 26 27  2  0  0  0
 28 29  2  0  0  0
 28 30  1  0  0  0
 30 31  1  0  0  0
 30 47  1  0  0  0
 31 32  1  0  0  0
 31 33  1  0  0  0
 31 48  1  0  0  0
 32 49  1  0  0  0
 32 50  1  0  0  0
 32 51  1  0  0  0
 33 52  1  0  0  0
 33 53  1  0  0  0
 33 54  1  0  0  0
M  END
> <i_i_glide_confnum>
75

> <i_i_glide_lignum>
2487

> <i_i_glide_posenum>
142

> <i_i_glide_rotatable_bonds>
8

> <i_m_Source_File_Index>
332

> <b_m_subgroup_collapsed>
0

> <r_i_docking_score>
-5.33643

> <r_i_glide_ecoul>
-4.77387

> <r_i_glide_eff_state_penalty>
0

> <r_i_glide_einternal>
16.1992

> <r_i_glide_emodel>
-59.6329

> <r_i_glide_energy>
-52.3822

> <r_i_glide_erotb>
0.600753

> <r_i_glide_esite>
-0.0256716

> <r_i_glide_evdw>
-47.6083

> <r_i_glide_gscore>
-5.33643

> <r_i_glide_hbond>
-0.244288

> <r_i_glide_ligand_efficiency>
-0.166763

> <r_i_glide_ligand_efficiency_ln>
-1.19497

> <r_i_glide_ligand_efficiency_sa>
-0.52944

> <r_i_glide_lipo>
-2.06613

> <r_i_glide_metal>
0

> <r_i_glide_rewards>
-0.504591

> <s_i_glide_gridfile>
wee1_glide-grid

> <s_m_Source_File>
wee1_decoys_glide_SP.sdf

> <s_m_Source_Path>
/Users/zhangxujun/Desktop

> <s_m_entry_id>
607

> <s_m_entry_name>
wee1_decoys_glide_SP.332

> <s_m_subgroup_title>
wee1_decoys_glide_SP

> <s_m_subgroupid>
wee1_decoys_glide_SP


$$$$
