ZINC27268788_5156
                    3D
 Schrodinger Suite 2024-2.
 61 64  0  0  1  0            999 V2000
    8.0976   55.2807   17.5660 C   0  0  0  0  0  0
    8.7589   56.2855   18.5298 C   0  0  0  0  0  0
    8.2504   57.7229   18.2882 C   0  0  0  0  0  0
    8.7122   55.8355   20.0171 C   0  0  0  0  0  0
    7.3386   55.6967   20.7005 C   0  0  0  0  0  0
    6.3022   55.9692   20.0940 O   0  0  0  0  0  0
    7.3785   55.2936   21.9878 N   0  0  0  0  0  0
    6.3101   54.8964   22.8092 C   0  0  0  0  0  0
    6.5509   54.8972   24.1840 C   0  0  0  0  0  0
    5.5595   54.4973   25.0716 C   0  0  0  0  0  0
    4.3104   54.1052   24.5942 C   0  0  0  0  0  0
    4.0636   54.0887   23.2131 C   0  0  0  0  0  0
    5.0635   54.4706   22.3231 C   0  0  0  0  0  0
    3.3863   53.6955   25.5688 N   0  0  0  0  0  0
    2.0529   53.5133   25.4595 C   0  0  0  0  0  0
    1.3839   53.8472   24.4806 O   0  0  0  0  0  0
    1.4405   52.8974   26.6251 C   0  0  0  0  0  0
    0.1904   52.2452   26.7421 C   0  0  0  0  0  0
   -0.1273   51.9461   28.0792 C   0  0  0  0  0  0
    0.7924   52.4200   28.9934 C   0  0  0  0  0  0
    2.0940   53.2422   28.2177 S   0  0  0  0  0  0
   -0.8881   51.6633   25.3869 S   0  0  0  0  0  0
   -2.0982   52.4936   25.4530 O   0  0  0  0  0  0
   -0.1003   51.5616   24.1528 O   0  0  0  0  0  0
   -1.2596   50.0337   25.9776 N   0  0  0  0  0  0
   -0.2471   48.9696   25.7781 C   0  0  0  0  0  0
   -0.3924   48.3591   24.3720 C   0  0  0  0  0  0
   -1.8406   47.9264   24.1071 C   0  0  0  0  0  0
   -2.1133   46.9404   23.1500 C   0  0  0  0  0  0
   -3.4176   46.5295   22.8896 C   0  0  0  0  0  0
   -4.4745   47.0997   23.5903 C   0  0  0  0  0  0
   -4.2224   48.0793   24.5477 C   0  0  0  0  0  0
   -2.9203   48.5090   24.8195 C   0  0  0  0  0  0
   -2.6626   49.5512   25.9116 C   0  0  0  0  0  0
    7.0159   55.2394   17.6991 H   0  0  0  0  0  0
    8.4893   54.2737   17.7186 H   0  0  0  0  0  0
    8.2868   55.5466   16.5260 H   0  0  0  0  0  0
    9.8187   56.2999   18.2634 H   0  0  0  0  0  0
    7.1939   57.8327   18.5292 H   0  0  0  0  0  0
    8.8076   58.4480   18.8818 H   0  0  0  0  0  0
    8.3733   58.0162   17.2440 H   0  0  0  0  0  0
    9.1977   54.8678   20.0755 H   0  0  0  0  0  0
    9.3316   56.4969   20.6165 H   0  0  0  0  0  0
    8.2822   55.2995   22.4451 H   0  0  0  0  0  0
    7.5050   55.2100   24.5711 H   0  0  0  0  0  0
    5.7703   54.5004   26.1309 H   0  0  0  0  0  0
    3.1205   53.7548   22.8064 H   0  0  0  0  0  0
    4.8505   54.4183   21.2663 H   0  0  0  0  0  0
    3.7951   53.4534   26.4559 H   0  0  0  0  0  0
   -1.0139   51.4016   28.3710 H   0  0  0  0  0  0
    0.7548   52.3344   30.0699 H   0  0  0  0  0  0
    0.7467   49.3227   26.0483 H   0  0  0  0  0  0
   -0.4959   48.1746   26.4816 H   0  0  0  0  0  0
   -0.1543   49.1065   23.6191 H   0  0  0  0  0  0
    0.3064   47.5328   24.2432 H   0  0  0  0  0  0
   -1.3021   46.4972   22.5936 H   0  0  0  0  0  0
   -3.6067   45.7779   22.1353 H   0  0  0  0  0  0
   -5.4889   46.7855   23.3918 H   0  0  0  0  0  0
   -5.0509   48.5052   25.0954 H   0  0  0  0  0  0
   -2.8931   49.0521   26.8640 H   0  0  0  0  0  0
   -3.3443   50.3989   25.8454 H   0  0  0  0  0  0
  1  2  1  0  0  0
  1 35  1  0  0  0
  1 36  1  0  0  0
  1 37  1  0  0  0
  2  3  1  0  0  0
  2  4  1  0  0  0
  2 38  1  0  0  0
  3 39  1  0  0  0
  3 40  1  0  0  0
  3 41  1  0  0  0
  4  5  1  0  0  0
  4 42  1  0  0  0
  4 43  1  0  0  0
  5  6  2  0  0  0
  5  7  1  0  0  0
  7  8  1  0  0  0
  7 44  1  0  0  0
  8 13  2  0  0  0
  8  9  1  0  0  0
  9 10  2  0  0  0
  9 45  1  0  0  0
 10 11  1  0  0  0
 10 46  1  0  0  0
 11 12  2  0  0  0
 11 14  1  0  0  0
 12 13  1  0  0  0
 12 47  1  0  0  0
 13 48  1  0  0  0
 14 15  1  0  0  0
 14 49  1  0  0  0
 15 16  2  0  0  0
 15 17  1  0  0  0
 17 21  1  0  0  0
 17 18  2  0  0  0
 18 19  1  0  0  0
 18 22  1  0  0  0
 19 20  2  0  0  0
 19 50  1  0  0  0
 20 21  1  0  0  0
 20 51  1  0  0  0
 22 23  2  0  0  0
 22 24  2  0  0  0
 22 25  1  0  0  0
 25 34  1  0  0  0
 25 26  1  0  0  0
 26 27  1  0  0  0
 26 52  1  0  0  0
 26 53  1  0  0  0
 27 28  1  0  0  0
 27 54  1  0  0  0
 27 55  1  0  0  0
 28 33  2  0  0  0
 28 29  1  0  0  0
 29 30  2  0  0  0
 29 56  1  0  0  0
 30 31  1  0  0  0
 30 57  1  0  0  0
 31 32  2  0  0  0
 31 58  1  0  0  0
 32 33  1  0  0  0
 32 59  1  0  0  0
 33 34  1  0  0  0
 34 60  1  0  0  0
 34 61  1  0  0  0
M  END
> <i_i_glide_confnum>
131

> <i_i_glide_lignum>
5157

> <i_i_glide_posenum>
389

> <i_i_glide_rotatable_bonds>
9

> <i_m_Source_File_Index>
2122

> <b_m_subgroup_collapsed>
0

> <r_i_docking_score>
-4.68926

> <r_i_glide_ecoul>
-6.05192

> <r_i_glide_eff_state_penalty>
0

> <r_i_glide_einternal>
3.66592

> <r_i_glide_emodel>
-60.5795

> <r_i_glide_energy>
-50.1937

> <r_i_glide_erotb>
0.659044

> <r_i_glide_esite>
-0.100996

> <r_i_glide_evdw>
-44.1418

> <r_i_glide_gscore>
-4.68926

> <r_i_glide_hbond>
-0.32

> <r_i_glide_ligand_efficiency>
-0.137919

> <r_i_glide_ligand_efficiency_ln>
-1.03599

> <r_i_glide_ligand_efficiency_sa>
-0.446805

> <r_i_glide_lipo>
-2.17715

> <r_i_glide_metal>
0

> <r_i_glide_rewards>
0.364718

> <s_i_glide_gridfile>
wee1_glide-grid

> <s_m_Source_File>
wee1_decoys_glide_SP.sdf

> <s_m_Source_Path>
/Users/zhangxujun/Desktop

> <s_m_entry_id>
2397

> <s_m_entry_name>
wee1_decoys_glide_SP.2122

> <s_m_subgroup_title>
wee1_decoys_glide_SP

> <s_m_subgroupid>
wee1_decoys_glide_SP


$$$$
