@<TRIPOS>MOLECULE
ZINC04177830_3108
62   64    1
SMALL
USER_CHARGES


@<TRIPOS>ATOM
      1 C1         -7.1126   46.7886   31.8304 C.3       1 UNK         0.0000 
      2 C2         -6.3585   47.8411   31.0015 C.3       1 UNK         0.0000 
      3 N3         -6.7423   49.2299   31.3627 N.pl3     1 UNK         0.0000 
      4 C4         -6.4171   49.7253   32.7283 C.3       1 UNK         0.0000 
      5 C5         -7.6312   50.3493   33.4299 C.3       1 UNK         0.0000 
      6 S6         -7.0412   50.3809   30.0351 S.o2      1 UNK         0.0000 
      7 O7         -7.4263   51.6790   30.6011 O.2       1 UNK         0.0000 
      8 O8         -7.9010   49.7171   29.0481 O.2       1 UNK         0.0000 
      9 C9         -5.4760   50.6700   29.2174 C.ar      1 UNK         0.0000 
     10 C10        -4.2741   50.4967   29.8995 C.ar      1 UNK         0.0000 
     11 C11        -3.0801   50.8429   29.2800 C.ar      1 UNK         0.0000 
     12 C12        -3.0506   51.2968   27.9544 C.ar      1 UNK         0.0000 
     13 C13        -4.2665   51.4197   27.2654 C.ar      1 UNK         0.0000 
     14 C14        -5.4728   51.1230   27.8973 C.ar      1 UNK         0.0000 
     15 C15        -1.7504   51.6963   27.2822 C.2       1 UNK         0.0000 
     16 O16        -1.7235   51.8685   26.0620 O.2       1 UNK         0.0000 
     17 N17        -0.7007   51.9034   28.1174 N.am      1 UNK         0.0000 
     18 C18         0.5818   52.3853   27.8336 C.2       1 UNK         0.0000 
     19 C19         1.6014   52.6943   28.7716 C.2       1 UNK         0.0000 
     20 C20         2.7899   53.1327   28.1182 C.2       1 UNK         0.0000 
     21 C21         2.6073   53.2991   26.7479 C.2       1 UNK         0.0000 
     22 S22         1.1039   52.6964   26.1981 S.3       1 UNK         0.0000 
     23 C23         3.6057   53.9133   25.7950 C.3       1 UNK         0.0000 
     24 N24         4.8692   54.2235   26.4917 N.am      1 UNK         0.0000 
     25 C25         4.8046   54.6563   27.9008 C.3       1 UNK         0.0000 
     26 C26         4.1342   53.5345   28.7378 C.3       1 UNK         0.0000 
     27 C27         6.0446   54.4599   25.7539 C.2       1 UNK         0.0000 
     28 O28         7.1041   54.8968   26.2085 O.2       1 UNK         0.0000 
     29 O29         5.8893   54.0918   24.4523 O.3       1 UNK         0.0000 
     30 C30         6.9748   53.9808   23.5456 C.3       1 UNK         0.0000 
     31 C31         7.1043   55.2601   22.7186 C.3       1 UNK         0.0000 
     32 C32         1.5147   52.4963   30.2118 C.2       1 UNK         0.0000 
     33 O33         2.4821   52.1428   30.8827 O.2       1 UNK         0.0000 
     34 N34         0.3139   52.6891   30.7670 N.am      1 UNK         0.0000 
     35 H35        -6.8960   45.7830   31.4717 H         1 UNK         0.0000 
     36 H36        -6.8325   46.8178   32.8821 H         1 UNK         0.0000 
     37 H37        -8.1913   46.9319   31.7622 H         1 UNK         0.0000 
     38 H38        -6.6029   47.6850   29.9501 H         1 UNK         0.0000 
     39 H39        -5.2752   47.7385   31.0653 H         1 UNK         0.0000 
     40 H40        -6.0751   48.8826   33.3289 H         1 UNK         0.0000 
     41 H41        -5.5664   50.4056   32.6843 H         1 UNK         0.0000 
     42 H42        -7.4099   50.5160   34.4822 H         1 UNK         0.0000 
     43 H43        -7.9023   51.3154   33.0082 H         1 UNK         0.0000 
     44 H44        -8.5045   49.6998   33.3718 H         1 UNK         0.0000 
     45 H45        -4.2413   50.1333   30.9154 H         1 UNK         0.0000 
     46 H46        -2.1758   50.6996   29.8541 H         1 UNK         0.0000 
     47 H47        -4.2887   51.7712   26.2431 H         1 UNK         0.0000 
     48 H48        -6.4037   51.2523   27.3638 H         1 UNK         0.0000 
     49 H49        -0.8562   51.6503   29.0808 H         1 UNK         0.0000 
     50 H50         3.2065   54.8320   25.3638 H         1 UNK         0.0000 
     51 H51         3.7642   53.2507   24.9441 H         1 UNK         0.0000 
     52 H52         5.7961   54.8656   28.3089 H         1 UNK         0.0000 
     53 H53         4.2335   55.5795   27.9685 H         1 UNK         0.0000 
     54 H54         4.7932   52.6687   28.8184 H         1 UNK         0.0000 
     55 H55         4.0136   53.8999   29.7570 H         1 UNK         0.0000 
     56 H56         6.7607   53.1439   22.8817 H         1 UNK         0.0000 
     57 H57         7.9043   53.7344   24.0600 H         1 UNK         0.0000 
     58 H58         7.9043   55.1685   21.9847 H         1 UNK         0.0000 
     59 H59         7.3465   56.0968   23.3691 H         1 UNK         0.0000 
     60 H60         6.1835   55.4871   22.1820 H         1 UNK         0.0000 
     61 H61         0.1586   52.4652   31.7438 H         1 UNK         0.0000 
     62 H62        -0.4159   53.1512   30.2500 H         1 UNK         0.0000 
@<TRIPOS>BOND
     1    1    2 1    
     2    1   35 1    
     3    1   36 1    
     4    1   37 1    
     5    2    3 1    
     6    2   38 1    
     7    2   39 1    
     8    3    4 1    
     9    3    6 1    
    10    4    5 1    
    11    4   40 1    
    12    4   41 1    
    13    5   42 1    
    14    5   43 1    
    15    5   44 1    
    16    6    7 2    
    17    6    8 2    
    18    6    9 1    
    19    9   14 ar   
    20    9   10 ar   
    21   10   11 ar   
    22   10   45 1    
    23   11   12 ar   
    24   11   46 1    
    25   12   13 ar   
    26   12   15 1    
    27   13   14 ar   
    28   13   47 1    
    29   14   48 1    
    30   15   16 2    
    31   15   17 am   BACKBONE|DICT|INTERRES
    32   17   18 am   BACKBONE|DICT|INTERRES
    33   17   49 1    
    34   18   22 1    
    35   18   19 2    
    36   19   20 1    
    37   19   32 1    
    38   20   26 1    
    39   20   21 2    
    40   21   22 1    
    41   21   23 1    
    42   23   24 1    
    43   23   50 1    
    44   23   51 1    
    45   24   25 1    
    46   24   27 am   BACKBONE|DICT|INTERRES
    47   25   26 1    
    48   25   52 1    
    49   25   53 1    
    50   26   54 1    
    51   26   55 1    
    52   27   28 2    
    53   27   29 1    
    54   29   30 1    
    55   30   31 1    
    56   30   56 1    
    57   30   57 1    
    58   31   58 1    
    59   31   59 1    
    60   31   60 1    
    61   32   33 2    
    62   32   34 am   BACKBONE|DICT|INTERRES
    63   34   61 1    
    64   34   62 1    
@<TRIPOS>SUBSTRUCTURE
     1 UNK         1 GROUP             0       ****    0 ROOT    
