ZINC39531944_4076
                    3D
 Schrodinger Suite 2024-2.
 76 80  0  0  1  0            999 V2000
    1.2342   51.9821   32.1190 C   0  0  0  0  0  0
    1.6634   52.3202   30.7090 C   0  0  0  0  0  0
    0.7693   52.1255   29.6551 C   0  0  0  0  0  0
    1.1164   52.4075   28.3354 C   0  0  0  0  0  0
    2.3995   52.9166   28.1192 C   0  0  0  0  0  0
    3.0412   53.2820   26.9609 N   0  0  0  0  0  0
    4.3033   53.7817   27.2022 C   0  0  0  0  0  0
    2.6804   53.1898   26.0239 H   0  0  0  0  0  0
    4.5204   53.6525   28.5688 C   0  0  0  0  0  0
    3.3325   53.1250   29.1722 C   0  0  0  0  0  0
    2.9582   52.7879   30.4790 C   0  0  0  0  0  0
    5.2824   54.1375   26.1877 C   0  0  0  0  0  0
    6.4773   54.0817   26.4971 O   0  0  0  0  0  0
    4.8740   54.4791   24.9258 N   0  0  0  0  0  0
    3.4750   54.7171   24.4817 C   0  0  0  0  0  0
    3.1373   53.7044   23.3796 C   0  0  0  0  0  0
    4.1082   53.8727   22.1862 C   0  0  0  0  0  0
    5.5375   53.6418   22.7553 C   0  0  0  0  0  0
    5.9053   54.6430   23.8737 C   0  0  0  0  0  0
    3.6653   52.9966   20.9689 C   0  0  2  0  0  0
    2.5736   53.0539   20.9533 H   0  0  0  0  0  0
    4.0760   51.4962   20.9771 C   0  0  0  0  0  0
    2.8816   50.5542   20.8515 C   0  0  0  0  0  0
    1.9714   50.4277   21.9062 C   0  0  0  0  0  0
    0.8601   49.5999   21.7754 C   0  0  0  0  0  0
    0.6616   48.8957   20.5902 C   0  0  0  0  0  0
    1.5778   48.9945   19.5454 C   0  0  0  0  0  0
    2.6891   49.8209   19.6816 C   0  0  0  0  0  0
    3.8971   53.7003   19.5943 N   0  3  2  0  0  0
    3.2667   52.9492   18.3961 C   0  0  0  0  0  0
    5.3178   54.1869   19.2306 C   0  0  0  0  0  0
    5.3209   55.4588   18.3966 C   0  0  0  0  0  0
    4.3119   56.2303   17.9461 C   0  0  0  0  0  0
    4.8246   57.3826   17.3475 N   0  0  0  0  0  0
    6.1833   57.1141   16.9953 N   0  0  0  0  0  0
    6.5942   56.1720   18.0082 C   0  0  2  0  0  0
    6.9692   56.7336   18.8664 H   0  0  0  0  0  0
    7.7199   55.2477   17.5137 C   0  0  0  0  0  0
    4.0299   58.0653   16.3404 C   0  0  0  0  0  0
    0.3062   51.4196   32.1399 H   0  0  0  0  0  0
    1.0943   52.8860   32.7109 H   0  0  0  0  0  0
    1.9888   51.3586   32.5966 H   0  0  0  0  0  0
   -0.2179   51.7357   29.8623 H   0  0  0  0  0  0
    0.4186   52.2395   27.5277 H   0  0  0  0  0  0
    5.4508   53.9043   29.0581 H   0  0  0  0  0  0
    3.6589   52.8960   31.2934 H   0  0  0  0  0  0
    2.7281   54.8499   25.2579 H   0  0  0  0  0  0
    3.4335   55.6818   23.9979 H   0  0  0  0  0  0
    3.1060   52.6858   23.7598 H   0  0  0  0  0  0
    2.1168   53.8988   23.0437 H   0  0  0  0  0  0
    4.0428   54.9174   21.8797 H   0  0  0  0  0  0
    6.2976   53.7179   21.9929 H   0  0  0  0  0  0
    5.6681   52.6251   23.1156 H   0  0  0  0  0  0
    5.9048   55.6673   23.5068 H   0  0  0  0  0  0
    6.9209   54.4350   24.2170 H   0  0  0  0  0  0
    4.8256   51.2911   20.2120 H   0  0  0  0  0  0
    4.5610   51.2258   21.9105 H   0  0  0  0  0  0
    2.1178   50.9662   22.8284 H   0  0  0  0  0  0
    0.1562   49.5040   22.5893 H   0  0  0  0  0  0
   -0.2025   48.2553   20.4868 H   0  0  0  0  0  0
    1.4355   48.4358   18.6324 H   0  0  0  0  0  0
    3.4062   49.8827   18.8804 H   0  0  0  0  0  0
    3.9000   52.0940   18.1620 H   0  0  0  0  0  0
    2.2577   52.6413   18.6729 H   0  0  0  0  0  0
    3.2366   53.6370   17.5511 H   0  0  0  0  0  0
    5.8264   54.4324   20.1519 H   0  0  0  0  0  0
    5.8361   53.3534   18.7510 H   0  0  0  0  0  0
    3.2453   56.0997   18.0719 H   0  0  0  0  0  0
    6.6655   57.9879   17.1594 H   0  0  0  0  0  0
    8.0547   54.5708   18.2994 H   0  0  0  0  0  0
    7.3925   54.6396   16.6685 H   0  0  0  0  0  0
    8.5907   55.8205   17.1910 H   0  0  0  0  0  0
    3.0381   58.2998   16.7278 H   0  0  0  0  0  0
    4.5030   59.0082   16.0564 H   0  0  0  0  0  0
    3.9175   57.4485   15.4488 H   0  0  0  0  0  0
    3.3518   54.5504   19.6815 H   0  0  0  0  0  0
  1 40  1  0  0  0
  1 41  1  0  0  0
  1 42  1  0  0  0
  1  2  1  0  0  0
  2  3  2  0  0  0
  2 11  1  0  0  0
  3  4  1  0  0  0
  3 43  1  0  0  0
  4  5  2  0  0  0
  4 44  1  0  0  0
  5  6  1  0  0  0
  5 10  1  0  0  0
  6  8  1  0  0  0
  6  7  1  0  0  0
  7  9  2  0  0  0
  7 12  1  0  0  0
  9 10  1  0  0  0
  9 45  1  0  0  0
 10 11  2  0  0  0
 11 46  1  0  0  0
 12 13  2  0  0  0
 12 14  1  0  0  0
 14 19  1  0  0  0
 14 15  1  0  0  0
 15 16  1  0  0  0
 15 47  1  0  0  0
 15 48  1  0  0  0
 16 17  1  0  0  0
 16 49  1  0  0  0
 16 50  1  0  0  0
 17 18  1  0  0  0
 17 20  1  0  0  0
 17 51  1  0  0  0
 18 19  1  0  0  0
 18 52  1  0  0  0
 18 53  1  0  0  0
 19 54  1  0  0  0
 19 55  1  0  0  0
 20 21  1  0  0  0
 20 22  1  0  0  0
 20 29  1  0  0  0
 22 23  1  0  0  0
 22 56  1  0  0  0
 22 57  1  0  0  0
 23 28  2  0  0  0
 23 24  1  0  0  0
 24 25  2  0  0  0
 24 58  1  0  0  0
 25 26  1  0  0  0
 25 59  1  0  0  0
 26 27  2  0  0  0
 26 60  1  0  0  0
 27 28  1  0  0  0
 27 61  1  0  0  0
 28 62  1  0  0  0
 29 30  1  0  0  0
 29 31  1  0  0  0
 29 76  1  0  0  0
 30 63  1  0  0  0
 30 64  1  0  0  0
 30 65  1  0  0  0
 31 32  1  0  0  0
 31 66  1  0  0  0
 31 67  1  0  0  0
 32 36  1  0  0  0
 32 33  2  0  0  0
 33 34  1  0  0  0
 33 68  1  0  0  0
 34 35  1  0  0  0
 34 39  1  0  0  0
 35 36  1  0  0  0
 35 69  1  0  0  0
 36 37  1  0  0  0
 36 38  1  0  0  0
 38 70  1  0  0  0
 38 71  1  0  0  0
 38 72  1  0  0  0
 39 73  1  0  0  0
 39 74  1  0  0  0
 39 75  1  0  0  0
M  CHG  1  29   1
M  END
> <i_i_glide_confnum>
337

> <i_i_glide_lignum>
4077

> <i_i_glide_posenum>
389

> <i_i_glide_rotatable_bonds>
8

> <i_m_Source_File_Index>
2756

> <b_m_subgroup_collapsed>
0

> <r_i_docking_score>
-5.58559

> <r_i_glide_ecoul>
-4.41666

> <r_i_glide_eff_state_penalty>
0

> <r_i_glide_einternal>
11.6535

> <r_i_glide_emodel>
-54.5571

> <r_i_glide_energy>
-45.6126

> <r_i_glide_erotb>
0.686476

> <r_i_glide_esite>
-0.0236535

> <r_i_glide_evdw>
-41.1959

> <r_i_glide_gscore>
-5.58559

> <r_i_glide_hbond>
0

> <r_i_glide_ligand_efficiency>
-0.155155

> <r_i_glide_ligand_efficiency_ln>
-1.21863

> <r_i_glide_ligand_efficiency_sa>
-0.512312

> <r_i_glide_lipo>
-2.68096

> <r_i_glide_metal>
0

> <r_i_glide_rewards>
-0.845158

> <s_i_glide_gridfile>
wee1_glide-grid

> <s_m_Source_File>
wee1_decoys_glide_SP.sdf

> <s_m_Source_Path>
/Users/zhangxujun/Desktop

> <s_m_entry_id>
3031

> <s_m_entry_name>
wee1_decoys_glide_SP.2756

> <s_m_subgroup_title>
wee1_decoys_glide_SP

> <s_m_subgroupid>
wee1_decoys_glide_SP


$$$$
