@<TRIPOS>MOLECULE
ZINC38686878_6011
58   62    1
SMALL
USER_CHARGES


@<TRIPOS>ATOM
      1 C1          6.3033   53.4078   17.2472 C.ar      1 UNK         0.0000 
      2 C2          7.1049   54.3164   16.5637 C.ar      1 UNK         0.0000 
      3 C3          7.5335   55.4778   17.2031 C.ar      1 UNK         0.0000 
      4 C4          7.1636   55.7364   18.5225 C.ar      1 UNK         0.0000 
      5 C5          6.3528   54.8267   19.2292 C.ar      1 UNK         0.0000 
      6 C6          5.9247   53.6625   18.5631 C.ar      1 UNK         0.0000 
      7 C7          5.9727   55.0823   20.6616 C.2       1 UNK         0.0000 
      8 O8          6.3082   56.0972   21.2804 O.2       1 UNK         0.0000 
      9 O9          5.2264   54.0624   21.2057 O.3       1 UNK         0.0000 
     10 C10         4.7947   54.1175   22.5125 C.ar      1 UNK         0.0000 
     11 C11         3.4264   54.1833   22.7649 C.ar      1 UNK         0.0000 
     12 C12         2.9570   54.2630   24.0727 C.ar      1 UNK         0.0000 
     13 C13         3.8258   54.2190   25.1744 C.ar      1 UNK         0.0000 
     14 C14         5.2076   54.1457   24.8972 C.ar      1 UNK         0.0000 
     15 C15         5.6870   54.0963   23.5899 C.ar      1 UNK         0.0000 
     16 O16         6.1646   54.0979   25.8910 O.3       1 UNK         0.0000 
     17 C17         5.7649   53.9170   27.1719 C.2       1 UNK         0.0000 
     18 C18         4.4884   53.9246   27.5962 C.2       1 UNK         0.0000 
     19 C19         3.3329   54.2500   26.6426 C.3       1 UNK         0.0000 
     20 H20         3.1041   55.2974   26.8297 H         1 UNK         0.0000 
     21 C21         2.0123   53.5206   26.9695 C.ar      1 UNK         0.0000 
     22 C22         1.2837   53.8741   28.1129 C.ar      1 UNK         0.0000 
     23 C23         0.1298   53.1801   28.4700 C.ar      1 UNK         0.0000 
     24 C24        -0.3448   52.1525   27.6565 C.ar      1 UNK         0.0000 
     25 C25         0.3254   51.8239   26.4707 C.ar      1 UNK         0.0000 
     26 C26         1.5043   52.4966   26.1604 C.ar      1 UNK         0.0000 
     27 O27        -0.0900   50.8728   25.5568 O.3       1 UNK         0.0000 
     28 C28        -1.3760   50.2592   25.6751 C.3       1 UNK         0.0000 
     29 C29        -2.5178   51.2669   25.5276 C.ar      1 UNK         0.0000 
     30 C30        -2.4513   52.2647   24.5514 C.ar      1 UNK         0.0000 
     31 C31        -3.4651   53.2136   24.4551 C.ar      1 UNK         0.0000 
     32 C32        -4.5460   53.1599   25.3310 C.ar      1 UNK         0.0000 
     33 C33        -4.6303   52.1543   26.2924 C.ar      1 UNK         0.0000 
     34 C34        -3.6166   51.2038   26.3882 C.ar      1 UNK         0.0000 
     35 F35        -5.5208   54.0928   25.2455 F         1 UNK         0.0000 
     36 C36         4.1947   53.7059   28.9744 C.1       1 UNK         0.0000 
     37 N37         3.9043   53.5509   30.0825 N.1       1 UNK         0.0000 
     38 N38         6.8789   53.6969   27.9319 N.pl3     1 UNK         0.0000 
     39 F39         7.6136   56.8810   19.0884 F         1 UNK         0.0000 
     40 H40         5.9721   52.4991   16.7644 H         1 UNK         0.0000 
     41 H41         7.3981   54.1175   15.5427 H         1 UNK         0.0000 
     42 H42         8.1547   56.1817   16.6740 H         1 UNK         0.0000 
     43 H43         5.3038   52.9232   19.0503 H         1 UNK         0.0000 
     44 H44         2.7303   54.2028   21.9403 H         1 UNK         0.0000 
     45 H45         1.8934   54.3497   24.2303 H         1 UNK         0.0000 
     46 H46         6.7485   54.0405   23.4089 H         1 UNK         0.0000 
     47 H47         1.6320   54.6698   28.7550 H         1 UNK         0.0000 
     48 H48        -0.3995   53.4355   29.3759 H         1 UNK         0.0000 
     49 H49        -1.2410   51.6296   27.9515 H         1 UNK         0.0000 
     50 H50         2.0332   52.1831   25.2762 H         1 UNK         0.0000 
     51 H51        -1.4379   49.6989   26.6070 H         1 UNK         0.0000 
     52 H52        -1.4717   49.5193   24.8810 H         1 UNK         0.0000 
     53 H53        -1.6019   52.3152   23.8848 H         1 UNK         0.0000 
     54 H54        -3.4101   53.9930   23.7113 H         1 UNK         0.0000 
     55 H55        -5.4729   52.1164   26.9650 H         1 UNK         0.0000 
     56 H56        -3.6732   50.4304   27.1414 H         1 UNK         0.0000 
     57 H57         6.8324   53.7423   28.9390 H         1 UNK         0.0000 
     58 H58         7.7132   53.3113   27.5185 H         1 UNK         0.0000 
@<TRIPOS>BOND
     1    1    6 ar   
     2    1    2 ar   
     3    1   40 1    
     4    2    3 ar   
     5    2   41 1    
     6    3    4 ar   
     7    3   42 1    
     8    4    5 ar   
     9    4   39 1    
    10    5    6 ar   
    11    5    7 1    
    12    6   43 1    
    13    7    8 2    
    14    7    9 1    
    15    9   10 1    
    16   10   15 ar   
    17   10   11 ar   
    18   11   12 ar   
    19   11   44 1    
    20   12   13 ar   
    21   12   45 1    
    22   13   19 1    
    23   13   14 ar   
    24   14   15 ar   
    25   14   16 1    
    26   15   46 1    
    27   16   17 1    
    28   17   18 2    
    29   17   38 1    
    30   18   19 1    
    31   18   36 1    
    32   19   20 1    
    33   19   21 1    
    34   21   26 ar   
    35   21   22 ar   
    36   22   23 ar   
    37   22   47 1    
    38   23   24 ar   
    39   23   48 1    
    40   24   25 ar   
    41   24   49 1    
    42   25   26 ar   
    43   25   27 1    
    44   26   50 1    
    45   27   28 1    
    46   28   29 1    
    47   28   51 1    
    48   28   52 1    
    49   29   34 ar   
    50   29   30 ar   
    51   30   31 ar   
    52   30   53 1    
    53   31   32 ar   
    54   31   54 1    
    55   32   33 ar   
    56   32   35 1    
    57   33   34 ar   
    58   33   55 1    
    59   34   56 1    
    60   36   37 3    
    61   38   57 1    
    62   38   58 1    
@<TRIPOS>SUBSTRUCTURE
     1 UNK         1 GROUP             0       ****    0 ROOT    
