@<TRIPOS>MOLECULE
ZINC27520941_1128
59   63    1
SMALL
USER_CHARGES


@<TRIPOS>ATOM
      1 C1         -0.3773   51.9721   25.9361 C.3       1 UNK         0.0000 
      2 C2          0.2540   52.7150   24.7547 C.3       1 UNK         0.0000 
      3 O3          1.5789   53.0987   25.0986 O.3       1 UNK         0.0000 
      4 C4          2.2830   53.9275   24.3004 C.2       1 UNK         0.0000 
      5 O5          1.8396   54.4571   23.2808 O.2       1 UNK         0.0000 
      6 C6          3.6733   54.0946   24.7620 C.2       1 UNK         0.0000 
      7 C7          4.0974   54.0975   26.1241 C.2       1 UNK         0.0000 
      8 C8          5.4613   54.3938   26.2707 C.2       1 UNK         0.0000 
      9 S9          6.2592   54.5923   24.7589 S.3       1 UNK         0.0000 
     10 C10         4.7891   54.2809   23.9084 C.2       1 UNK         0.0000 
     11 N11         4.8933   54.3106   22.5189 N.pl3     1 UNK         0.0000 
     12 C12         4.3627   53.4994   21.6006 C.2       1 UNK         0.0000 
     13 C13         4.5110   53.6956   20.2057 C.2       1 UNK         0.0000 
     14 C14         3.8934   52.7756   19.4043 C.2       1 UNK         0.0000 
     15 C15         3.1026   51.6462   19.9152 C.ar      1 UNK         0.0000 
     16 C16         2.4716   50.6876   19.1195 C.ar      1 UNK         0.0000 
     17 C17         1.7638   49.6479   19.7289 C.ar      1 UNK         0.0000 
     18 C18         1.6836   49.5695   21.1229 C.ar      1 UNK         0.0000 
     19 C19         2.3193   50.5257   21.9182 C.ar      1 UNK         0.0000 
     20 C20         3.0293   51.5563   21.3013 C.ar      1 UNK         0.0000 
     21 O21         3.6820   52.4962   22.0816 O.3       1 UNK         0.0000 
     22 C22         5.2794   54.8036   19.6373 C.2       1 UNK         0.0000 
     23 O23         6.2734   55.2590   20.2146 O.2       1 UNK         0.0000 
     24 N24         4.7917   55.3283   18.4894 N.am      1 UNK         0.0000 
     25 C25         5.3475   56.3834   17.7446 C.ar      1 UNK         0.0000 
     26 C26         6.7317   56.5239   17.5617 C.ar      1 UNK         0.0000 
     27 C27         7.2271   57.5708   16.7891 C.ar      1 UNK         0.0000 
     28 C28         6.3476   58.4747   16.2010 C.ar      1 UNK         0.0000 
     29 C29         4.9725   58.3446   16.3815 C.ar      1 UNK         0.0000 
     30 C30         4.4703   57.2917   17.1437 C.ar      1 UNK         0.0000 
     31 F31         6.8368   59.4769   15.4392 F         1 UNK         0.0000 
     32 C32         6.1879   54.6302   27.5826 C.3       1 UNK         0.0000 
     33 C33         5.3208   54.1508   28.7635 C.3       1 UNK         0.0000 
     34 C34         3.8396   54.5336   28.6171 C.3       1 UNK         0.0000 
     35 C35         3.1950   53.9281   27.3538 C.3       1 UNK         0.0000 
     36 H36        -1.3913   51.6487   25.6934 H         1 UNK         0.0000 
     37 H37         0.2018   51.0846   26.1985 H         1 UNK         0.0000 
     38 H38        -0.4348   52.6085   26.8206 H         1 UNK         0.0000 
     39 H39        -0.3476   53.5869   24.4885 H         1 UNK         0.0000 
     40 H40         0.2850   52.0671   23.8776 H         1 UNK         0.0000 
     41 H41         4.0000   52.8386   18.3310 H         1 UNK         0.0000 
     42 H42         2.5551   50.7264   18.0427 H         1 UNK         0.0000 
     43 H43         1.2896   48.8966   19.1150 H         1 UNK         0.0000 
     44 H44         1.1363   48.7643   21.5881 H         1 UNK         0.0000 
     45 H45         2.2732   50.4586   22.9960 H         1 UNK         0.0000 
     46 H46         3.8648   55.0417   18.2142 H         1 UNK         0.0000 
     47 H47         7.4259   55.8219   18.0002 H         1 UNK         0.0000 
     48 H48         8.2913   57.6821   16.6402 H         1 UNK         0.0000 
     49 H49         4.3063   59.0699   15.9349 H         1 UNK         0.0000 
     50 H50         3.4018   57.2015   17.2752 H         1 UNK         0.0000 
     51 H51         6.3795   55.6969   27.6859 H         1 UNK         0.0000 
     52 H52         7.1576   54.1306   27.6006 H         1 UNK         0.0000 
     53 H53         5.7110   54.5912   29.6807 H         1 UNK         0.0000 
     54 H54         5.4097   53.0684   28.8716 H         1 UNK         0.0000 
     55 H55         3.7377   55.6187   28.5968 H         1 UNK         0.0000 
     56 H56         3.2858   54.2048   29.4979 H         1 UNK         0.0000 
     57 H57         3.0029   52.8653   27.5102 H         1 UNK         0.0000 
     58 H58         2.2189   54.3912   27.2059 H         1 UNK         0.0000 
     59 H59         5.4945   55.0461   22.1565 H         1 UNK         0.0000 
@<TRIPOS>BOND
     1    1    2 1    
     2    1   36 1    
     3    1   37 1    
     4    1   38 1    
     5    2    3 1    
     6    2   39 1    
     7    2   40 1    
     8    3    4 1    
     9    4    5 2    
    10    4    6 1    
    11    6   10 2    
    12    6    7 1    
    13    7   35 1    
    14    7    8 2    
    15    8    9 1    
    16    8   32 1    
    17    9   10 1    
    18   10   11 1    
    19   11   12 2    
    20   11   59 1    
    21   12   21 1    
    22   12   13 1    
    23   13   14 2    
    24   13   22 1    
    25   14   15 1    
    26   14   41 1    
    27   15   20 ar   
    28   15   16 ar   
    29   16   17 ar   
    30   16   42 1    
    31   17   18 ar   
    32   17   43 1    
    33   18   19 ar   
    34   18   44 1    
    35   19   20 ar   
    36   19   45 1    
    37   20   21 1    
    38   22   23 2    
    39   22   24 am   BACKBONE|DICT|INTERRES
    40   24   25 1    
    41   24   46 1    
    42   25   30 ar   
    43   25   26 ar   
    44   26   27 ar   
    45   26   47 1    
    46   27   28 ar   
    47   27   48 1    
    48   28   29 ar   
    49   28   31 1    
    50   29   30 ar   
    51   29   49 1    
    52   30   50 1    
    53   32   33 1    
    54   32   51 1    
    55   32   52 1    
    56   33   34 1    
    57   33   53 1    
    58   33   54 1    
    59   34   35 1    
    60   34   55 1    
    61   34   56 1    
    62   35   57 1    
    63   35   58 1    
@<TRIPOS>SUBSTRUCTURE
     1 UNK         1 GROUP             0       ****    0 ROOT    
