@<TRIPOS>MOLECULE
ZINC00930006_2643
48   51    1
SMALL
USER_CHARGES


@<TRIPOS>ATOM
      1 C1          4.1237   57.2194   17.0773 C.3       1 UNK         0.0000 
      2 C2          5.6304   57.1732   17.2961 C.ar      1 UNK         0.0000 
      3 C3          6.3039   58.3637   17.5715 C.ar      1 UNK         0.0000 
      4 C4          7.7031   58.3591   17.7758 C.ar      1 UNK         0.0000 
      5 C5          8.4287   59.5447   18.0815 C.ar      1 UNK         0.0000 
      6 C6          9.7981   59.4319   18.2807 C.ar      1 UNK         0.0000 
      7 C7         10.4514   58.2361   18.1942 C.ar      1 UNK         0.0000 
      8 C8          9.7963   57.0478   17.8941 C.ar      1 UNK         0.0000 
      9 C9          8.3910   57.1034   17.6708 C.ar      1 UNK         0.0000 
     10 N10         7.7290   55.9520   17.3711 N.ar      1 UNK         0.0000 
     11 C11         6.3814   55.9895   17.2094 C.ar      1 UNK         0.0000 
     12 S12         5.6187   54.4169   16.8929 S.3       1 UNK         0.0000 
     13 C13         4.5111   54.0333   18.3015 C.3       1 UNK         0.0000 
     14 C14         5.1163   54.2299   19.7002 C.2       1 UNK         0.0000 
     15 O15         6.3079   54.4988   19.8199 O.2       1 UNK         0.0000 
     16 N16         4.2654   54.0920   20.7404 N.am      1 UNK         0.0000 
     17 C17         4.5364   54.1341   22.1259 C.ar      1 UNK         0.0000 
     18 C18         5.8238   54.2114   22.6821 C.ar      1 UNK         0.0000 
     19 C19         5.9994   54.2299   24.0586 C.ar      1 UNK         0.0000 
     20 C20         4.8870   54.1728   24.9107 C.ar      1 UNK         0.0000 
     21 C21         3.6042   54.0971   24.3610 C.ar      1 UNK         0.0000 
     22 C22         3.4301   54.0800   22.9778 C.ar      1 UNK         0.0000 
     23 N23         4.9796   54.1359   26.3151 N.am      1 UNK         0.0000 
     24 C24         6.0315   54.4472   27.1004 C.2       1 UNK         0.0000 
     25 O25         7.1042   54.8960   26.7062 O.2       1 UNK         0.0000 
     26 C26         5.8290   54.2280   28.5915 C.3       1 UNK         0.0000 
     27 O27        11.7674   58.4241   18.4804 O.3       1 UNK         0.0000 
     28 C28        11.9501   59.8134   18.5315 C.3       1 UNK         0.0000 
     29 O29        10.6820   60.4073   18.6224 O.3       1 UNK         0.0000 
     30 H30         3.7869   58.2265   16.8203 H         1 UNK         0.0000 
     31 H31         3.8327   56.5746   16.2472 H         1 UNK         0.0000 
     32 H32         3.5978   56.8908   17.9733 H         1 UNK         0.0000 
     33 H33         5.7614   59.2967   17.6358 H         1 UNK         0.0000 
     34 H34         7.9047   60.4874   18.1554 H         1 UNK         0.0000 
     35 H35        10.3170   56.1026   17.8438 H         1 UNK         0.0000 
     36 H36         4.2314   52.9824   18.2055 H         1 UNK         0.0000 
     37 H37         3.5941   54.6144   18.2052 H         1 UNK         0.0000 
     38 H38         3.2920   53.9643   20.5032 H         1 UNK         0.0000 
     39 H39         6.7164   54.2514   22.0820 H         1 UNK         0.0000 
     40 H40         7.0123   54.2612   24.4307 H         1 UNK         0.0000 
     41 H41         2.7347   54.0438   25.0005 H         1 UNK         0.0000 
     42 H42         2.4288   54.0225   22.5744 H         1 UNK         0.0000 
     43 H43         4.1369   53.8524   26.7879 H         1 UNK         0.0000 
     44 H44         5.2249   53.3400   28.7867 H         1 UNK         0.0000 
     45 H45         5.3429   55.0952   29.0408 H         1 UNK         0.0000 
     46 H46         6.7957   54.0961   29.0797 H         1 UNK         0.0000 
     47 H47        12.5663   60.0814   19.3917 H         1 UNK         0.0000 
     48 H48        12.4378   60.1437   17.6111 H         1 UNK         0.0000 
@<TRIPOS>BOND
     1    1    2 1    
     2    1   30 1    
     3    1   31 1    
     4    1   32 1    
     5    2   11 ar   
     6    2    3 ar   
     7    3    4 ar   
     8    3   33 1    
     9    4    9 ar   
    10    4    5 ar   
    11    5    6 ar   
    12    5   34 1    
    13    6   29 1    
    14    6    7 ar   
    15    7    8 ar   
    16    7   27 1    
    17    8    9 ar   
    18    8   35 1    
    19    9   10 ar   
    20   10   11 ar   
    21   11   12 1    
    22   12   13 1    
    23   13   14 1    
    24   13   36 1    
    25   13   37 1    
    26   14   15 2    
    27   14   16 am   BACKBONE|DICT|INTERRES
    28   16   17 1    
    29   16   38 1    
    30   17   22 ar   
    31   17   18 ar   
    32   18   19 ar   
    33   18   39 1    
    34   19   20 ar   
    35   19   40 1    
    36   20   21 ar   
    37   20   23 1    
    38   21   22 ar   
    39   21   41 1    
    40   22   42 1    
    41   23   24 am   BACKBONE|DICT|INTERRES
    42   23   43 1    
    43   24   25 2    
    44   24   26 1    
    45   26   44 1    
    46   26   45 1    
    47   26   46 1    
    48   27   28 1    
    49   28   29 1    
    50   28   47 1    
    51   28   48 1    
@<TRIPOS>SUBSTRUCTURE
     1 UNK         1 GROUP             0       ****    0 ROOT    
