ZINC22122709_4940
                    3D
 Schrodinger Suite 2024-2.
 61 65  0  0  1  0            999 V2000
    2.6456   49.8084   20.2550 C   0  0  0  0  0  0
    2.6448   51.0009   21.1959 C   0  0  0  0  0  0
    3.3710   52.1449   20.8769 C   0  0  0  0  0  0
    3.3544   53.2391   21.7386 C   0  0  0  0  0  0
    2.6273   53.2012   22.9351 C   0  0  0  0  0  0
    1.9040   52.0356   23.2823 C   0  0  0  0  0  0
    1.9283   50.9488   22.3925 C   0  0  0  0  0  0
    1.1040   51.8487   24.5468 C   0  0  0  0  0  0
    0.0535   50.9469   24.7628 C   0  0  0  0  0  0
   -0.3618   51.1280   26.0668 C   0  0  0  0  0  0
    0.4675   52.1037   26.5992 N   0  0  0  0  0  0
    1.3525   52.5099   25.6617 N   0  0  0  0  0  0
    0.5459   52.6474   27.9207 C   0  0  0  0  0  0
    0.0468   51.9447   29.0281 C   0  0  0  0  0  0
    0.0765   52.5146   30.2986 C   0  0  0  0  0  0
    0.6220   53.7810   30.4790 C   0  0  0  0  0  0
    1.1399   54.4860   29.3974 C   0  0  0  0  0  0
    1.1046   53.9229   28.1251 C   0  0  0  0  0  0
   -1.4013   50.4976   26.7146 N   0  0  0  0  0  0
   -2.6103   51.0660   26.8565 C   0  0  0  0  0  0
   -2.8900   52.2074   26.4805 O   0  0  0  0  0  0
   -3.6442   50.1855   27.5578 C   0  0  0  0  0  0
   -5.3739   50.5852   27.1348 S   0  0  0  0  0  0
   -5.8975   51.1904   28.7019 C   0  0  0  0  0  0
   -6.4982   52.3430   28.8633 N   0  0  0  0  0  0
   -6.8960   52.4307   30.1915 N   0  0  0  0  0  0
   -6.5534   51.3047   30.7732 C   0  0  0  0  0  0
   -5.9138   50.4714   29.8805 N   0  0  0  0  0  0
   -5.4465   49.1806   30.1014 N   0  0  0  0  0  0
   -6.8866   50.9548   32.1461 C   0  0  0  0  0  0
   -6.0958   50.2194   33.0365 C   0  0  0  0  0  0
   -6.8103   50.0970   34.2091 C   0  0  0  0  0  0
   -8.0115   50.7130   34.0817 O   0  0  0  0  0  0
   -8.0538   51.2664   32.8436 C   0  0  0  0  0  0
   -9.3146   52.0241   32.5083 C   0  0  0  0  0  0
    2.6401   54.4465   23.8103 C   0  0  0  0  0  0
    3.5030   49.8327   19.5777 H   0  0  0  0  0  0
    2.7031   48.8771   20.8165 H   0  0  0  0  0  0
    1.7266   49.7850   19.6669 H   0  0  0  0  0  0
    3.9367   52.1956   19.9572 H   0  0  0  0  0  0
    3.9027   54.1273   21.4617 H   0  0  0  0  0  0
    1.3975   50.0367   22.6269 H   0  0  0  0  0  0
   -0.3732   50.2599   24.0477 H   0  0  0  0  0  0
   -0.3662   50.9516   28.9357 H   0  0  0  0  0  0
   -0.3245   51.9745   31.1460 H   0  0  0  0  0  0
    0.6276   54.2245   31.4629 H   0  0  0  0  0  0
    1.5566   55.4729   29.5395 H   0  0  0  0  0  0
    1.4972   54.4961   27.2954 H   0  0  0  0  0  0
   -1.2642   49.5614   27.0981 H   0  0  0  0  0  0
   -3.4542   50.2630   28.6284 H   0  0  0  0  0  0
   -3.4747   49.1424   27.2847 H   0  0  0  0  0  0
   -5.9260   48.4962   29.5301 H   0  0  0  0  0  0
   -4.4379   49.1190   30.0323 H   0  0  0  0  0  0
   -5.1035   49.8340   32.8487 H   0  0  0  0  0  0
   -6.6061   49.6240   35.1598 H   0  0  0  0  0  0
   -9.1268   52.8493   31.8208 H   0  0  0  0  0  0
  -10.0561   51.3759   32.0375 H   0  0  0  0  0  0
   -9.7813   52.4537   33.3971 H   0  0  0  0  0  0
    3.1018   55.2966   23.3070 H   0  0  0  0  0  0
    1.6200   54.7387   24.0668 H   0  0  0  0  0  0
    3.1857   54.2594   24.7358 H   0  0  0  0  0  0
  1  2  1  0  0  0
  1 37  1  0  0  0
  1 38  1  0  0  0
  1 39  1  0  0  0
  2  7  2  0  0  0
  2  3  1  0  0  0
  3  4  2  0  0  0
  3 40  1  0  0  0
  4  5  1  0  0  0
  4 41  1  0  0  0
  5  6  2  0  0  0
  5 36  1  0  0  0
  6  7  1  0  0  0
  6  8  1  0  0  0
  7 42  1  0  0  0
  8 12  2  0  0  0
  8  9  1  0  0  0
  9 10  2  0  0  0
  9 43  1  0  0  0
 10 11  1  0  0  0
 10 19  1  0  0  0
 11 12  1  0  0  0
 11 13  1  0  0  0
 13 18  2  0  0  0
 13 14  1  0  0  0
 14 15  2  0  0  0
 14 44  1  0  0  0
 15 16  1  0  0  0
 15 45  1  0  0  0
 16 17  2  0  0  0
 16 46  1  0  0  0
 17 18  1  0  0  0
 17 47  1  0  0  0
 18 48  1  0  0  0
 19 20  1  0  0  0
 19 49  1  0  0  0
 20 21  2  0  0  0
 20 22  1  0  0  0
 22 23  1  0  0  0
 22 50  1  0  0  0
 22 51  1  0  0  0
 23 24  1  0  0  0
 24 28  1  0  0  0
 24 25  2  0  0  0
 25 26  1  0  0  0
 26 27  2  0  0  0
 27 28  1  0  0  0
 27 30  1  0  0  0
 28 29  1  0  0  0
 29 52  1  0  0  0
 29 53  1  0  0  0
 30 34  2  0  0  0
 30 31  1  0  0  0
 31 32  2  0  0  0
 31 54  1  0  0  0
 32 33  1  0  0  0
 32 55  1  0  0  0
 33 34  1  0  0  0
 34 35  1  0  0  0
 35 56  1  0  0  0
 35 57  1  0  0  0
 35 58  1  0  0  0
 36 59  1  0  0  0
 36 60  1  0  0  0
 36 61  1  0  0  0
M  END
> <i_i_glide_confnum>
61

> <i_i_glide_lignum>
4941

> <i_i_glide_posenum>
321

> <i_i_glide_rotatable_bonds>
8

> <i_m_Source_File_Index>
5909

> <b_m_subgroup_collapsed>
0

> <r_i_docking_score>
-3.57499

> <r_i_glide_ecoul>
-10.6166

> <r_i_glide_eff_state_penalty>
0

> <r_i_glide_einternal>
3.158

> <r_i_glide_emodel>
-62.3504

> <r_i_glide_energy>
-55.7407

> <r_i_glide_erotb>
0.65432

> <r_i_glide_esite>
-0.327654

> <r_i_glide_evdw>
-45.1241

> <r_i_glide_gscore>
-3.57499

> <r_i_glide_hbond>
-0.16

> <r_i_glide_ligand_efficiency>
-0.0993052

> <r_i_glide_ligand_efficiency_ln>
-0.779966

> <r_i_glide_ligand_efficiency_sa>
-0.327899

> <r_i_glide_lipo>
-1.75554

> <r_i_glide_metal>
0

> <r_i_glide_rewards>
1.86258

> <s_i_glide_gridfile>
wee1_glide-grid

> <s_m_Source_File>
wee1_decoys_glide_SP.sdf

> <s_m_Source_Path>
/Users/zhangxujun/Desktop

> <s_m_entry_id>
6184

> <s_m_entry_name>
wee1_decoys_glide_SP.5909

> <s_m_subgroup_title>
wee1_decoys_glide_SP

> <s_m_subgroupid>
wee1_decoys_glide_SP


$$$$
