ZINC04275595_1541
                    3D
 Schrodinger Suite 2024-2.
 51 54  0  0  1  0            999 V2000
   -0.1592   48.3111   24.5853 C   0  0  0  0  0  0
    0.2324   49.7637   24.3913 C   0  0  0  0  0  0
   -0.2050   50.7328   25.2993 C   0  0  0  0  0  0
    0.1581   52.0673   25.1259 C   0  0  0  0  0  0
    0.9665   52.4332   24.0477 C   0  0  0  0  0  0
    1.4193   51.4797   23.1337 C   0  0  0  0  0  0
    1.0407   50.1359   23.3131 C   0  0  0  0  0  0
    2.2137   51.9504   22.1045 O   0  0  0  0  0  0
    2.8269   51.0715   21.2009 C   0  0  1  0  0  0
    3.1431   50.1572   21.7058 H   0  0  0  0  0  0
    1.8837   50.8183   19.9977 C   0  0  1  0  0  0
    0.8992   50.5863   20.4134 H   0  0  0  0  0  0
    1.7150   52.1250   19.1717 C   0  0  1  0  0  0
    1.2344   52.8891   19.7857 H   0  0  0  0  0  0
    3.1091   52.6191   18.7486 C   0  0  2  0  0  0
    3.5491   51.8717   18.0850 H   0  0  0  0  0  0
    3.9572   52.7934   20.0134 C   0  0  1  0  0  0
    3.4965   53.5795   20.6121 H   0  0  0  0  0  0
    4.0694   51.5840   20.7762 O   0  0  0  0  0  0
    5.3383   53.2860   19.5898 C   0  0  0  0  0  0
    5.2064   54.4761   18.8088 O   0  0  0  0  0  0
    4.3734   54.2815   17.6873 C   0  0  1  0  0  0
    4.8085   53.4887   17.0743 H   0  0  0  0  0  0
    3.0773   53.8885   18.0812 O   0  0  0  0  0  0
    4.2734   55.5788   16.9679 C   0  0  0  0  0  0
    4.4956   55.9306   15.6454 C   0  0  0  0  0  0
    4.2619   57.3054   15.5544 C   0  0  0  0  0  0
    3.9041   57.7274   16.8237 C   0  0  0  0  0  0
    3.9048   56.6760   17.6828 O   0  0  0  0  0  0
    0.8655   51.9298   18.0504 O   0  0  0  0  0  0
    2.3044   49.6653   19.1821 N   0  0  0  0  0  0
    1.7959   48.4277   19.2483 C   0  0  0  0  0  0
    0.9547   48.0758   20.0751 O   0  0  0  0  0  0
    2.3044   47.4409   18.2051 C   0  0  0  0  0  0
   -0.5109   48.1153   25.6008 H   0  0  0  0  0  0
    0.7040   47.6669   24.4246 H   0  0  0  0  0  0
   -0.9327   48.0244   23.8720 H   0  0  0  0  0  0
   -0.8272   50.4498   26.1393 H   0  0  0  0  0  0
   -0.1853   52.8138   25.8270 H   0  0  0  0  0  0
    1.2472   53.4708   23.9210 H   0  0  0  0  0  0
    1.3582   49.3671   22.6233 H   0  0  0  0  0  0
    5.9042   53.5372   20.4826 H   0  0  0  0  0  0
    5.9050   52.5221   19.0492 H   0  0  0  0  0  0
    4.7978   55.2692   14.8472 H   0  0  0  0  0  0
    4.3511   57.9243   14.6726 H   0  0  0  0  0  0
    3.6418   58.6910   17.2398 H   0  0  0  0  0  0
    1.3336   51.3851   17.4131 H   0  0  0  0  0  0
    3.0662   49.8165   18.5329 H   0  0  0  0  0  0
    3.3925   47.3881   18.2181 H   0  0  0  0  0  0
    1.9014   46.4473   18.3961 H   0  0  0  0  0  0
    1.9940   47.7541   17.2080 H   0  0  0  0  0  0
  1  2  1  0  0  0
  1 35  1  0  0  0
  1 36  1  0  0  0
  1 37  1  0  0  0
  2  7  2  0  0  0
  2  3  1  0  0  0
  3  4  2  0  0  0
  3 38  1  0  0  0
  4  5  1  0  0  0
  4 39  1  0  0  0
  5  6  2  0  0  0
  5 40  1  0  0  0
  6  7  1  0  0  0
  6  8  1  0  0  0
  7 41  1  0  0  0
  8  9  1  0  0  0
  9 10  1  0  0  0
  9 19  1  0  0  0
  9 11  1  0  0  0
 11 12  1  0  0  0
 11 13  1  0  0  0
 11 31  1  0  0  0
 13 14  1  0  0  0
 13 15  1  0  0  0
 13 30  1  0  0  0
 15 16  1  0  0  0
 15 24  1  0  0  0
 15 17  1  0  0  0
 17 18  1  0  0  0
 17 19  1  0  0  0
 17 20  1  0  0  0
 20 21  1  0  0  0
 20 42  1  0  0  0
 20 43  1  0  0  0
 21 22  1  0  0  0
 22 23  1  0  0  0
 22 24  1  0  0  0
 22 25  1  0  0  0
 25 29  1  0  0  0
 25 26  2  0  0  0
 26 27  1  0  0  0
 26 44  1  0  0  0
 27 28  2  0  0  0
 27 45  1  0  0  0
 28 29  1  0  0  0
 28 46  1  0  0  0
 30 47  1  0  0  0
 31 32  1  0  0  0
 31 48  1  0  0  0
 32 33  2  0  0  0
 32 34  1  0  0  0
 34 49  1  0  0  0
 34 50  1  0  0  0
 34 51  1  0  0  0
M  END
> <i_i_glide_confnum>
2

> <i_i_glide_lignum>
1542

> <i_i_glide_posenum>
284

> <i_i_glide_rotatable_bonds>
6

> <i_m_Source_File_Index>
1668

> <b_m_subgroup_collapsed>
0

> <r_i_docking_score>
-3.21043

> <r_i_glide_ecoul>
-5.33296

> <r_i_glide_eff_state_penalty>
0

> <r_i_glide_einternal>
5.22891

> <r_i_glide_emodel>
-38.8011

> <r_i_glide_energy>
-33.7952

> <r_i_glide_erotb>
0.514242

> <r_i_glide_esite>
-0.142291

> <r_i_glide_evdw>
-28.4623

> <r_i_glide_gscore>
-3.21043

> <r_i_glide_hbond>
-0.0836809

> <r_i_glide_ligand_efficiency>
-0.114658

> <r_i_glide_ligand_efficiency_ln>
-0.741062

> <r_i_glide_ligand_efficiency_sa>
-0.34817

> <r_i_glide_lipo>
-0.429313

> <r_i_glide_metal>
0

> <r_i_glide_rewards>
-0.846332

> <s_i_glide_gridfile>
wee1_glide-grid

> <s_m_Source_File>
wee1_decoys_glide_SP.sdf

> <s_m_Source_Path>
/Users/zhangxujun/Desktop

> <s_m_entry_id>
1943

> <s_m_entry_name>
wee1_decoys_glide_SP.1668

> <s_m_subgroup_title>
wee1_decoys_glide_SP

> <s_m_subgroupid>
wee1_decoys_glide_SP


$$$$
