@<TRIPOS>MOLECULE
ZINC16572263_3415
55   57    1
SMALL
USER_CHARGES


@<TRIPOS>ATOM
      1 C1          6.6322   58.4905   18.9905 C.3       1 UNK         0.0000 
      2 C2          6.7116   57.6856   17.6873 C.3       1 UNK         0.0000 
      3 C3          7.8610   56.6412   17.6257 C.3       1 UNK         0.0000 
      4 H4          8.6875   57.0063   18.2404 H         1 UNK         0.0000 
      5 C5          8.4027   56.6028   16.1790 C.3       1 UNK         0.0000 
      6 C6          7.4314   55.2138   18.1337 C.3       1 UNK         0.0000 
      7 H7          6.5184   54.9256   17.6078 H         1 UNK         0.0000 
      8 C8          7.1427   55.2419   19.6540 C.2       1 UNK         0.0000 
      9 O9          8.0057   55.6827   20.4195 O.2       1 UNK         0.0000 
     10 N10         5.9483   54.7341   20.0278 N.am      1 UNK         0.0000 
     11 C11         5.4855   54.5100   21.3193 C.2       1 UNK         0.0000 
     12 N12         4.2927   54.0114   21.5235 N.2       1 UNK         0.0000 
     13 N13         3.9971   53.8596   22.8720 N.2       1 UNK         0.0000 
     14 C14         4.9745   54.2316   23.6702 C.2       1 UNK         0.0000 
     15 S15         6.3796   54.7968   22.8005 S.3       1 UNK         0.0000 
     16 C16         4.8841   54.2566   25.1695 C.ar      1 UNK         0.0000 
     17 C17         6.0193   54.4446   25.9696 C.ar      1 UNK         0.0000 
     18 C18         5.9046   54.4969   27.3573 C.ar      1 UNK         0.0000 
     19 C19         4.6510   54.3700   27.9525 C.ar      1 UNK         0.0000 
     20 C20         3.5184   54.1553   27.1717 C.ar      1 UNK         0.0000 
     21 C21         3.6357   54.0970   25.7866 C.ar      1 UNK         0.0000 
     22 Cl22        4.4904   54.4975   29.6666 Cl        1 UNK         0.0000 
     23 N23         8.4553   54.1854   17.8864 N.am      1 UNK         0.0000 
     24 C24         8.4294   53.2905   16.8830 C.2       1 UNK         0.0000 
     25 O25         7.5726   53.2994   15.9987 O.2       1 UNK         0.0000 
     26 N26         9.4605   52.4269   16.9704 N.am      1 UNK         0.0000 
     27 C27         9.8336   51.3776   16.1064 C.ar      1 UNK         0.0000 
     28 C28         9.1037   50.9635   14.9794 C.ar      1 UNK         0.0000 
     29 C29         9.5792   49.9272   14.1755 C.ar      1 UNK         0.0000 
     30 C30        10.7840   49.2976   14.4829 C.ar      1 UNK         0.0000 
     31 C31        11.5134   49.6902   15.6061 C.ar      1 UNK         0.0000 
     32 C32        11.0326   50.7248   16.4138 C.ar      1 UNK         0.0000 
     33 C33        12.8415   49.0231   15.9151 C.3       1 UNK         0.0000 
     34 H34         5.9087   59.2983   18.8791 H         1 UNK         0.0000 
     35 H35         6.3040   57.8767   19.8262 H         1 UNK         0.0000 
     36 H36         7.5893   58.9408   19.2464 H         1 UNK         0.0000 
     37 H37         6.8309   58.4197   16.8870 H         1 UNK         0.0000 
     38 H38         5.7520   57.2077   17.4856 H         1 UNK         0.0000 
     39 H39         7.6550   56.2124   15.4860 H         1 UNK         0.0000 
     40 H40         8.6931   57.5955   15.8325 H         1 UNK         0.0000 
     41 H41         9.2927   55.9799   16.0950 H         1 UNK         0.0000 
     42 H42         5.3262   54.4309   19.2915 H         1 UNK         0.0000 
     43 H43         6.9954   54.5529   25.5222 H         1 UNK         0.0000 
     44 H44         6.7790   54.6601   27.9707 H         1 UNK         0.0000 
     45 H45         2.5506   54.0486   27.6381 H         1 UNK         0.0000 
     46 H46         2.7445   53.9435   25.1952 H         1 UNK         0.0000 
     47 H47         9.2038   54.1558   18.5646 H         1 UNK         0.0000 
     48 H48        10.0567   52.5202   17.7808 H         1 UNK         0.0000 
     49 H49         8.1694   51.4236   14.7018 H         1 UNK         0.0000 
     50 H50         9.0161   49.6184   13.3073 H         1 UNK         0.0000 
     51 H51        11.1542   48.5122   13.8401 H         1 UNK         0.0000 
     52 H52        11.6054   51.0256   17.2805 H         1 UNK         0.0000 
     53 H53        13.3685   48.7818   14.9923 H         1 UNK         0.0000 
     54 H54        12.6966   48.1004   16.4751 H         1 UNK         0.0000 
     55 H55        13.4954   49.6849   16.4828 H         1 UNK         0.0000 
@<TRIPOS>BOND
     1    1    2 1    
     2    1   34 1    
     3    1   35 1    
     4    1   36 1    
     5    2    3 1    
     6    2   37 1    
     7    2   38 1    
     8    3    4 1    
     9    3    5 1    
    10    3    6 1    
    11    5   39 1    
    12    5   40 1    
    13    5   41 1    
    14    6    7 1    
    15    6    8 1    
    16    6   23 1    
    17    8    9 2    
    18    8   10 am   BACKBONE|DICT|INTERRES
    19   10   11 am   BACKBONE|DICT|INTERRES
    20   10   42 1    
    21   11   15 1    
    22   11   12 2    
    23   12   13 1    
    24   13   14 2    
    25   14   15 1    
    26   14   16 1    
    27   16   21 ar   
    28   16   17 ar   
    29   17   18 ar   
    30   17   43 1    
    31   18   19 ar   
    32   18   44 1    
    33   19   20 ar   
    34   19   22 1    
    35   20   21 ar   
    36   20   45 1    
    37   21   46 1    
    38   23   24 am   BACKBONE|DICT|INTERRES
    39   23   47 1    
    40   24   25 2    
    41   24   26 am   BACKBONE|DICT|INTERRES
    42   26   27 1    
    43   26   48 1    
    44   27   32 ar   
    45   27   28 ar   
    46   28   29 ar   
    47   28   49 1    
    48   29   30 ar   
    49   29   50 1    
    50   30   31 ar   
    51   30   51 1    
    52   31   32 ar   
    53   31   33 1    
    54   32   52 1    
    55   33   53 1    
    56   33   54 1    
    57   33   55 1    
@<TRIPOS>SUBSTRUCTURE
     1 UNK         1 GROUP             0       ****    0 ROOT    
