@<TRIPOS>MOLECULE
ZINC09046530_5676
77   80    1
SMALL
USER_CHARGES


@<TRIPOS>ATOM
      1 C1         -6.1745   53.4333   26.6941 C.3       1 UNK         0.0000 
      2 C2         -6.9550   52.5033   25.7521 C.3       1 UNK         0.0000 
      3 C3         -6.1540   52.1467   24.4866 C.3       1 UNK         0.0000 
      4 C4         -5.0790   51.0568   24.7035 C.3       1 UNK         0.0000 
      5 N5         -4.0820   51.1487   23.6467 N.2       1 UNK         0.0000 
      6 C6         -2.8858   51.6166   23.7785 C.ar      1 UNK         0.0000 
      7 C7         -2.3977   52.1592   25.0311 C.ar      1 UNK         0.0000 
      8 C8         -1.1569   52.4957   25.4346 C.ar      1 UNK         0.0000 
      9 C9          0.1491   52.4288   24.7797 C.ar      1 UNK         0.0000 
     10 C10         0.3159   52.1052   23.4663 C.ar      1 UNK         0.0000 
     11 C11        -0.7264   51.8731   22.4708 C.ar      1 UNK         0.0000 
     12 C12        -2.0477   51.6318   22.5841 C.ar      1 UNK         0.0000 
     13 O13        -2.6465   51.4023   21.3757 O.3       1 UNK         0.0000 
     14 C14         1.7445   51.8441   22.9698 C.3       1 UNK         0.0000 
     15 H15         2.3074   51.4021   23.7916 H         1 UNK         0.0000 
     16 C16         2.4558   53.1596   22.5956 C.3       1 UNK         0.0000 
     17 C17         2.2693   54.2496   23.6733 C.3       1 UNK         0.0000 
     18 C18         2.3233   53.7401   25.1184 C.ar      1 UNK         0.0000 
     19 C19         1.3367   52.8582   25.6336 C.ar      1 UNK         0.0000 
     20 C20         1.4783   52.4158   26.9716 C.ar      1 UNK         0.0000 
     21 C21         2.5307   52.8811   27.7919 C.ar      1 UNK         0.0000 
     22 C22         3.4892   53.7597   27.2608 C.ar      1 UNK         0.0000 
     23 C23         3.3797   54.1510   25.9274 C.ar      1 UNK         0.0000 
     24 O24         4.5107   54.2180   28.0742 O.3       1 UNK         0.0000 
     25 C25         5.7532   54.5916   27.4821 C.3       1 UNK         0.0000 
     26 O26         2.5811   52.4458   29.1067 O.3       1 UNK         0.0000 
     27 C27         3.8425   52.0736   29.6601 C.3       1 UNK         0.0000 
     28 O28         0.6481   51.3980   27.4025 O.3       1 UNK         0.0000 
     29 C29        -0.1119   51.5950   28.5906 C.3       1 UNK         0.0000 
     30 C30         3.0886   50.8033   20.9521 C.3       1 UNK         0.0000 
     31 C31         1.7896   49.2986   22.5539 C.3       1 UNK         0.0000 
     32 C32         0.4384   48.9382   23.1805 C.ar      1 UNK         0.0000 
     33 C33         0.3056   48.8968   24.5744 C.ar      1 UNK         0.0000 
     34 C34        -0.8959   48.5161   25.1666 C.ar      1 UNK         0.0000 
     35 C35        -1.9824   48.1702   24.3669 C.ar      1 UNK         0.0000 
     36 C36        -1.8653   48.2049   22.9761 C.ar      1 UNK         0.0000 
     37 C37        -0.6622   48.5907   22.3817 C.ar      1 UNK         0.0000 
     38 O38        -0.5737   48.6280   21.0130 O.3       1 UNK         0.0000 
     39 H39        -5.1799   53.0353   26.8964 H         1 UNK         0.0000 
     40 H40        -6.0423   54.4202   26.2460 H         1 UNK         0.0000 
     41 H41        -6.6918   53.5658   27.6465 H         1 UNK         0.0000 
     42 H42        -7.2460   51.5944   26.2784 H         1 UNK         0.0000 
     43 H43        -7.8877   52.9919   25.4634 H         1 UNK         0.0000 
     44 H44        -6.8385   51.8074   23.7077 H         1 UNK         0.0000 
     45 H45        -5.7048   53.0617   24.0941 H         1 UNK         0.0000 
     46 H46        -4.6632   51.0831   25.7095 H         1 UNK         0.0000 
     47 H47        -5.5446   50.0723   24.6489 H         1 UNK         0.0000 
     48 H48        -3.1379   52.4075   25.7719 H         1 UNK         0.0000 
     49 H49        -1.1415   52.9056   26.4316 H         1 UNK         0.0000 
     50 H50        -0.3541   51.8998   21.4556 H         1 UNK         0.0000 
     51 H51        -1.9712   51.2893   20.7087 H         1 UNK         0.0000 
     52 H52         3.5235   52.9825   22.4689 H         1 UNK         0.0000 
     53 H53         2.0889   53.5380   21.6417 H         1 UNK         0.0000 
     54 H54         3.0226   55.0225   23.5126 H         1 UNK         0.0000 
     55 H55         1.3144   54.7624   23.5335 H         1 UNK         0.0000 
     56 H56         4.1109   54.8264   25.5092 H         1 UNK         0.0000 
     57 H57         6.5008   54.7014   28.2667 H         1 UNK         0.0000 
     58 H58         6.1143   53.8240   26.7926 H         1 UNK         0.0000 
     59 H59         5.6876   55.5428   26.9539 H         1 UNK         0.0000 
     60 H60         3.6989   51.2960   30.4065 H         1 UNK         0.0000 
     61 H61         4.5420   51.6978   28.9122 H         1 UNK         0.0000 
     62 H62         4.3009   52.9205   30.1733 H         1 UNK         0.0000 
     63 H63        -0.9861   50.9411   28.5556 H         1 UNK         0.0000 
     64 H64         0.4526   51.3110   29.4767 H         1 UNK         0.0000 
     65 H65        -0.4512   52.6267   28.7079 H         1 UNK         0.0000 
     66 H66         3.9919   50.8185   21.5631 H         1 UNK         0.0000 
     67 H67         3.0749   49.9443   20.2791 H         1 UNK         0.0000 
     68 H68         2.9863   51.7195   20.3677 H         1 UNK         0.0000 
     69 H69         2.0460   48.5754   21.7763 H         1 UNK         0.0000 
     70 H70         2.6021   49.2967   23.2805 H         1 UNK         0.0000 
     71 H71         1.1393   49.1470   25.2122 H         1 UNK         0.0000 
     72 H72        -0.9735   48.4886   26.2452 H         1 UNK         0.0000 
     73 H73        -2.9169   47.8864   24.8273 H         1 UNK         0.0000 
     74 H74        -2.7208   47.9495   22.3675 H         1 UNK         0.0000 
     75 H75        -1.3757   48.3190   20.5872 H         1 UNK         0.0000 
     76 N76         1.8713   50.7049   21.9041 N.4       1 UNK         0.0000 
     77 H77         1.0499   50.7765   21.3183 H         1 UNK         0.0000 
@<TRIPOS>BOND
     1    1    2 1    
     2    1   39 1    
     3    1   40 1    
     4    1   41 1    
     5    2    3 1    
     6    2   42 1    
     7    2   43 1    
     8    3    4 1    
     9    3   44 1    
    10    3   45 1    
    11    4    5 1    
    12    4   46 1    
    13    4   47 1    
    14    5    6 2    
    15    6   12 ar   
    16    6    7 ar   
    17    7    8 ar   
    18    7   48 1    
    19    8    9 ar   
    20    8   49 1    
    21    9   19 1    
    22    9   10 ar   
    23   10   11 ar   
    24   10   14 1    
    25   11   12 ar   
    26   11   50 1    
    27   12   13 1    
    28   13   51 1    
    29   14   15 1    
    30   14   16 1    
    31   14   76 1    
    32   16   17 1    
    33   16   52 1    
    34   16   53 1    
    35   17   18 1    
    36   17   54 1    
    37   17   55 1    
    38   18   23 ar   
    39   18   19 ar   
    40   19   20 ar   
    41   20   21 ar   
    42   20   28 1    
    43   21   22 ar   
    44   21   26 1    
    45   22   23 ar   
    46   22   24 1    
    47   23   56 1    
    48   24   25 1    
    49   25   57 1    
    50   25   58 1    
    51   25   59 1    
    52   26   27 1    
    53   27   60 1    
    54   27   61 1    
    55   27   62 1    
    56   28   29 1    
    57   29   63 1    
    58   29   64 1    
    59   29   65 1    
    60   30   66 1    
    61   30   67 1    
    62   30   68 1    
    63   30   76 1    
    64   31   32 1    
    65   31   69 1    
    66   31   70 1    
    67   31   76 1    
    68   32   37 ar   
    69   32   33 ar   
    70   33   34 ar   
    71   33   71 1    
    72   34   35 ar   
    73   34   72 1    
    74   35   36 ar   
    75   35   73 1    
    76   36   37 ar   
    77   36   74 1    
    78   37   38 1    
    79   38   75 1    
    80   76   77 1    
@<TRIPOS>SUBSTRUCTURE
     1 UNK         1 GROUP             0       ****    0 ROOT    
