ZINC00748990_2369
                    3D
 Schrodinger Suite 2024-2.
 66 69  0  0  1  0            999 V2000
    5.2552   54.0963   21.9483 C   0  0  0  0  0  0
    4.1465   54.1276   23.0174 C   0  0  2  0  0  0
    3.6241   55.0717   22.8514 H   0  0  0  0  0  0
    4.6480   54.1876   24.4811 C   0  0  0  0  0  0
    3.7322   54.0967   25.5401 C   0  0  0  0  0  0
    4.1619   54.1455   26.8637 C   0  0  0  0  0  0
    5.5164   54.2914   27.1449 C   0  0  0  0  0  0
    6.4414   54.3930   26.1111 C   0  0  0  0  0  0
    6.0112   54.3446   24.7871 C   0  0  0  0  0  0
    3.1970   53.0540   22.7261 N   0  0  0  0  0  0
    1.8612   53.1026   22.8600 C   0  0  0  0  0  0
    1.2603   54.0917   23.2823 O   0  0  0  0  0  0
    1.1380   51.8375   22.4529 C   0  0  0  0  0  0
    1.5322   51.1944   21.2644 C   0  0  0  0  0  0
    0.8823   50.0529   20.7953 C   0  0  0  0  0  0
   -0.1972   49.5486   21.5299 C   0  0  0  0  0  0
   -0.6103   50.1836   22.6979 C   0  0  0  0  0  0
    0.0245   51.3400   23.1758 C   0  0  0  0  0  0
   -0.4043   51.9116   24.3928 N   0  0  0  0  0  0
    0.4674   51.8348   25.5660 C   0  0  0  0  0  0
   -0.0857   50.7457   26.4797 C   0  0  0  0  0  0
   -1.5861   50.8152   26.2420 C   0  0  0  0  0  0
   -1.7206   51.7084   25.0073 C   0  0  0  0  0  0
    1.3529   49.5139   19.5778 N   0  0  0  0  0  0
    0.9808   48.3865   18.9390 C   0  0  0  0  0  0
    0.2063   47.5338   19.3758 O   0  0  0  0  0  0
    1.5109   48.3363   17.7057 N   0  0  0  0  0  0
    1.0921   47.4397   16.6258 C   0  0  0  0  0  0
    1.4769   47.9726   15.2248 C   0  0  0  0  0  0
    1.0635   47.0358   14.0716 C   0  0  0  0  0  0
    1.5601   45.5972   14.2858 C   0  0  0  0  0  0
    1.0910   45.0439   15.6403 C   0  0  0  0  0  0
    1.5055   45.9576   16.8105 C   0  0  0  0  0  0
    5.8889   54.9824   21.9946 H   0  0  0  0  0  0
    5.8874   53.2153   22.0621 H   0  0  0  0  0  0
    4.8333   54.0707   20.9426 H   0  0  0  0  0  0
    2.6763   53.9908   25.3520 H   0  0  0  0  0  0
    3.4445   54.0685   27.6672 H   0  0  0  0  0  0
    5.8532   54.3258   28.1712 H   0  0  0  0  0  0
    7.4904   54.4958   26.3401 H   0  0  0  0  0  0
    6.7611   54.4197   24.0133 H   0  0  0  0  0  0
    3.6018   52.1831   22.4237 H   0  0  0  0  0  0
    2.3520   51.5964   20.6825 H   0  0  0  0  0  0
   -0.7400   48.6710   21.2182 H   0  0  0  0  0  0
   -1.4308   49.7440   23.2429 H   0  0  0  0  0  0
    1.4985   51.6437   25.2661 H   0  0  0  0  0  0
    0.5187   52.8120   26.0498 H   0  0  0  0  0  0
    0.3197   49.7687   26.2066 H   0  0  0  0  0  0
    0.1766   50.9143   27.5252 H   0  0  0  0  0  0
   -2.0882   51.2577   27.1037 H   0  0  0  0  0  0
   -2.0070   49.8195   26.0813 H   0  0  0  0  0  0
   -2.1178   52.6814   25.2964 H   0  0  0  0  0  0
   -2.4565   51.3497   24.2858 H   0  0  0  0  0  0
    2.0648   50.0620   19.1174 H   0  0  0  0  0  0
    2.3584   48.8635   17.5177 H   0  0  0  0  0  0
   -0.0019   47.4448   16.6335 H   0  0  0  0  0  0
    1.0431   48.9611   15.0639 H   0  0  0  0  0  0
    2.5602   48.0967   15.1827 H   0  0  0  0  0  0
   -0.0236   47.0361   13.9806 H   0  0  0  0  0  0
    1.4450   47.4225   13.1253 H   0  0  0  0  0  0
    1.2074   44.9566   13.4776 H   0  0  0  0  0  0
    2.6503   45.5760   14.2446 H   0  0  0  0  0  0
    0.0063   44.9348   15.6346 H   0  0  0  0  0  0
    1.4964   44.0412   15.7912 H   0  0  0  0  0  0
    2.5934   45.9172   16.8930 H   0  0  0  0  0  0
    1.1001   45.5598   17.7422 H   0  0  0  0  0  0
  1  2  1  0  0  0
  1 34  1  0  0  0
  1 35  1  0  0  0
  1 36  1  0  0  0
  2  3  1  0  0  0
  2  4  1  0  0  0
  2 10  1  0  0  0
  4  9  2  0  0  0
  4  5  1  0  0  0
  5  6  2  0  0  0
  5 37  1  0  0  0
  6  7  1  0  0  0
  6 38  1  0  0  0
  7  8  2  0  0  0
  7 39  1  0  0  0
  8  9  1  0  0  0
  8 40  1  0  0  0
  9 41  1  0  0  0
 10 11  1  0  0  0
 10 42  1  0  0  0
 11 12  2  0  0  0
 11 13  1  0  0  0
 13 18  2  0  0  0
 13 14  1  0  0  0
 14 15  2  0  0  0
 14 43  1  0  0  0
 15 16  1  0  0  0
 15 24  1  0  0  0
 16 17  2  0  0  0
 16 44  1  0  0  0
 17 18  1  0  0  0
 17 45  1  0  0  0
 18 19  1  0  0  0
 19 23  1  0  0  0
 19 20  1  0  0  0
 20 21  1  0  0  0
 20 46  1  0  0  0
 20 47  1  0  0  0
 21 22  1  0  0  0
 21 48  1  0  0  0
 21 49  1  0  0  0
 22 23  1  0  0  0
 22 50  1  0  0  0
 22 51  1  0  0  0
 23 52  1  0  0  0
 23 53  1  0  0  0
 24 25  1  0  0  0
 24 54  1  0  0  0
 25 26  2  0  0  0
 25 27  1  0  0  0
 27 28  1  0  0  0
 27 55  1  0  0  0
 28 33  1  0  0  0
 28 29  1  0  0  0
 28 56  1  0  0  0
 29 30  1  0  0  0
 29 57  1  0  0  0
 29 58  1  0  0  0
 30 31  1  0  0  0
 30 59  1  0  0  0
 30 60  1  0  0  0
 31 32  1  0  0  0
 31 61  1  0  0  0
 31 62  1  0  0  0
 32 33  1  0  0  0
 32 63  1  0  0  0
 32 64  1  0  0  0
 33 65  1  0  0  0
 33 66  1  0  0  0
M  END
> <i_i_glide_confnum>
1

> <i_i_glide_lignum>
2370

> <i_i_glide_posenum>
344

> <i_i_glide_rotatable_bonds>
9

> <i_m_Source_File_Index>
3701

> <b_m_subgroup_collapsed>
0

> <r_i_docking_score>
-4.8645

> <r_i_glide_ecoul>
-2.22273

> <r_i_glide_eff_state_penalty>
0

> <r_i_glide_einternal>
2.97365

> <r_i_glide_emodel>
-56.1148

> <r_i_glide_energy>
-42.1386

> <r_i_glide_erotb>
0.738232

> <r_i_glide_esite>
-0.13578

> <r_i_glide_evdw>
-39.9159

> <r_i_glide_gscore>
-4.8645

> <r_i_glide_hbond>
-0.151231

> <r_i_glide_ligand_efficiency>
-0.152016

> <r_i_glide_ligand_efficiency_ln>
-1.08929

> <r_i_glide_ligand_efficiency_sa>
-0.482619

> <r_i_glide_lipo>
-2.24152

> <r_i_glide_metal>
0

> <r_i_glide_rewards>
-0.744999

> <s_i_glide_gridfile>
wee1_glide-grid

> <s_m_Source_File>
wee1_decoys_glide_SP.sdf

> <s_m_Source_Path>
/Users/zhangxujun/Desktop

> <s_m_entry_id>
3976

> <s_m_entry_name>
wee1_decoys_glide_SP.3701

> <s_m_subgroup_title>
wee1_decoys_glide_SP

> <s_m_subgroupid>
wee1_decoys_glide_SP


$$$$
