@<TRIPOS>MOLECULE
ZINC30827598_4034
63   67    1
SMALL
USER_CHARGES


@<TRIPOS>ATOM
      1 C1          0.9346   52.1207   29.4045 C.ar      1 UNK         0.0000 
      2 C2          0.1932   53.0715   30.1034 C.ar      1 UNK         0.0000 
      3 C3          0.6581   54.3839   30.1995 C.ar      1 UNK         0.0000 
      4 C4          1.8670   54.7499   29.6070 C.ar      1 UNK         0.0000 
      5 C5          2.6431   53.7855   28.9481 C.ar      1 UNK         0.0000 
      6 C6          2.1594   52.4722   28.8403 C.ar      1 UNK         0.0000 
      7 C7          3.9817   54.1458   28.3546 C.2       1 UNK         0.0000 
      8 O8          4.8693   54.4970   29.1337 O.2       1 UNK         0.0000 
      9 N9          4.1689   54.0207   27.0093 N.am      1 UNK         0.0000 
     10 C10         5.5508   54.0971   26.4944 C.3       1 UNK         0.0000 
     11 C11         5.6057   54.6268   25.0427 C.3       1 UNK         0.0000 
     12 N12         4.5807   54.0965   24.1342 N.pl3     1 UNK         0.0000 
     13 C13         3.2426   54.2171   24.7192 C.3       1 UNK         0.0000 
     14 C14         3.0800   53.5879   26.1138 C.3       1 UNK         0.0000 
     15 C15         4.7624   53.9427   22.7619 C.ar      1 UNK         0.0000 
     16 C16         5.7447   54.6600   22.0664 C.ar      1 UNK         0.0000 
     17 C17         5.9027   54.4973   20.6934 C.ar      1 UNK         0.0000 
     18 C18         5.1047   53.5750   20.0046 C.ar      1 UNK         0.0000 
     19 C19         4.1442   52.8366   20.6891 C.ar      1 UNK         0.0000 
     20 C20         3.9627   53.0363   22.0530 C.ar      1 UNK         0.0000 
     21 N21         5.2728   53.2970   18.6420 N.am      1 UNK         0.0000 
     22 C22         5.5650   54.1813   17.6690 C.2       1 UNK         0.0000 
     23 O23         5.7194   55.3918   17.8539 O.2       1 UNK         0.0000 
     24 C24         5.6771   53.5634   16.3693 C.2       1 UNK         0.0000 
     25 C25         5.9071   54.2836   15.2518 C.2       1 UNK         0.0000 
     26 C26         6.0360   53.7708   13.9059 C.2       1 UNK         0.0000 
     27 C27         6.2493   54.4018   12.6907 C.2       1 UNK         0.0000 
     28 C28         6.2929   53.4108   11.7126 C.2       1 UNK         0.0000 
     29 C29         6.1076   52.1960   12.3578 C.2       1 UNK         0.0000 
     30 O30         5.9516   52.4293   13.6899 O.3       1 UNK         0.0000 
     31 C31         6.0519   50.7825   11.8846 C.ar      1 UNK         0.0000 
     32 C32         5.9575   49.7160   12.7868 C.ar      1 UNK         0.0000 
     33 C33         5.9243   48.4042   12.3170 C.ar      1 UNK         0.0000 
     34 C34         5.9698   48.1626   10.9462 C.ar      1 UNK         0.0000 
     35 C35         6.0478   49.2168   10.0420 C.ar      1 UNK         0.0000 
     36 C36         6.0940   50.5253   10.5113 C.ar      1 UNK         0.0000 
     37 F37         5.9421   46.8951   10.4817 F         1 UNK         0.0000 
     38 F38         2.2709   56.0404   29.6819 F         1 UNK         0.0000 
     39 H39         0.5629   51.1108   29.3038 H         1 UNK         0.0000 
     40 H40        -0.7420   52.7886   30.5662 H         1 UNK         0.0000 
     41 H41         0.0767   55.1227   30.7304 H         1 UNK         0.0000 
     42 H42         2.7325   51.7142   28.3240 H         1 UNK         0.0000 
     43 H43         5.9391   53.0782   26.4661 H         1 UNK         0.0000 
     44 H44         6.2038   54.7278   27.1009 H         1 UNK         0.0000 
     45 H45         6.6029   54.4606   24.6341 H         1 UNK         0.0000 
     46 H46         5.4343   55.7038   25.0690 H         1 UNK         0.0000 
     47 H47         3.0821   55.2924   24.8061 H         1 UNK         0.0000 
     48 H48         2.4610   53.8589   24.0494 H         1 UNK         0.0000 
     49 H49         2.0973   53.9003   26.4697 H         1 UNK         0.0000 
     50 H50         3.1081   52.5048   25.9857 H         1 UNK         0.0000 
     51 H51         6.3830   55.3636   22.5794 H         1 UNK         0.0000 
     52 H52         6.6693   55.0592   20.1808 H         1 UNK         0.0000 
     53 H53         3.5333   52.1128   20.1684 H         1 UNK         0.0000 
     54 H54         3.2099   52.4527   22.5602 H         1 UNK         0.0000 
     55 H55         5.1052   52.3329   18.3664 H         1 UNK         0.0000 
     56 H56         5.5657   52.4872   16.3203 H         1 UNK         0.0000 
     57 H57         6.0127   55.3594   15.3093 H         1 UNK         0.0000 
     58 H58         6.3618   55.4647   12.5335 H         1 UNK         0.0000 
     59 H59         6.4475   53.5633   10.6548 H         1 UNK         0.0000 
     60 H60         5.9083   49.8986   13.8509 H         1 UNK         0.0000 
     61 H61         5.8666   47.5778   13.0109 H         1 UNK         0.0000 
     62 H62         6.0692   49.0228    8.9802 H         1 UNK         0.0000 
     63 H63         6.1584   51.3359    9.8006 H         1 UNK         0.0000 
@<TRIPOS>BOND
     1    1    6 ar   
     2    1    2 ar   
     3    1   39 1    
     4    2    3 ar   
     5    2   40 1    
     6    3    4 ar   
     7    3   41 1    
     8    4    5 ar   
     9    4   38 1    
    10    5    6 ar   
    11    5    7 1    
    12    6   42 1    
    13    7    8 2    
    14    7    9 am   BACKBONE|DICT|INTERRES
    15    9   14 1    
    16    9   10 1    
    17   10   11 1    
    18   10   43 1    
    19   10   44 1    
    20   11   12 1    
    21   11   45 1    
    22   11   46 1    
    23   12   13 1    
    24   12   15 1    
    25   13   14 1    
    26   13   47 1    
    27   13   48 1    
    28   14   49 1    
    29   14   50 1    
    30   15   20 ar   
    31   15   16 ar   
    32   16   17 ar   
    33   16   51 1    
    34   17   18 ar   
    35   17   52 1    
    36   18   19 ar   
    37   18   21 1    
    38   19   20 ar   
    39   19   53 1    
    40   20   54 1    
    41   21   22 am   BACKBONE|DICT|INTERRES
    42   21   55 1    
    43   22   23 2    
    44   22   24 1    
    45   24   25 2    
    46   24   56 1    
    47   25   26 1    
    48   25   57 1    
    49   26   30 1    
    50   26   27 2    
    51   27   28 1    
    52   27   58 1    
    53   28   29 2    
    54   28   59 1    
    55   29   30 1    
    56   29   31 1    
    57   31   36 ar   
    58   31   32 ar   
    59   32   33 ar   
    60   32   60 1    
    61   33   34 ar   
    62   33   61 1    
    63   34   35 ar   
    64   34   37 1    
    65   35   36 ar   
    66   35   62 1    
    67   36   63 1    
@<TRIPOS>SUBSTRUCTURE
     1 UNK         1 GROUP             0       ****    0 ROOT    
