ZINC35455604_3322
                    3D
 Schrodinger Suite 2024-2.
 54 57  0  0  1  0            999 V2000
    3.5839   54.8432   29.2932 C   0  0  0  0  0  0
    4.4472   53.9566   28.3793 C   0  0  0  0  0  0
    4.6054   52.5399   28.9460 C   0  0  0  0  0  0
    3.9903   53.9173   26.9192 C   0  0  0  0  0  0
    2.7522   53.5186   26.3666 C   0  0  0  0  0  0
    2.9380   53.7301   25.0010 C   0  0  0  0  0  0
    4.2592   54.0968   24.7942 N   0  0  0  0  0  0
    4.8647   54.2359   25.9877 N   0  0  0  0  0  0
    4.9948   54.3517   23.5837 C   0  0  0  0  0  0
    4.4328   54.0963   22.3216 C   0  0  0  0  0  0
    5.0939   54.4641   21.1559 C   0  0  0  0  0  0
    6.3402   55.0929   21.2143 C   0  0  0  0  0  0
    6.9372   55.2886   22.4640 C   0  0  0  0  0  0
    6.2937   54.8968   23.6340 C   0  0  0  0  0  0
    7.0272   55.5256   19.9730 N   0  3  0  0  0  0
    6.4861   55.3073   18.8947 O   0  0  0  0  0  0
    8.1084   56.0969   20.0745 O   0  5  0  0  0  0
    2.0741   53.6077   24.0744 O   0  5  0  0  0  0
    1.5720   53.0241   27.0814 C   0  0  0  0  0  0
    0.5248   52.3150   26.6036 C   0  0  0  0  0  0
   -0.5554   51.8868   27.4327 C   0  0  0  0  0  0
   -0.7400   52.0963   28.6339 O   0  0  0  0  0  0
   -1.3451   51.2087   26.5753 N   0  0  0  0  0  0
   -0.8672   51.1747   25.3104 C   0  0  0  0  0  0
   -1.3572   50.6420   24.3156 O   0  0  0  0  0  0
    0.2725   51.8653   25.3723 N   0  0  0  0  0  0
   -2.6515   50.6459   26.9588 C   0  0  0  0  0  0
   -3.8632   51.5797   26.8747 C   0  0  0  0  0  0
   -3.8660   52.7355   26.0828 C   0  0  0  0  0  0
   -4.9777   53.5732   26.0652 C   0  0  0  0  0  0
   -6.0950   53.2590   26.8429 C   0  0  0  0  0  0
   -6.1073   52.0963   27.6194 C   0  0  0  0  0  0
   -4.9896   51.2636   27.6345 C   0  0  0  0  0  0
   -7.2423   54.1569   26.8627 C   0  0  0  0  0  0
   -8.1519   54.8727   26.8810 N   0  0  0  0  0  0
    3.4954   55.8548   28.9044 H   0  0  0  0  0  0
    2.5799   54.4613   29.4536 H   0  0  0  0  0  0
    4.0465   54.8962   30.2766 H   0  0  0  0  0  0
    5.4462   54.3979   28.4168 H   0  0  0  0  0  0
    5.5033   52.0928   28.5222 H   0  0  0  0  0  0
    4.7049   52.5378   30.0317 H   0  0  0  0  0  0
    3.7490   51.9075   28.7064 H   0  0  0  0  0  0
    3.4714   53.6300   22.1912 H   0  0  0  0  0  0
    4.6119   54.2758   20.2062 H   0  0  0  0  0  0
    7.9045   55.7597   22.5348 H   0  0  0  0  0  0
    6.7838   55.0874   24.5758 H   0  0  0  0  0  0
    1.5787   53.2488   28.1356 H   0  0  0  0  0  0
    0.7907   52.2100   24.5676 H   0  0  0  0  0  0
   -2.5807   50.2656   27.9809 H   0  0  0  0  0  0
   -2.8548   49.7726   26.3377 H   0  0  0  0  0  0
   -3.0108   52.9959   25.4782 H   0  0  0  0  0  0
   -4.9522   54.4655   25.4553 H   0  0  0  0  0  0
   -6.9673   51.8376   28.2215 H   0  0  0  0  0  0
   -5.0010   50.3702   28.2449 H   0  0  0  0  0  0
  1  2  1  0  0  0
  1 36  1  0  0  0
  1 37  1  0  0  0
  1 38  1  0  0  0
  2  3  1  0  0  0
  2  4  1  0  0  0
  2 39  1  0  0  0
  3 40  1  0  0  0
  3 41  1  0  0  0
  3 42  1  0  0  0
  4  8  2  0  0  0
  4  5  1  0  0  0
  5  6  2  0  0  0
  5 19  1  0  0  0
  6  7  1  0  0  0
  6 18  1  0  0  0
  7  8  1  0  0  0
  7  9  1  0  0  0
  9 14  2  0  0  0
  9 10  1  0  0  0
 10 11  2  0  0  0
 10 43  1  0  0  0
 11 12  1  0  0  0
 11 44  1  0  0  0
 12 13  2  0  0  0
 12 15  1  0  0  0
 13 14  1  0  0  0
 13 45  1  0  0  0
 14 46  1  0  0  0
 15 16  2  0  0  0
 15 17  1  0  0  0
 19 20  2  0  0  0
 19 47  1  0  0  0
 20 26  1  0  0  0
 20 21  1  0  0  0
 21 22  2  0  0  0
 21 23  1  0  0  0
 23 24  1  0  0  0
 23 27  1  0  0  0
 24 25  2  0  0  0
 24 26  1  0  0  0
 26 48  1  0  0  0
 27 28  1  0  0  0
 27 49  1  0  0  0
 27 50  1  0  0  0
 28 33  2  0  0  0
 28 29  1  0  0  0
 29 30  2  0  0  0
 29 51  1  0  0  0
 30 31  1  0  0  0
 30 52  1  0  0  0
 31 32  2  0  0  0
 31 34  1  0  0  0
 32 33  1  0  0  0
 32 53  1  0  0  0
 33 54  1  0  0  0
 34 35  3  0  0  0
M  CHG  3  15   1  17  -1  18  -1
M  END
> <i_i_glide_confnum>
190

> <i_i_glide_lignum>
3323

> <i_i_glide_posenum>
400

> <i_i_glide_rotatable_bonds>
7

> <i_m_Source_File_Index>
6035

> <b_m_subgroup_collapsed>
0

> <r_i_docking_score>
-5.90516

> <r_i_glide_ecoul>
-2.07479

> <r_i_glide_eff_state_penalty>
0

> <r_i_glide_einternal>
2.44056

> <r_i_glide_emodel>
-62.8512

> <r_i_glide_energy>
-46.8293

> <r_i_glide_erotb>
0.363765

> <r_i_glide_esite>
-0.110039

> <r_i_glide_evdw>
-44.7545

> <r_i_glide_gscore>
-5.90516

> <r_i_glide_hbond>
0

> <r_i_glide_ligand_efficiency>
-0.168719

> <r_i_glide_ligand_efficiency_ln>
-1.29631

> <r_i_glide_ligand_efficiency_sa>
-0.551891

> <r_i_glide_lipo>
-2.79698

> <r_i_glide_metal>
0

> <r_i_glide_rewards>
-0.812967

> <s_i_glide_gridfile>
wee1_glide-grid

> <s_m_Source_File>
wee1_decoys_glide_SP.sdf

> <s_m_Source_Path>
/Users/zhangxujun/Desktop

> <s_m_entry_id>
6310

> <s_m_entry_name>
wee1_decoys_glide_SP.6035

> <s_m_subgroup_title>
wee1_decoys_glide_SP

> <s_m_subgroupid>
wee1_decoys_glide_SP


$$$$
