ZINC66083190_3040
                    3D
 Schrodinger Suite 2024-2.
 64 66  0  0  1  0            999 V2000
    1.4710   51.0779   28.1722 C   0  0  0  0  0  0
    1.6041   52.4415   27.4852 C   0  0  0  0  0  0
    1.7064   53.5760   28.4220 N   0  0  0  0  0  0
    0.4826   53.8200   29.2056 C   0  0  0  0  0  0
    0.5051   53.2724   30.6428 C   0  0  0  0  0  0
    2.8567   54.2802   28.6335 C   0  0  0  0  0  0
    3.0662   54.8939   29.6814 O   0  0  0  0  0  0
    3.8934   54.3681   27.5284 C   0  0  0  0  0  0
    5.2583   54.4051   27.8412 C   0  0  0  0  0  0
    6.2125   54.4969   26.8269 C   0  0  0  0  0  0
    5.8146   54.5747   25.4900 C   0  0  0  0  0  0
    4.4525   54.5773   25.1796 C   0  0  0  0  0  0
    3.5045   54.4809   26.1877 C   0  0  0  0  0  0
    6.8055   54.6336   24.4957 N   0  0  0  0  0  0
    6.6315   55.0651   23.1207 C   0  0  0  0  0  0
    5.8189   54.0966   22.2418 C   0  0  0  0  0  0
    5.8439   52.8918   22.4867 O   0  0  0  0  0  0
    5.1698   54.6112   21.1762 N   0  0  0  0  0  0
    4.4507   53.8825   20.2081 C   0  0  0  0  0  0
    4.4645   54.3633   18.8976 C   0  0  0  0  0  0
    3.7972   53.6704   17.8885 C   0  0  0  0  0  0
    3.1031   52.4969   18.1813 C   0  0  0  0  0  0
    3.0527   52.0042   19.4955 C   0  0  0  0  0  0
    3.7209   52.7172   20.5019 C   0  0  0  0  0  0
    2.2735   50.7573   19.8455 C   0  0  0  0  0  0
    1.7542   50.6607   20.9589 O   0  0  0  0  0  0
    2.2145   49.8078   18.8831 N   0  0  0  0  0  0
    1.4514   48.6176   18.8434 C   0  0  0  0  0  0
    0.5212   48.2244   19.8205 C   0  0  0  0  0  0
   -0.1846   47.0296   19.6817 C   0  0  0  0  0  0
    0.0374   46.2042   18.5808 C   0  0  0  0  0  0
    0.9523   46.5796   17.5919 C   0  0  0  0  0  0
    1.6327   47.7946   17.7259 C   0  0  0  0  0  0
    1.2167   45.6839   16.3827 C   0  0  0  0  0  0
    2.5038   45.7143   16.0342 F   0  0  0  0  0  0
    0.8906   44.4143   16.6318 F   0  0  0  0  0  0
    0.4853   46.1112   15.3529 F   0  0  0  0  0  0
    1.5036   50.2852   27.4252 H   0  0  0  0  0  0
    0.5203   50.9769   28.6973 H   0  0  0  0  0  0
    2.2829   50.9051   28.8797 H   0  0  0  0  0  0
    2.4677   52.3673   26.8279 H   0  0  0  0  0  0
    0.7467   52.6021   26.8299 H   0  0  0  0  0  0
    0.3087   54.8956   29.2464 H   0  0  0  0  0  0
   -0.3793   53.4050   28.6803 H   0  0  0  0  0  0
   -0.4953   53.2784   31.0753 H   0  0  0  0  0  0
    0.8808   52.2486   30.6954 H   0  0  0  0  0  0
    1.1140   53.8995   31.2906 H   0  0  0  0  0  0
    5.5908   54.3507   28.8690 H   0  0  0  0  0  0
    7.2584   54.4923   27.0928 H   0  0  0  0  0  0
    4.1012   54.6557   24.1636 H   0  0  0  0  0  0
    2.4615   54.4878   25.9083 H   0  0  0  0  0  0
    7.7278   54.8131   24.8601 H   0  0  0  0  0  0
    6.3044   56.0968   23.0324 H   0  0  0  0  0  0
    7.5934   55.0620   22.6115 H   0  0  0  0  0  0
    5.2778   55.5957   20.9958 H   0  0  0  0  0  0
    5.0070   55.2634   18.6469 H   0  0  0  0  0  0
    3.8259   54.0373   16.8740 H   0  0  0  0  0  0
    2.5998   51.9808   17.3757 H   0  0  0  0  0  0
    3.6706   52.3549   21.5187 H   0  0  0  0  0  0
    2.8313   49.9459   18.0893 H   0  0  0  0  0  0
    0.3167   48.8253   20.6913 H   0  0  0  0  0  0
   -0.8996   46.7379   20.4361 H   0  0  0  0  0  0
   -0.5131   45.2799   18.4941 H   0  0  0  0  0  0
    2.3044   48.0989   16.9381 H   0  0  0  0  0  0
  1  2  1  0  0  0
  1 38  1  0  0  0
  1 39  1  0  0  0
  1 40  1  0  0  0
  2  3  1  0  0  0
  2 41  1  0  0  0
  2 42  1  0  0  0
  3  4  1  0  0  0
  3  6  1  0  0  0
  4  5  1  0  0  0
  4 43  1  0  0  0
  4 44  1  0  0  0
  5 45  1  0  0  0
  5 46  1  0  0  0
  5 47  1  0  0  0
  6  7  2  0  0  0
  6  8  1  0  0  0
  8 13  2  0  0  0
  8  9  1  0  0  0
  9 10  2  0  0  0
  9 48  1  0  0  0
 10 11  1  0  0  0
 10 49  1  0  0  0
 11 12  2  0  0  0
 11 14  1  0  0  0
 12 13  1  0  0  0
 12 50  1  0  0  0
 13 51  1  0  0  0
 14 15  1  0  0  0
 14 52  1  0  0  0
 15 16  1  0  0  0
 15 53  1  0  0  0
 15 54  1  0  0  0
 16 17  2  0  0  0
 16 18  1  0  0  0
 18 19  1  0  0  0
 18 55  1  0  0  0
 19 24  2  0  0  0
 19 20  1  0  0  0
 20 21  2  0  0  0
 20 56  1  0  0  0
 21 22  1  0  0  0
 21 57  1  0  0  0
 22 23  2  0  0  0
 22 58  1  0  0  0
 23 24  1  0  0  0
 23 25  1  0  0  0
 24 59  1  0  0  0
 25 26  2  0  0  0
 25 27  1  0  0  0
 27 28  1  0  0  0
 27 60  1  0  0  0
 28 33  2  0  0  0
 28 29  1  0  0  0
 29 30  2  0  0  0
 29 61  1  0  0  0
 30 31  1  0  0  0
 30 62  1  0  0  0
 31 32  2  0  0  0
 31 63  1  0  0  0
 32 33  1  0  0  0
 32 34  1  0  0  0
 33 64  1  0  0  0
 34 35  1  0  0  0
 34 36  1  0  0  0
 34 37  1  0  0  0
M  END
> <i_i_glide_confnum>
14

> <i_i_glide_lignum>
3041

> <i_i_glide_posenum>
47

> <i_i_glide_rotatable_bonds>
13

> <i_m_Source_File_Index>
5151

> <b_m_subgroup_collapsed>
0

> <r_i_docking_score>
-5.79997

> <r_i_glide_ecoul>
-4.913

> <r_i_glide_eff_state_penalty>
0

> <r_i_glide_einternal>
6.56099

> <r_i_glide_emodel>
-68.5278

> <r_i_glide_energy>
-52.2721

> <r_i_glide_erotb>
0.780422

> <r_i_glide_esite>
-0.161744

> <r_i_glide_evdw>
-47.3591

> <r_i_glide_gscore>
-5.79997

> <r_i_glide_hbond>
-0.408498

> <r_i_glide_ligand_efficiency>
-0.156756

> <r_i_glide_ligand_efficiency_ln>
-1.25788

> <r_i_glide_ligand_efficiency_sa>
-0.522346

> <r_i_glide_lipo>
-2.47714

> <r_i_glide_metal>
0

> <r_i_glide_rewards>
-0.428107

> <s_i_glide_gridfile>
wee1_glide-grid

> <s_m_Source_File>
wee1_decoys_glide_SP.sdf

> <s_m_Source_Path>
/Users/zhangxujun/Desktop

> <s_m_entry_id>
5426

> <s_m_entry_name>
wee1_decoys_glide_SP.5151

> <s_m_subgroup_title>
wee1_decoys_glide_SP

> <s_m_subgroupid>
wee1_decoys_glide_SP


$$$$
