@<TRIPOS>MOLECULE
ZINC38799178_4994
58   62    1
SMALL
USER_CHARGES


@<TRIPOS>ATOM
      1 C1          4.6573   53.6286   22.2482 C.3       1 UNK         0.0000 
      2 C2          3.2262   53.4007   21.7023 C.3       1 UNK         0.0000 
      3 H3          3.1049   54.0879   20.8656 H         1 UNK         0.0000 
      4 C4          3.0294   51.9791   21.1265 C.2       1 UNK         0.0000 
      5 O5          3.9042   51.1265   21.2829 O.2       1 UNK         0.0000 
      6 N6          1.8536   51.7426   20.5029 N.am      1 UNK         0.0000 
      7 C7          1.3939   50.5388   19.9261 C.ar      1 UNK         0.0000 
      8 C8          2.2985   49.6480   19.3247 C.ar      1 UNK         0.0000 
      9 C9          1.8640   48.4655   18.7390 C.ar      1 UNK         0.0000 
     10 C10         0.5099   48.1561   18.7333 C.ar      1 UNK         0.0000 
     11 C11        -0.4063   49.0389   19.2998 C.ar      1 UNK         0.0000 
     12 C12         0.0045   50.2462   19.8943 C.ar      1 UNK         0.0000 
     13 N13        -1.0406   51.1477   20.4621 N.pl3     1 UNK         0.0000 
     14 O14        -0.7131   52.0960   21.1653 O.co2     1 UNK         0.0000 
     15 O15        -2.2190   50.9152   20.2086 O.co2     1 UNK         0.0000 
     16 S16         1.9012   53.8549   22.8814 S.3       1 UNK         0.0000 
     17 C17         2.2728   52.8756   24.3381 C.3       1 UNK         0.0000 
     18 H18         2.7038   51.9254   24.0244 H         1 UNK         0.0000 
     19 N19         3.1520   53.5668   25.2645 N.pl3     1 UNK         0.0000 
     20 N20         2.7394   53.3684   26.5688 N.2       1 UNK         0.0000 
     21 C21         1.5741   52.8982   26.4966 C.2       1 UNK         0.0000 
     22 N22         1.1368   52.6524   25.2182 N.pl3     1 UNK         0.0000 
     23 C23         0.0714   51.8530   24.7709 C.ar      1 UNK         0.0000 
     24 C24        -1.1226   52.4628   24.3793 C.ar      1 UNK         0.0000 
     25 C25        -2.1889   51.6868   23.9304 C.ar      1 UNK         0.0000 
     26 C26        -2.0562   50.2982   23.8707 C.ar      1 UNK         0.0000 
     27 C27        -0.8706   49.6811   24.2695 C.ar      1 UNK         0.0000 
     28 C28         0.1941   50.4597   24.7167 C.ar      1 UNK         0.0000 
     29 Cl29       -3.3688   49.3373   23.2968 Cl        1 UNK         0.0000 
     30 C30         0.8090   52.6610   27.6867 C.2       1 UNK         0.0000 
     31 C31         0.7732   53.5101   28.7277 C.2       1 UNK         0.0000 
     32 C32         1.3430   54.8583   28.9152 C.2       1 UNK         0.0000 
     33 C33         1.2058   55.5037   30.0836 C.2       1 UNK         0.0000 
     34 C34         0.5131   54.8074   31.1499 C.2       1 UNK         0.0000 
     35 C35        -0.0064   53.5605   31.0034 C.2       1 UNK         0.0000 
     36 C36         0.0862   52.8978   29.7782 C.2       1 UNK         0.0000 
     37 N37        -0.3698   51.7146   29.4178 N.pl3     1 UNK         0.0000 
     38 C38         0.0057   51.4230   28.0186 C.3       1 UNK         0.0000 
     39 H39         5.3995   53.5321   21.4545 H         1 UNK         0.0000 
     40 H40         4.7666   54.6289   22.6703 H         1 UNK         0.0000 
     41 H41         4.9180   52.9011   23.0199 H         1 UNK         0.0000 
     42 H42         1.1469   52.4592   20.6070 H         1 UNK         0.0000 
     43 H43         3.3559   49.8667   19.2767 H         1 UNK         0.0000 
     44 H44         2.5855   47.8062   18.2757 H         1 UNK         0.0000 
     45 H45         0.1694   47.2433   18.2685 H         1 UNK         0.0000 
     46 H46        -1.4543   48.7762   19.2652 H         1 UNK         0.0000 
     47 H47         4.1350   53.3409   25.2115 H         1 UNK         0.0000 
     48 H48        -1.2123   53.5405   24.4104 H         1 UNK         0.0000 
     49 H49        -3.1092   52.1618   23.6191 H         1 UNK         0.0000 
     50 H50        -0.7718   48.6068   24.2353 H         1 UNK         0.0000 
     51 H51         1.1043   49.9746   25.0267 H         1 UNK         0.0000 
     52 H52         1.8541   55.3747   28.1148 H         1 UNK         0.0000 
     53 H53         1.6021   56.4998   30.2307 H         1 UNK         0.0000 
     54 H54         0.4712   55.2950   32.1143 H         1 UNK         0.0000 
     55 H55        -0.4647   53.0800   31.8561 H         1 UNK         0.0000 
     56 H56        -0.9114   51.3063   27.4417 H         1 UNK         0.0000 
     57 H57         0.5789   50.4977   27.9952 H         1 UNK         0.0000 
     58 H58        -0.9024   51.0744   30.0079 H         1 UNK         0.0000 
@<TRIPOS>BOND
     1    1    2 1    
     2    1   39 1    
     3    1   40 1    
     4    1   41 1    
     5    2    3 1    
     6    2    4 1    
     7    2   16 1    
     8    4    5 2    
     9    4    6 am   BACKBONE|DICT|INTERRES
    10    6    7 1    
    11    6   42 1    
    12    7   12 ar   
    13    7    8 ar   
    14    8    9 ar   
    15    8   43 1    
    16    9   10 ar   
    17    9   44 1    
    18   10   11 ar   
    19   10   45 1    
    20   11   12 ar   
    21   11   46 1    
    22   12   13 1    
    23   13   14 2    
    24   13   15 1    
    25   16   17 1    
    26   17   18 1    
    27   17   22 1    
    28   17   19 1    
    29   19   20 1    
    30   19   47 1    
    31   20   21 2    
    32   21   22 1    
    33   21   30 1    
    34   22   23 1    
    35   23   28 ar   
    36   23   24 ar   
    37   24   25 ar   
    38   24   48 1    
    39   25   26 ar   
    40   25   49 1    
    41   26   27 ar   
    42   26   29 1    
    43   27   28 ar   
    44   27   50 1    
    45   28   51 1    
    46   30   38 1    
    47   30   31 2    
    48   31   36 1    
    49   31   32 1    
    50   32   33 2    
    51   32   52 1    
    52   33   34 1    
    53   33   53 1    
    54   34   35 2    
    55   34   54 1    
    56   35   36 1    
    57   35   55 1    
    58   36   37 2    
    59   37   38 1    
    60   37   58 1    
    61   38   56 1    
    62   38   57 1    
@<TRIPOS>SUBSTRUCTURE
     1 UNK         1 GROUP             0       ****    0 ROOT    
