@<TRIPOS>MOLECULE
ZINC45339203_5261
61   64    1
SMALL
USER_CHARGES


@<TRIPOS>ATOM
      1 C1         -3.5600   51.0577   28.0179 C.3       1 UNK         0.0000 
      2 C2         -3.5514   51.8008   26.6849 C.ar      1 UNK         0.0000 
      3 C3         -4.5169   52.7874   26.4642 C.ar      1 UNK         0.0000 
      4 C4         -4.5313   53.5203   25.2831 C.ar      1 UNK         0.0000 
      5 C5         -3.6084   53.2412   24.2825 C.ar      1 UNK         0.0000 
      6 C6         -2.6716   52.2271   24.4652 C.ar      1 UNK         0.0000 
      7 C7         -2.6146   51.5103   25.6723 C.ar      1 UNK         0.0000 
      8 C8         -1.5827   50.3863   25.8600 C.3       1 UNK         0.0000 
      9 H9         -1.4097   50.3299   26.9361 H         1 UNK         0.0000 
     10 C10        -2.2469   49.0683   25.3948 C.3       1 UNK         0.0000 
     11 N11        -1.2975   47.9070   25.6817 N.4       1 UNK         0.0000 
     12 C12        -0.0823   48.0792   24.7597 C.3       1 UNK         0.0000 
     13 C13         0.7039   49.3420   25.1480 C.3       1 UNK         0.0000 
     14 N14        -0.2132   50.5044   25.2606 N.am      1 UNK         0.0000 
     15 C15         0.4175   51.7043   25.2124 C.2       1 UNK         0.0000 
     16 O16         0.4889   52.3024   24.1382 O.2       1 UNK         0.0000 
     17 N17         0.9212   52.2197   26.3742 N.am      1 UNK         0.0000 
     18 C18         1.2141   51.3962   27.5791 C.3       1 UNK         0.0000 
     19 C19         0.5962   52.0595   28.8329 C.3       1 UNK         0.0000 
     20 C20         0.7293   53.5675   28.8080 C.2       1 UNK         0.0000 
     21 C21         1.1045   54.2370   27.7038 C.2       1 UNK         0.0000 
     22 C22         1.5028   53.5892   26.3666 C.3       1 UNK         0.0000 
     23 H23         1.1041   54.1851   25.5526 H         1 UNK         0.0000 
     24 C24         2.9817   53.7316   26.0713 C.ar      1 UNK         0.0000 
     25 C25         3.4849   53.9584   24.7841 C.ar      1 UNK         0.0000 
     26 C26         4.8662   54.1179   24.5894 C.ar      1 UNK         0.0000 
     27 C27         5.7285   54.0788   25.6968 C.ar      1 UNK         0.0000 
     28 C28         5.2109   53.8133   26.9681 C.ar      1 UNK         0.0000 
     29 C29         3.8530   53.6552   27.1373 C.ar      1 UNK         0.0000 
     30 C30         6.0344   53.6174   28.2082 C.3       1 UNK         0.0000 
     31 F31         5.5047   52.5917   28.8808 F         1 UNK         0.0000 
     32 F32         7.3148   53.3880   27.9465 F         1 UNK         0.0000 
     33 F33         5.9043   54.7090   28.9433 F         1 UNK         0.0000 
     34 C34         5.4551   54.2774   23.1918 C.3       1 UNK         0.0000 
     35 F35         6.1132   53.1675   22.8819 F         1 UNK         0.0000 
     36 F36         4.5187   54.4695   22.2634 F         1 UNK         0.0000 
     37 F37         6.3147   55.2958   23.1639 F         1 UNK         0.0000 
     38 F38        -5.4461   54.4968   25.1081 F         1 UNK         0.0000 
     39 H39        -3.5444   49.9784   27.8711 H         1 UNK         0.0000 
     40 H40        -2.6795   51.3128   28.6060 H         1 UNK         0.0000 
     41 H41        -4.4443   51.2828   28.6142 H         1 UNK         0.0000 
     42 H42        -5.2590   53.0008   27.2189 H         1 UNK         0.0000 
     43 H43        -3.6259   53.8055   23.3622 H         1 UNK         0.0000 
     44 H44        -1.9889   52.0020   23.6587 H         1 UNK         0.0000 
     45 H45        -3.1607   48.8344   25.9455 H         1 UNK         0.0000 
     46 H46        -2.4775   49.0565   24.3271 H         1 UNK         0.0000 
     47 H47        -1.0610   47.9423   26.6785 H         1 UNK         0.0000 
     48 H48         0.5441   47.1972   24.8815 H         1 UNK         0.0000 
     49 H49        -0.4246   48.0932   23.7229 H         1 UNK         0.0000 
     50 H50         1.2022   49.0898   26.0837 H         1 UNK         0.0000 
     51 H51         1.4165   49.4961   24.3335 H         1 UNK         0.0000 
     52 H52         0.8113   50.3894   27.5333 H         1 UNK         0.0000 
     53 H53         2.2958   51.3169   27.6981 H         1 UNK         0.0000 
     54 H54        -0.4642   51.8187   28.8941 H         1 UNK         0.0000 
     55 H55         1.0583   51.6493   29.7301 H         1 UNK         0.0000 
     56 H56         0.4618   54.1303   29.6910 H         1 UNK         0.0000 
     57 H57         1.1232   55.3152   27.7614 H         1 UNK         0.0000 
     58 H58         2.8031   53.9895   23.9463 H         1 UNK         0.0000 
     59 H59         6.7942   54.1766   25.5513 H         1 UNK         0.0000 
     60 H60         3.4673   53.4486   28.1266 H         1 UNK         0.0000 
     61 H61        -1.7618   47.0225   25.5301 H         1 UNK         0.0000 
@<TRIPOS>BOND
     1    1    2 1    
     2    1   39 1    
     3    1   40 1    
     4    1   41 1    
     5    2    7 ar   
     6    2    3 ar   
     7    3    4 ar   
     8    3   42 1    
     9    4    5 ar   
    10    4   38 1    
    11    5    6 ar   
    12    5   43 1    
    13    6    7 ar   
    14    6   44 1    
    15    7    8 1    
    16    8    9 1    
    17    8   14 1    
    18    8   10 1    
    19   10   11 1    
    20   10   45 1    
    21   10   46 1    
    22   11   12 1    
    23   11   47 1    
    24   11   61 1    
    25   12   13 1    
    26   12   48 1    
    27   12   49 1    
    28   13   14 1    
    29   13   50 1    
    30   13   51 1    
    31   14   15 am   BACKBONE|DICT|INTERRES
    32   15   16 2    
    33   15   17 am   BACKBONE|DICT|INTERRES
    34   17   22 1    
    35   17   18 1    
    36   18   19 1    
    37   18   52 1    
    38   18   53 1    
    39   19   20 1    
    40   19   54 1    
    41   19   55 1    
    42   20   21 2    
    43   20   56 1    
    44   21   22 1    
    45   21   57 1    
    46   22   23 1    
    47   22   24 1    
    48   24   29 ar   
    49   24   25 ar   
    50   25   26 ar   
    51   25   58 1    
    52   26   27 ar   
    53   26   34 1    
    54   27   28 ar   
    55   27   59 1    
    56   28   29 ar   
    57   28   30 1    
    58   29   60 1    
    59   30   31 1    
    60   30   32 1    
    61   30   33 1    
    62   34   35 1    
    63   34   36 1    
    64   34   37 1    
@<TRIPOS>SUBSTRUCTURE
     1 UNK         1 GROUP             0       ****    0 ROOT    
