ZINC35529918_2024
                    3D
 Schrodinger Suite 2024-2.
 58 60  0  0  1  0            999 V2000
    1.2663   56.6806   29.9830 C   0  0  0  0  0  0
    1.6329   55.1961   29.8624 C   0  0  0  0  0  0
    0.5431   54.3692   29.1656 C   0  0  0  0  0  0
    2.9257   55.0372   29.1994 N   0  0  0  0  0  0
    3.8476   54.0972   29.4760 C   0  0  0  0  0  0
    3.7079   53.2879   30.3939 O   0  0  0  0  0  0
    5.1323   54.0517   28.6131 C   0  0  0  0  0  0
    4.9219   54.4954   27.2167 N   0  0  0  0  0  0
    4.0697   53.5578   26.4817 C   0  0  0  0  0  0
    3.8332   54.0452   25.0410 C   0  0  0  0  0  0
    5.0774   54.1664   24.2623 N   0  0  0  0  0  0
    6.0911   54.9276   25.0238 C   0  0  0  0  0  0
    6.2164   54.5617   26.5284 C   0  0  0  0  0  0
    5.0640   54.0966   22.8654 C   0  0  0  0  0  0
    4.2297   53.1918   22.1981 C   0  0  0  0  0  0
    4.2405   53.0815   20.8139 C   0  0  0  0  0  0
    5.0610   53.9028   20.0427 C   0  0  0  0  0  0
    5.9071   54.8504   20.6735 C   0  0  0  0  0  0
    5.9046   54.8967   22.0787 C   0  0  0  0  0  0
    6.8316   55.7801   19.9351 C   0  0  0  0  0  0
    7.3145   55.3979   18.8465 O   0  0  0  0  0  0
    7.0985   56.8798   20.4812 O   0  5  0  0  0  0
    4.9836   53.6811   18.6608 N   0  0  0  0  0  0
    4.3489   54.4912   17.7883 C   0  0  0  0  0  0
    3.9045   55.6046   18.0815 O   0  0  0  0  0  0
    4.2129   53.9593   16.3804 C   0  0  0  0  0  0
    4.0864   52.5826   16.1197 C   0  0  0  0  0  0
    3.9553   52.1145   14.8130 C   0  0  0  0  0  0
    3.9378   53.0132   13.7483 C   0  0  0  0  0  0
    4.0493   54.3820   13.9909 C   0  0  0  0  0  0
    4.1832   54.8516   15.2985 C   0  0  0  0  0  0
    4.0201   55.4950   12.6727 Cl  0  0  0  0  0  0
    0.3046   56.7985   30.4819 H   0  0  0  0  0  0
    1.1792   57.1542   29.0047 H   0  0  0  0  0  0
    1.9933   57.2321   30.5796 H   0  0  0  0  0  0
    1.6904   54.8167   30.8816 H   0  0  0  0  0  0
   -0.4122   54.4947   29.6758 H   0  0  0  0  0  0
    0.3995   54.6824   28.1309 H   0  0  0  0  0  0
    0.7751   53.3037   29.1816 H   0  0  0  0  0  0
    3.1304   55.6636   28.4343 H   0  0  0  0  0  0
    5.8600   54.7016   29.1031 H   0  0  0  0  0  0
    5.5435   53.0396   28.6374 H   0  0  0  0  0  0
    4.5092   52.5614   26.4821 H   0  0  0  0  0  0
    3.0919   53.4917   26.9586 H   0  0  0  0  0  0
    3.3547   55.0248   25.0779 H   0  0  0  0  0  0
    3.1193   53.3748   24.5675 H   0  0  0  0  0  0
    5.7870   55.9741   24.9770 H   0  0  0  0  0  0
    7.0739   54.8454   24.5581 H   0  0  0  0  0  0
    6.8612   55.2921   27.0181 H   0  0  0  0  0  0
    6.6993   53.5835   26.5823 H   0  0  0  0  0  0
    3.5719   52.5309   22.7385 H   0  0  0  0  0  0
    3.5933   52.3553   20.3418 H   0  0  0  0  0  0
    6.5620   55.6023   22.5658 H   0  0  0  0  0  0
    5.2975   52.7770   18.3332 H   0  0  0  0  0  0
    4.0762   51.8552   16.9194 H   0  0  0  0  0  0
    3.8647   51.0526   14.6349 H   0  0  0  0  0  0
    3.8354   52.6480   12.7367 H   0  0  0  0  0  0
    4.2681   55.9169   15.4676 H   0  0  0  0  0  0
  1  2  1  0  0  0
  1 33  1  0  0  0
  1 34  1  0  0  0
  1 35  1  0  0  0
  2  3  1  0  0  0
  2  4  1  0  0  0
  2 36  1  0  0  0
  3 37  1  0  0  0
  3 38  1  0  0  0
  3 39  1  0  0  0
  4  5  1  0  0  0
  4 40  1  0  0  0
  5  6  2  0  0  0
  5  7  1  0  0  0
  7  8  1  0  0  0
  7 41  1  0  0  0
  7 42  1  0  0  0
  8 13  1  0  0  0
  8  9  1  0  0  0
  9 10  1  0  0  0
  9 43  1  0  0  0
  9 44  1  0  0  0
 10 11  1  0  0  0
 10 45  1  0  0  0
 10 46  1  0  0  0
 11 12  1  0  0  0
 11 14  1  0  0  0
 12 13  1  0  0  0
 12 47  1  0  0  0
 12 48  1  0  0  0
 13 49  1  0  0  0
 13 50  1  0  0  0
 14 19  2  0  0  0
 14 15  1  0  0  0
 15 16  2  0  0  0
 15 51  1  0  0  0
 16 17  1  0  0  0
 16 52  1  0  0  0
 17 18  2  0  0  0
 17 23  1  0  0  0
 18 19  1  0  0  0
 18 20  1  0  0  0
 19 53  1  0  0  0
 20 21  2  0  0  0
 20 22  1  0  0  0
 23 24  1  0  0  0
 23 54  1  0  0  0
 24 25  2  0  0  0
 24 26  1  0  0  0
 26 31  2  0  0  0
 26 27  1  0  0  0
 27 28  2  0  0  0
 27 55  1  0  0  0
 28 29  1  0  0  0
 28 56  1  0  0  0
 29 30  2  0  0  0
 29 57  1  0  0  0
 30 31  1  0  0  0
 30 32  1  0  0  0
 31 58  1  0  0  0
M  CHG  1  22  -1
M  END
> <i_i_glide_confnum>
268

> <i_i_glide_lignum>
2025

> <i_i_glide_posenum>
90

> <i_i_glide_rotatable_bonds>
9

> <i_m_Source_File_Index>
2587

> <b_m_subgroup_collapsed>
0

> <r_i_docking_score>
-6.91502

> <r_i_glide_ecoul>
-8.37363

> <r_i_glide_eff_state_penalty>
0

> <r_i_glide_einternal>
10.658

> <r_i_glide_emodel>
-61.9787

> <r_i_glide_energy>
-48.4505

> <r_i_glide_erotb>
0.671253

> <r_i_glide_esite>
-0.0458083

> <r_i_glide_evdw>
-40.0768

> <r_i_glide_gscore>
-6.91502

> <r_i_glide_hbond>
-0.485444

> <r_i_glide_ligand_efficiency>
-0.216094

> <r_i_glide_ligand_efficiency_ln>
-1.54846

> <r_i_glide_ligand_efficiency_sa>
-0.686057

> <r_i_glide_lipo>
-2.89065

> <r_i_glide_metal>
0

> <r_i_glide_rewards>
-0.904483

> <s_i_glide_gridfile>
wee1_glide-grid

> <s_m_Source_File>
wee1_decoys_glide_SP.sdf

> <s_m_Source_Path>
/Users/zhangxujun/Desktop

> <s_m_entry_id>
2862

> <s_m_entry_name>
wee1_decoys_glide_SP.2587

> <s_m_subgroup_title>
wee1_decoys_glide_SP

> <s_m_subgroupid>
wee1_decoys_glide_SP


$$$$
