@<TRIPOS>MOLECULE
ZINC59170582_5005
51   54    1
SMALL
USER_CHARGES


@<TRIPOS>ATOM
      1 C1          4.6695   54.6239   29.2459 C.3       1 UNK         0.0000 
      2 C2          4.6544   54.4957   27.7360 C.ar      1 UNK         0.0000 
      3 C3          5.8014   54.7756   26.9799 C.ar      1 UNK         0.0000 
      4 C4          5.7764   54.6569   25.5864 C.ar      1 UNK         0.0000 
      5 C5          4.5968   54.2489   24.9630 C.ar      1 UNK         0.0000 
      6 C6          3.4589   53.9686   25.7093 C.ar      1 UNK         0.0000 
      7 C7          3.4779   54.0949   27.0969 C.ar      1 UNK         0.0000 
      8 C8          2.3114   53.4897   24.9370 C.2       1 UNK         0.0000 
      9 C9          2.3053   53.3211   23.5793 C.2       1 UNK         0.0000 
     10 C10         3.5115   53.6976   22.9175 C.2       1 UNK         0.0000 
     11 N11         3.6734   53.6609   21.5894 N.pl3     1 UNK         0.0000 
     12 C12         4.7909   54.0088   20.7604 C.ar      1 UNK         0.0000 
     13 C13         4.8666   53.4015   19.5036 C.ar      1 UNK         0.0000 
     14 C14         5.8991   53.7215   18.6268 C.ar      1 UNK         0.0000 
     15 C15         6.8468   54.6772   18.9953 C.ar      1 UNK         0.0000 
     16 C16         6.7819   55.2946   20.2443 C.ar      1 UNK         0.0000 
     17 C17         5.7641   54.9509   21.1274 C.ar      1 UNK         0.0000 
     18 S18         8.1687   55.1018   17.8725 S.o2      1 UNK         0.0000 
     19 O19         8.8978   56.2391   18.4411 O.2       1 UNK         0.0000 
     20 O20         8.8439   53.8481   17.5275 O.2       1 UNK         0.0000 
     21 N21         7.3653   55.6669   16.4357 N.pl3     1 UNK         0.0000 
     22 O22         4.5592   54.0969   23.5873 O.3       1 UNK         0.0000 
     23 C23         1.1397   52.7494   22.8775 C.2       1 UNK         0.0000 
     24 O24         1.1772   52.4965   21.6735 O.2       1 UNK         0.0000 
     25 N25         0.0421   52.5047   23.6348 N.am      1 UNK         0.0000 
     26 C26        -1.1844   51.8851   23.3176 C.ar      1 UNK         0.0000 
     27 C27        -1.4981   51.3314   22.0639 C.ar      1 UNK         0.0000 
     28 C28        -2.7243   50.7016   21.8547 C.ar      1 UNK         0.0000 
     29 C29        -3.6540   50.6192   22.8888 C.ar      1 UNK         0.0000 
     30 C30        -3.3567   51.1691   24.1344 C.ar      1 UNK         0.0000 
     31 C31        -2.1301   51.7959   24.3545 C.ar      1 UNK         0.0000 
     32 Br32       -1.7751   52.4968   26.0971 Br        1 UNK         0.0000 
     33 H33         3.7618   55.1157   29.5948 H         1 UNK         0.0000 
     34 H34         4.7038   53.6295   29.6841 H         1 UNK         0.0000 
     35 H35         5.5076   55.2174   29.6075 H         1 UNK         0.0000 
     36 H36         6.7085   55.0860   27.4786 H         1 UNK         0.0000 
     37 H37         6.6615   54.8622   25.0011 H         1 UNK         0.0000 
     38 H38         2.5978   53.8675   27.6795 H         1 UNK         0.0000 
     39 H39         1.4491   53.2230   25.5273 H         1 UNK         0.0000 
     40 H40         4.1368   52.6646   19.1966 H         1 UNK         0.0000 
     41 H41         5.9573   53.2249   17.6682 H         1 UNK         0.0000 
     42 H42         7.5242   56.0206   20.5436 H         1 UNK         0.0000 
     43 H43         5.7445   55.4490   22.0813 H         1 UNK         0.0000 
     44 H44         7.2954   56.6864   16.3842 H         1 UNK         0.0000 
     45 H45         7.7276   55.2503   15.5723 H         1 UNK         0.0000 
     46 H46         0.0768   52.8034   24.5937 H         1 UNK         0.0000 
     47 H47        -0.8102   51.3517   21.2343 H         1 UNK         0.0000 
     48 H48        -2.9505   50.2706   20.8913 H         1 UNK         0.0000 
     49 H49        -4.6026   50.1281   22.7291 H         1 UNK         0.0000 
     50 H50        -4.0736   51.0962   24.9388 H         1 UNK         0.0000 
     51 H51         2.8726   53.3123   21.0657 H         1 UNK         0.0000 
@<TRIPOS>BOND
     1    1    2 1    
     2    1   33 1    
     3    1   34 1    
     4    1   35 1    
     5    2    7 ar   
     6    2    3 ar   
     7    3    4 ar   
     8    3   36 1    
     9    4    5 ar   
    10    4   37 1    
    11    5   22 1    
    12    5    6 ar   
    13    6    7 ar   
    14    6    8 1    
    15    7   38 1    
    16    8    9 2    
    17    8   39 1    
    18    9   10 1    
    19    9   23 1    
    20   10   11 2    
    21   10   22 1    
    22   11   12 1    
    23   11   51 1    
    24   12   17 ar   
    25   12   13 ar   
    26   13   14 ar   
    27   13   40 1    
    28   14   15 ar   
    29   14   41 1    
    30   15   16 ar   
    31   15   18 1    
    32   16   17 ar   
    33   16   42 1    
    34   17   43 1    
    35   18   19 2    
    36   18   20 2    
    37   18   21 1    
    38   21   44 1    
    39   21   45 1    
    40   23   24 2    
    41   23   25 am   BACKBONE|DICT|INTERRES
    42   25   26 1    
    43   25   46 1    
    44   26   31 ar   
    45   26   27 ar   
    46   27   28 ar   
    47   27   47 1    
    48   28   29 ar   
    49   28   48 1    
    50   29   30 ar   
    51   29   49 1    
    52   30   31 ar   
    53   30   50 1    
    54   31   32 1    
@<TRIPOS>SUBSTRUCTURE
     1 UNK         1 GROUP             0       ****    0 ROOT    
