@<TRIPOS>MOLECULE
ZINC38885673_365
68   71    1
SMALL
USER_CHARGES


@<TRIPOS>ATOM
      1 C1          1.1298   56.0862   30.9164 C.3       1 UNK         0.0000 
      2 C2          1.0444   54.9809   29.8524 C.3       1 UNK         0.0000 
      3 C3          1.3012   55.5984   28.4814 C.3       1 UNK         0.0000 
      4 N4          1.9988   53.8991   30.1698 N.pl3     1 UNK         0.0000 
      5 S5          2.4151   52.6302   29.0316 S.o2      1 UNK         0.0000 
      6 O6          3.2750   51.6969   29.7656 O.2       1 UNK         0.0000 
      7 O7          1.1728   52.1722   28.4027 O.2       1 UNK         0.0000 
      8 C8          3.4428   53.3834   27.7746 C.ar      1 UNK         0.0000 
      9 C9          4.6739   53.9528   28.1007 C.ar      1 UNK         0.0000 
     10 C10         5.4751   54.5013   27.0977 C.ar      1 UNK         0.0000 
     11 C11         5.0526   54.4984   25.7549 C.ar      1 UNK         0.0000 
     12 C12         3.8099   53.9284   25.4370 C.ar      1 UNK         0.0000 
     13 C13         3.0120   53.3759   26.4500 C.ar      1 UNK         0.0000 
     14 N14         3.4789   53.8201   24.0734 N.am      1 UNK         0.0000 
     15 C15         2.2780   53.5777   23.5086 C.2       1 UNK         0.0000 
     16 O16         1.2074   53.6892   24.1055 O.2       1 UNK         0.0000 
     17 C17         2.2492   53.1207   22.0329 C.3       1 UNK         0.0000 
     18 H18         1.4108   53.6960   21.6458 H         1 UNK         0.0000 
     19 C19         1.9260   51.6038   22.0088 C.3       1 UNK         0.0000 
     20 C20         1.8975   51.0814   20.5606 C.3       1 UNK         0.0000 
     21 C21         3.2053   51.3697   19.8046 C.3       1 UNK         0.0000 
     22 N22         3.4520   52.8963   19.8094 N.4       1 UNK         0.0000 
     23 C23         3.5485   53.4738   21.2455 C.3       1 UNK         0.0000 
     24 C24         4.7081   53.2446   18.9718 C.3       1 UNK         0.0000 
     25 C25         4.5358   54.6211   18.3724 C.2       1 UNK         0.0000 
     26 N26         3.5231   55.0590   17.6785 N.2       1 UNK         0.0000 
     27 C27         3.9010   56.2832   17.3560 C.2       1 UNK         0.0000 
     28 N28         5.0693   56.6592   17.8450 N.2       1 UNK         0.0000 
     29 O29         5.5140   55.5398   18.5477 O.3       1 UNK         0.0000 
     30 C30         3.0538   57.1744   16.4855 C.ar      1 UNK         0.0000 
     31 C31         3.4685   58.4755   16.1731 C.ar      1 UNK         0.0000 
     32 C32         2.6786   59.2962   15.3712 C.ar      1 UNK         0.0000 
     33 C33         1.4660   58.8248   14.8796 C.ar      1 UNK         0.0000 
     34 C34         1.0380   57.5347   15.1779 C.ar      1 UNK         0.0000 
     35 C35         1.8286   56.7146   15.9786 C.ar      1 UNK         0.0000 
     36 O36         5.7924   55.0145   24.7049 O.3       1 UNK         0.0000 
     37 C37         7.0548   55.6114   24.9502 C.3       1 UNK         0.0000 
     38 H38         0.3053   56.7923   30.8168 H         1 UNK         0.0000 
     39 H39         2.0483   56.6645   30.8188 H         1 UNK         0.0000 
     40 H40         1.1013   55.6935   31.9305 H         1 UNK         0.0000 
     41 H41         0.0441   54.5451   29.8817 H         1 UNK         0.0000 
     42 H42         0.7047   56.4966   28.3845 H         1 UNK         0.0000 
     43 H43         2.3429   55.8907   28.3484 H         1 UNK         0.0000 
     44 H44         1.0193   54.9176   27.6824 H         1 UNK         0.0000 
     45 H45         1.9057   53.5524   31.1283 H         1 UNK         0.0000 
     46 H46         5.0159   53.9592   29.1260 H         1 UNK         0.0000 
     47 H47         6.4260   54.9222   27.3899 H         1 UNK         0.0000 
     48 H48         2.0759   52.8945   26.2134 H         1 UNK         0.0000 
     49 H49         4.2715   53.9232   23.4578 H         1 UNK         0.0000 
     50 H50         2.7064   51.0251   22.5079 H         1 UNK         0.0000 
     51 H51         0.9489   51.3918   22.4472 H         1 UNK         0.0000 
     52 H52         1.7162   50.0061   20.5609 H         1 UNK         0.0000 
     53 H53         1.0574   51.5226   20.0213 H         1 UNK         0.0000 
     54 H54         4.0794   50.8894   20.2454 H         1 UNK         0.0000 
     55 H55         3.1033   51.0568   18.7625 H         1 UNK         0.0000 
     56 H56         3.6521   54.5538   21.1153 H         1 UNK         0.0000 
     57 H57         4.4538   53.0290   21.6665 H         1 UNK         0.0000 
     58 H58         5.5808   53.1316   19.6145 H         1 UNK         0.0000 
     59 H59         4.7823   52.4978   18.1787 H         1 UNK         0.0000 
     60 H60         4.3981   58.8756   16.5518 H         1 UNK         0.0000 
     61 H61         3.0079   60.3005   15.1471 H         1 UNK         0.0000 
     62 H62         0.8558   59.4673   14.2635 H         1 UNK         0.0000 
     63 H63         0.0982   57.1709   14.7881 H         1 UNK         0.0000 
     64 H64         1.4799   55.7157   16.1986 H         1 UNK         0.0000 
     65 H65         7.4385   56.0368   24.0230 H         1 UNK         0.0000 
     66 H66         6.9912   56.4135   25.6829 H         1 UNK         0.0000 
     67 H67         7.7740   54.8663   25.2813 H         1 UNK         0.0000 
     68 H68         2.6561   53.3295   19.3519 H         1 UNK         0.0000 
@<TRIPOS>BOND
     1    1    2 1    
     2    1   38 1    
     3    1   39 1    
     4    1   40 1    
     5    2    3 1    
     6    2    4 1    
     7    2   41 1    
     8    3   42 1    
     9    3   43 1    
    10    3   44 1    
    11    4    5 1    
    12    4   45 1    
    13    5    6 2    
    14    5    7 2    
    15    5    8 1    
    16    8   13 ar   
    17    8    9 ar   
    18    9   10 ar   
    19    9   46 1    
    20   10   11 ar   
    21   10   47 1    
    22   11   12 ar   
    23   11   36 1    
    24   12   13 ar   
    25   12   14 1    
    26   13   48 1    
    27   14   15 am   BACKBONE|DICT|INTERRES
    28   14   49 1    
    29   15   16 2    
    30   15   17 1    
    31   17   18 1    
    32   17   23 1    
    33   17   19 1    
    34   19   20 1    
    35   19   50 1    
    36   19   51 1    
    37   20   21 1    
    38   20   52 1    
    39   20   53 1    
    40   21   22 1    
    41   21   54 1    
    42   21   55 1    
    43   22   23 1    
    44   22   24 1    
    45   22   68 1    
    46   23   56 1    
    47   23   57 1    
    48   24   25 1    
    49   24   58 1    
    50   24   59 1    
    51   25   29 1    
    52   25   26 2    
    53   26   27 1    
    54   27   28 2    
    55   27   30 1    
    56   28   29 1    
    57   30   35 ar   
    58   30   31 ar   
    59   31   32 ar   
    60   31   60 1    
    61   32   33 ar   
    62   32   61 1    
    63   33   34 ar   
    64   33   62 1    
    65   34   35 ar   
    66   34   63 1    
    67   35   64 1    
    68   36   37 1    
    69   37   65 1    
    70   37   66 1    
    71   37   67 1    
@<TRIPOS>SUBSTRUCTURE
     1 UNK         1 GROUP             0       ****    0 ROOT    
