ZINC31889963_6142
                    3D
 Schrodinger Suite 2024-2.
 32 34  0  0  1  0            999 V2000
   -4.2058   52.0933   26.0510 C   0  0  0  0  0  0
   -2.8349   52.3312   26.0807 C   0  0  0  0  0  0
   -2.1591   51.1334   25.8573 C   0  0  0  0  0  0
   -3.1275   50.1516   25.6879 N   0  0  0  0  0  0
   -4.3631   50.7411   25.8214 C   0  0  0  0  0  0
   -2.8706   48.7161   25.5347 C   0  0  0  0  0  0
   -1.3887   48.4551   25.1733 C   0  0  0  0  0  0
   -0.4950   49.3139   26.0817 N   0  3  0  0  0  0
   -0.6672   50.8152   25.7672 C   0  0  2  0  0  0
   -0.3082   50.9184   24.7409 H   0  0  0  0  0  0
    0.2265   51.6338   26.6967 C   0  0  0  0  0  0
    1.1811   52.4967   26.1541 C   0  0  0  0  0  0
    2.0036   53.2473   26.9897 C   0  0  0  0  0  0
    1.8919   53.1420   28.3832 C   0  0  0  0  0  0
    0.9186   52.2865   28.9210 C   0  0  0  0  0  0
    0.0858   51.5468   28.0844 C   0  0  0  0  0  0
    2.7999   53.9294   29.2803 C   0  0  0  0  0  0
    3.4269   54.8927   28.7846 O   0  0  0  0  0  0
    2.8830   53.5815   30.4814 O   0  5  0  0  0  0
   -4.9912   52.8212   26.1945 H   0  0  0  0  0  0
   -2.3648   53.2897   26.2496 H   0  0  0  0  0  0
   -5.2571   50.1384   25.7525 H   0  0  0  0  0  0
   -3.1139   48.2306   26.4816 H   0  0  0  0  0  0
   -3.5484   48.2999   24.7896 H   0  0  0  0  0  0
   -1.0964   47.4229   25.3746 H   0  0  0  0  0  0
   -1.1390   48.7052   24.1402 H   0  0  0  0  0  0
   -0.7752   49.1162   27.0472 H   0  0  0  0  0  0
    1.2958   52.5891   25.0838 H   0  0  0  0  0  0
    2.7418   53.9020   26.5470 H   0  0  0  0  0  0
    0.8001   52.1912   29.9920 H   0  0  0  0  0  0
   -0.6608   50.8955   28.5179 H   0  0  0  0  0  0
    0.4740   49.0436   25.9916 H   0  0  0  0  0  0
  1  5  2  0  0  0
  1  2  1  0  0  0
  1 20  1  0  0  0
  2  3  2  0  0  0
  2 21  1  0  0  0
  3  9  1  0  0  0
  3  4  1  0  0  0
  4  5  1  0  0  0
  4  6  1  0  0  0
  5 22  1  0  0  0
  6  7  1  0  0  0
  6 23  1  0  0  0
  6 24  1  0  0  0
  7  8  1  0  0  0
  7 25  1  0  0  0
  7 26  1  0  0  0
  8  9  1  0  0  0
  8 27  1  0  0  0
  8 32  1  0  0  0
  9 10  1  0  0  0
  9 11  1  0  0  0
 11 16  2  0  0  0
 11 12  1  0  0  0
 12 13  2  0  0  0
 12 28  1  0  0  0
 13 14  1  0  0  0
 13 29  1  0  0  0
 14 15  2  0  0  0
 14 17  1  0  0  0
 15 16  1  0  0  0
 15 30  1  0  0  0
 16 31  1  0  0  0
 17 18  2  0  0  0
 17 19  1  0  0  0
M  CHG  2   8   1  19  -1
M  END
> <i_i_glide_confnum>
1

> <i_i_glide_lignum>
6143

> <i_i_glide_posenum>
344

> <i_i_glide_rotatable_bonds>
2

> <i_m_Source_File_Index>
125

> <b_m_subgroup_collapsed>
0

> <r_i_docking_score>
-4.83918

> <r_i_glide_ecoul>
-7.92221

> <r_i_glide_eff_state_penalty>
0

> <r_i_glide_einternal>
1.54121

> <r_i_glide_emodel>
-38.11

> <r_i_glide_energy>
-26.4792

> <r_i_glide_erotb>
0.295453

> <r_i_glide_esite>
-0.13876

> <r_i_glide_evdw>
-18.5569

> <r_i_glide_gscore>
-4.83918

> <r_i_glide_hbond>
-0.36

> <r_i_glide_ligand_efficiency>
-0.268843

> <r_i_glide_ligand_efficiency_ln>
-1.24389

> <r_i_glide_ligand_efficiency_sa>
-0.704569

> <r_i_glide_lipo>
-0.632978

> <r_i_glide_metal>
0

> <r_i_glide_rewards>
-1.88672

> <s_i_glide_gridfile>
wee1_glide-grid

> <s_m_Source_File>
wee1_decoys_glide_SP.sdf

> <s_m_Source_Path>
/Users/zhangxujun/Desktop

> <s_m_entry_id>
400

> <s_m_entry_name>
wee1_decoys_glide_SP.125

> <s_m_subgroup_title>
wee1_decoys_glide_SP

> <s_m_subgroupid>
wee1_decoys_glide_SP


$$$$
