@<TRIPOS>MOLECULE
ZINC22851568_2049
67   71    1
SMALL
USER_CHARGES


@<TRIPOS>ATOM
      1 C1          3.1120   52.6126   17.4967 C.ar      1 UNK         0.0000 
      2 C2          3.9203   53.7142   17.2261 C.ar      1 UNK         0.0000 
      3 C3          4.5214   54.4075   18.2748 C.ar      1 UNK         0.0000 
      4 C4          4.3118   54.0047   19.5954 C.ar      1 UNK         0.0000 
      5 C5          3.4774   52.9084   19.8848 C.ar      1 UNK         0.0000 
      6 C6          2.8975   52.2121   18.8150 C.ar      1 UNK         0.0000 
      7 N7          3.2689   52.4808   21.1920 N.pl3     1 UNK         0.0000 
      8 C8          2.9475   53.3892   22.2986 C.3       1 UNK         0.0000 
      9 C9          1.6760   52.9544   23.0523 C.3       1 UNK         0.0000 
     10 N10         1.9043   51.6446   23.6785 N.3       1 UNK         0.0000 
     11 C11         2.1602   50.6541   22.6134 C.3       1 UNK         0.0000 
     12 C12         3.2562   51.0676   21.5967 C.3       1 UNK         0.0000 
     13 C13         0.8436   51.3127   24.6732 C.3       1 UNK         0.0000 
     14 H14        -0.0917   51.6766   24.2401 H         1 UNK         0.0000 
     15 C15         0.6428   49.7559   24.8666 C.3       1 UNK         0.0000 
     16 N16        -0.5541   49.3274   25.5896 N.am      1 UNK         0.0000 
     17 C17        -1.8043   49.4260   25.1150 C.2       1 UNK         0.0000 
     18 O18        -2.0905   49.7378   23.9574 O.2       1 UNK         0.0000 
     19 N19        -2.6960   49.1891   26.0817 N.am      1 UNK         0.0000 
     20 C20        -4.1468   49.3824   26.0258 C.3       1 UNK         0.0000 
     21 C21        -4.7900   48.8582   27.3310 C.3       1 UNK         0.0000 
     22 C22        -4.3743   49.7017   28.5598 C.3       1 UNK         0.0000 
     23 C23        -4.7471   51.1836   28.3692 C.3       1 UNK         0.0000 
     24 C24        -4.1976   51.7530   27.0429 C.3       1 UNK         0.0000 
     25 C25        -4.5779   50.8629   25.8375 C.3       1 UNK         0.0000 
     26 C26         1.0153   52.0962   26.0151 C.ar      1 UNK         0.0000 
     27 C27         2.1573   52.8967   26.2776 C.ar      1 UNK         0.0000 
     28 C28         2.3551   53.5336   27.5099 C.ar      1 UNK         0.0000 
     29 C29         1.3814   53.3654   28.4825 C.ar      1 UNK         0.0000 
     30 C30         0.2629   52.6231   28.2486 C.ar      1 UNK         0.0000 
     31 C31         0.0406   51.9908   27.0299 C.ar      1 UNK         0.0000 
     32 O32        -0.4951   52.5850   29.3745 O.3       1 UNK         0.0000 
     33 C33         0.1176   53.4570   30.2884 C.3       1 UNK         0.0000 
     34 O34         1.3704   53.8177   29.7639 O.3       1 UNK         0.0000 
     35 F35         4.9548   54.6726   20.5845 F         1 UNK         0.0000 
     36 H36         2.6645   52.0557   16.6869 H         1 UNK         0.0000 
     37 H37         4.0939   54.0205   16.2044 H         1 UNK         0.0000 
     38 H38         5.1643   55.2487   18.0620 H         1 UNK         0.0000 
     39 H39         2.2667   51.3548   18.9971 H         1 UNK         0.0000 
     40 H40         3.8007   53.4634   22.9739 H         1 UNK         0.0000 
     41 H41         2.7889   54.3951   21.9069 H         1 UNK         0.0000 
     42 H42         0.8219   52.9252   22.3728 H         1 UNK         0.0000 
     43 H43         1.4573   53.7116   23.8070 H         1 UNK         0.0000 
     44 H44         2.4665   49.6930   23.0294 H         1 UNK         0.0000 
     45 H45         1.2377   50.5343   22.0406 H         1 UNK         0.0000 
     46 H46         4.2201   50.9178   22.0817 H         1 UNK         0.0000 
     47 H47         3.2655   50.3891   20.7434 H         1 UNK         0.0000 
     48 H48         1.5043   49.2969   25.3532 H         1 UNK         0.0000 
     49 H49         0.5798   49.2402   23.9090 H         1 UNK         0.0000 
     50 H50        -0.4214   48.8982   26.4960 H         1 UNK         0.0000 
     51 H51        -2.3315   48.8975   26.9887 H         1 UNK         0.0000 
     52 H52        -4.5115   48.7947   25.1813 H         1 UNK         0.0000 
     53 H53        -4.5115   47.8143   27.4940 H         1 UNK         0.0000 
     54 H54        -5.8770   48.8621   27.2375 H         1 UNK         0.0000 
     55 H55        -3.2961   49.6324   28.7278 H         1 UNK         0.0000 
     56 H56        -4.8432   49.3081   29.4610 H         1 UNK         0.0000 
     57 H57        -4.3710   51.7547   29.2160 H         1 UNK         0.0000 
     58 H58        -5.8333   51.2890   28.3849 H         1 UNK         0.0000 
     59 H59        -3.1131   51.8383   27.1094 H         1 UNK         0.0000 
     60 H60        -4.5701   52.7653   26.8831 H         1 UNK         0.0000 
     61 H61        -5.6574   50.9078   25.6813 H         1 UNK         0.0000 
     62 H62        -4.1378   51.2724   24.9278 H         1 UNK         0.0000 
     63 H63         2.9393   52.9925   25.5401 H         1 UNK         0.0000 
     64 H64         3.2495   54.1084   27.6947 H         1 UNK         0.0000 
     65 H65        -0.8590   51.4166   26.8935 H         1 UNK         0.0000 
     66 H66         0.2311   52.9588   31.2544 H         1 UNK         0.0000 
     67 H67        -0.4934   54.3542   30.3927 H         1 UNK         0.0000 
@<TRIPOS>BOND
     1    1    6 ar   
     2    1    2 ar   
     3    1   36 1    
     4    2    3 ar   
     5    2   37 1    
     6    3    4 ar   
     7    3   38 1    
     8    4    5 ar   
     9    4   35 1    
    10    5    6 ar   
    11    5    7 1    
    12    6   39 1    
    13    7   12 1    
    14    7    8 1    
    15    8    9 1    
    16    8   40 1    
    17    8   41 1    
    18    9   10 1    
    19    9   42 1    
    20    9   43 1    
    21   10   11 1    
    22   10   13 1    
    23   11   12 1    
    24   11   44 1    
    25   11   45 1    
    26   12   46 1    
    27   12   47 1    
    28   13   14 1    
    29   13   15 1    
    30   13   26 1    
    31   15   16 1    
    32   15   48 1    
    33   15   49 1    
    34   16   17 am   BACKBONE|DICT|INTERRES
    35   16   50 1    
    36   17   18 2    
    37   17   19 am   BACKBONE|DICT|INTERRES
    38   19   20 1    
    39   19   51 1    
    40   20   25 1    
    41   20   21 1    
    42   20   52 1    
    43   21   22 1    
    44   21   53 1    
    45   21   54 1    
    46   22   23 1    
    47   22   55 1    
    48   22   56 1    
    49   23   24 1    
    50   23   57 1    
    51   23   58 1    
    52   24   25 1    
    53   24   59 1    
    54   24   60 1    
    55   25   61 1    
    56   25   62 1    
    57   26   31 ar   
    58   26   27 ar   
    59   27   28 ar   
    60   27   63 1    
    61   28   29 ar   
    62   28   64 1    
    63   29   34 1    
    64   29   30 ar   
    65   30   31 ar   
    66   30   32 1    
    67   31   65 1    
    68   32   33 1    
    69   33   34 1    
    70   33   66 1    
    71   33   67 1    
@<TRIPOS>SUBSTRUCTURE
     1 UNK         1 GROUP             0       ****    0 ROOT    
