@<TRIPOS>MOLECULE
ZINC00907322_3754
42   44    1
SMALL
USER_CHARGES


@<TRIPOS>ATOM
      1 C1          6.4721   54.9680   22.7480 C.3       1 UNK         0.0000 
      2 C2          5.7524   54.6207   24.0463 C.ar      1 UNK         0.0000 
      3 C3          6.4657   54.7064   25.2456 C.ar      1 UNK         0.0000 
      4 C4          5.8435   54.3852   26.4516 C.ar      1 UNK         0.0000 
      5 N5          4.5522   53.9908   26.5518 N.ar      1 UNK         0.0000 
      6 C6          3.8836   53.8829   25.4053 C.ar      1 UNK         0.0000 
      7 C7          4.4019   54.1822   24.1140 C.ar      1 UNK         0.0000 
      8 C8          3.4002   53.9759   23.1084 C.2       1 UNK         0.0000 
      9 C9          2.2713   53.2981   23.5902 C.2       1 UNK         0.0000 
     10 S10         2.2388   53.2964   25.3454 S.3       1 UNK         0.0000 
     11 C11         1.0893   52.7935   22.9027 C.2       1 UNK         0.0000 
     12 O12        -0.0130   52.9361   23.4403 O.2       1 UNK         0.0000 
     13 N13         1.2259   52.1867   21.6820 N.am      1 UNK         0.0000 
     14 C14        -0.0130   51.8153   20.9534 C.3       1 UNK         0.0000 
     15 C15         0.1936   52.1035   19.4525 C.3       1 UNK         0.0000 
     16 C16         1.4040   51.3578   18.8895 C.3       1 UNK         0.0000 
     17 C17         2.6520   51.6890   19.7165 C.3       1 UNK         0.0000 
     18 C18         2.4742   51.4976   21.2480 C.3       1 UNK         0.0000 
     19 H19         3.3469   51.9514   21.7067 H         1 UNK         0.0000 
     20 C20         2.5626   50.0265   21.6650 C.3       1 UNK         0.0000 
     21 N21         3.5629   54.3624   21.8040 N.pl3     1 UNK         0.0000 
     22 C22         6.5946   54.4084   27.7661 C.3       1 UNK         0.0000 
     23 H23         7.4683   55.3792   22.9119 H         1 UNK         0.0000 
     24 H24         6.5597   54.0873   22.1134 H         1 UNK         0.0000 
     25 H25         5.9069   55.6969   22.1733 H         1 UNK         0.0000 
     26 H26         7.5028   55.0056   25.2313 H         1 UNK         0.0000 
     27 H27        -0.8803   52.3943   21.2766 H         1 UNK         0.0000 
     28 H28        -0.2060   50.7530   21.1089 H         1 UNK         0.0000 
     29 H29         0.3115   53.1756   19.2877 H         1 UNK         0.0000 
     30 H30        -0.7004   51.8153   18.9023 H         1 UNK         0.0000 
     31 H31         1.5631   51.6200   17.8431 H         1 UNK         0.0000 
     32 H32         1.2220   50.2812   18.9067 H         1 UNK         0.0000 
     33 H33         2.9116   52.7328   19.5317 H         1 UNK         0.0000 
     34 H34         3.5021   51.1146   19.3463 H         1 UNK         0.0000 
     35 H35         3.4995   49.6302   21.2839 H         1 UNK         0.0000 
     36 H36         1.7619   49.4248   21.2402 H         1 UNK         0.0000 
     37 H37         2.5698   49.9100   22.7486 H         1 UNK         0.0000 
     38 H38         4.4159   54.7850   21.4710 H         1 UNK         0.0000 
     39 H39         2.7947   54.3256   21.1391 H         1 UNK         0.0000 
     40 H40         7.5555   54.9023   27.6782 H         1 UNK         0.0000 
     41 H41         6.0133   54.9336   28.5239 H         1 UNK         0.0000 
     42 H42         6.7713   53.3930   28.1145 H         1 UNK         0.0000 
@<TRIPOS>BOND
     1    1    2 1    
     2    1   23 1    
     3    1   24 1    
     4    1   25 1    
     5    2    7 ar   
     6    2    3 ar   
     7    3    4 ar   
     8    3   26 1    
     9    4    5 ar   
    10    4   22 1    
    11    5    6 ar   
    12    6   10 1    
    13    6    7 ar   
    14    7    8 1    
    15    8    9 2    
    16    8   21 1    
    17    9   10 1    
    18    9   11 1    
    19   11   12 2    
    20   11   13 am   BACKBONE|DICT|INTERRES
    21   13   18 1    
    22   13   14 1    
    23   14   15 1    
    24   14   27 1    
    25   14   28 1    
    26   15   16 1    
    27   15   29 1    
    28   15   30 1    
    29   16   17 1    
    30   16   31 1    
    31   16   32 1    
    32   17   18 1    
    33   17   33 1    
    34   17   34 1    
    35   18   19 1    
    36   18   20 1    
    37   20   35 1    
    38   20   36 1    
    39   20   37 1    
    40   21   38 1    
    41   21   39 1    
    42   22   40 1    
    43   22   41 1    
    44   22   42 1    
@<TRIPOS>SUBSTRUCTURE
     1 UNK         1 GROUP             0       ****    0 ROOT    
