@<TRIPOS>MOLECULE
ZINC00092501_1722
39   40    1
SMALL
USER_CHARGES


@<TRIPOS>ATOM
      1 C1          6.6687   55.5437   25.9075 C.3       1 UNK         0.0000 
      2 C2          5.8854   54.2205   25.8092 C.3       1 UNK         0.0000 
      3 C3          5.2094   54.1391   24.4246 C.3       1 UNK         0.0000 
      4 C4          4.9025   53.9449   26.9889 C.3       1 UNK         0.0000 
      5 H5          4.7307   52.8728   26.8857 H         1 UNK         0.0000 
      6 C6          3.5316   54.5851   26.9027 C.3       1 UNK         0.0000 
      7 C7          3.0633   54.5929   28.3573 C.3       1 UNK         0.0000 
      8 O8          4.2992   54.8562   29.0246 O.3       1 UNK         0.0000 
      9 N9          5.3946   54.1881   28.3389 N.3       1 UNK         0.0000 
     10 C10         2.3718   53.2878   28.9272 C.3       1 UNK         0.0000 
     11 C11         2.1936   53.2774   30.4811 C.3       1 UNK         0.0000 
     12 C12         1.1425   52.3269   31.0895 C.3       1 UNK         0.0000 
     13 C13        -0.1760   52.3476   30.3149 C.3       1 UNK         0.0000 
     14 C14         0.0678   51.9492   28.8578 C.3       1 UNK         0.0000 
     15 C15         1.0723   52.8835   28.1467 C.3       1 UNK         0.0000 
     16 O16         3.1050   52.0842   28.7863 O.3       1 UNK         0.0000 
     17 O17         2.2171   55.6953   28.6172 O.3       1 UNK         0.0000 
     18 H18         6.0300   56.3953   25.6812 H         1 UNK         0.0000 
     19 H19         7.4809   55.5624   25.1796 H         1 UNK         0.0000 
     20 H20         7.1030   55.6926   26.8948 H         1 UNK         0.0000 
     21 H21         6.6304   53.4231   25.8519 H         1 UNK         0.0000 
     22 H22         4.6097   55.0256   24.2204 H         1 UNK         0.0000 
     23 H23         5.9473   54.0515   23.6263 H         1 UNK         0.0000 
     24 H24         4.5325   53.2951   24.3480 H         1 UNK         0.0000 
     25 H25         3.5941   55.5782   26.4596 H         1 UNK         0.0000 
     26 H26         2.8465   54.0015   26.2886 H         1 UNK         0.0000 
     27 H27         6.1166   54.8948   28.2899 H         1 UNK         0.0000 
     28 H28         3.1594   53.1240   30.9676 H         1 UNK         0.0000 
     29 H29         1.8919   54.2820   30.7719 H         1 UNK         0.0000 
     30 H30         1.5384   51.3102   31.0998 H         1 UNK         0.0000 
     31 H31         0.9625   52.5842   32.1346 H         1 UNK         0.0000 
     32 H32        -0.8910   51.6651   30.7785 H         1 UNK         0.0000 
     33 H33        -0.6179   53.3422   30.3621 H         1 UNK         0.0000 
     34 H34         0.4416   50.9236   28.8262 H         1 UNK         0.0000 
     35 H35        -0.8772   51.9334   28.3128 H         1 UNK         0.0000 
     36 H36         0.5313   53.8039   27.9251 H         1 UNK         0.0000 
     37 H37         1.3016   52.4846   27.1564 H         1 UNK         0.0000 
     38 H38         3.1890   51.8841   27.8513 H         1 UNK         0.0000 
     39 H39         2.5267   56.1125   29.4241 H         1 UNK         0.0000 
@<TRIPOS>BOND
     1    1    2 1    
     2    1   18 1    
     3    1   19 1    
     4    1   20 1    
     5    2    3 1    
     6    2    4 1    
     7    2   21 1    
     8    3   22 1    
     9    3   23 1    
    10    3   24 1    
    11    4    5 1    
    12    4    9 1    
    13    4    6 1    
    14    6    7 1    
    15    6   25 1    
    16    6   26 1    
    17    7    8 1    
    18    7   10 1    
    19    7   17 1    
    20    8    9 1    
    21    9   27 1    
    22   10   15 1    
    23   10   11 1    
    24   10   16 1    
    25   11   12 1    
    26   11   28 1    
    27   11   29 1    
    28   12   13 1    
    29   12   30 1    
    30   12   31 1    
    31   13   14 1    
    32   13   32 1    
    33   13   33 1    
    34   14   15 1    
    35   14   34 1    
    36   14   35 1    
    37   15   36 1    
    38   15   37 1    
    39   16   38 1    
    40   17   39 1    
@<TRIPOS>SUBSTRUCTURE
     1 UNK         1 GROUP             0       ****    0 ROOT    
