@<TRIPOS>MOLECULE
ZINC09271661_969
56   60    1
SMALL
USER_CHARGES


@<TRIPOS>ATOM
      1 C1          7.9547   58.4600   16.4292 C.3       1 UNK         0.0000 
      2 C2          7.2211   57.4990   17.3462 C.ar      1 UNK         0.0000 
      3 C3          6.7883   56.2620   16.8680 C.ar      1 UNK         0.0000 
      4 C4          6.1047   55.3914   17.7129 C.ar      1 UNK         0.0000 
      5 C5          5.8663   55.7388   19.0503 C.ar      1 UNK         0.0000 
      6 C6          6.3048   56.9837   19.5175 C.ar      1 UNK         0.0000 
      7 C7          6.9811   57.8589   18.6717 C.ar      1 UNK         0.0000 
      8 C8          5.0439   54.8260   19.9122 C.2       1 UNK         0.0000 
      9 O9          4.1538   54.1623   19.3839 O.2       1 UNK         0.0000 
     10 C10         5.2827   54.6909   21.3722 C.2       1 UNK         0.0000 
     11 C11         6.4009   54.8986   22.0755 C.2       1 UNK         0.0000 
     12 C12         6.2441   54.6019   23.4863 C.2       1 UNK         0.0000 
     13 O13         7.1044   54.6680   24.3695 O.2       1 UNK         0.0000 
     14 N14         4.9303   54.2745   23.6699 N.am      1 UNK         0.0000 
     15 C15         4.2162   54.2674   22.3705 C.3       1 UNK         0.0000 
     16 H16         3.4520   55.0453   22.4190 H         1 UNK         0.0000 
     17 C17         3.4612   52.9740   22.0128 C.ar      1 UNK         0.0000 
     18 C18         4.1037   51.9245   21.3533 C.ar      1 UNK         0.0000 
     19 C19         3.3742   50.8408   20.8821 C.ar      1 UNK         0.0000 
     20 C20         1.9967   50.7277   21.1251 C.ar      1 UNK         0.0000 
     21 C21         1.3463   51.7608   21.8163 C.ar      1 UNK         0.0000 
     22 C22         2.0762   52.8971   22.1933 C.ar      1 UNK         0.0000 
     23 O23        -0.0053   51.6309   22.0766 O.3       1 UNK         0.0000 
     24 C24        -0.5114   52.2008   23.2821 C.3       1 UNK         0.0000 
     25 O25         1.2388   49.6405   20.7223 O.3       1 UNK         0.0000 
     26 C26         1.8721   48.5690   20.0285 C.3       1 UNK         0.0000 
     27 C27         4.3448   54.0972   24.9514 C.2       1 UNK         0.0000 
     28 N28         5.0099   54.2328   26.0756 N.2       1 UNK         0.0000 
     29 C29         4.2610   54.0000   27.1747 C.ar      1 UNK         0.0000 
     30 C30         4.7477   54.0521   28.4869 C.ar      1 UNK         0.0000 
     31 C31         3.8637   53.7713   29.5278 C.ar      1 UNK         0.0000 
     32 C32         2.5250   53.4626   29.2813 C.ar      1 UNK         0.0000 
     33 C33         2.0200   53.4165   27.9793 C.ar      1 UNK         0.0000 
     34 C34         2.9048   53.6848   26.9232 C.ar      1 UNK         0.0000 
     35 S35         2.6463   53.6970   25.1815 S.3       1 UNK         0.0000 
     36 F36         1.7042   53.2008   30.3226 F         1 UNK         0.0000 
     37 O37         7.5554   55.2969   21.6688 O.co2     1 UNK         0.0000 
     38 H38         8.7996   58.9113   16.9515 H         1 UNK         0.0000 
     39 H39         8.3550   57.9554   15.5490 H         1 UNK         0.0000 
     40 H40         7.2888   59.2640   16.1122 H         1 UNK         0.0000 
     41 H41         6.9648   55.9786   15.8404 H         1 UNK         0.0000 
     42 H42         5.7572   54.4449   17.3179 H         1 UNK         0.0000 
     43 H43         6.0999   57.2915   20.5328 H         1 UNK         0.0000 
     44 H44         7.3009   58.8240   19.0367 H         1 UNK         0.0000 
     45 H45         5.1614   51.9784   21.1429 H         1 UNK         0.0000 
     46 H46         3.9030   50.0970   20.3129 H         1 UNK         0.0000 
     47 H47         1.5621   53.7395   22.6276 H         1 UNK         0.0000 
     48 H48        -1.5462   51.8872   23.4173 H         1 UNK         0.0000 
     49 H49         0.0511   51.8506   24.1488 H         1 UNK         0.0000 
     50 H50        -0.5018   53.2902   23.2818 H         1 UNK         0.0000 
     51 H51         1.1313   47.8070   19.7885 H         1 UNK         0.0000 
     52 H52         2.6415   48.0967   20.6413 H         1 UNK         0.0000 
     53 H53         2.3165   48.9026   19.0892 H         1 UNK         0.0000 
     54 H54         5.7827   54.2936   28.6838 H         1 UNK         0.0000 
     55 H55         4.2296   53.7902   30.5431 H         1 UNK         0.0000 
     56 H56         0.9844   53.1681   27.7991 H         1 UNK         0.0000 
@<TRIPOS>BOND
     1    1    2 1    
     2    1   38 1    
     3    1   39 1    
     4    1   40 1    
     5    2    7 ar   
     6    2    3 ar   
     7    3    4 ar   
     8    3   41 1    
     9    4    5 ar   
    10    4   42 1    
    11    5    6 ar   
    12    5    8 1    
    13    6    7 ar   
    14    6   43 1    
    15    7   44 1    
    16    8    9 2    
    17    8   10 1    
    18   10   15 1    
    19   10   11 2    
    20   11   12 1    
    21   11   37 1    
    22   12   13 2    
    23   12   14 am   BACKBONE|DICT|INTERRES
    24   14   15 1    
    25   14   27 am   BACKBONE|DICT|INTERRES
    26   15   16 1    
    27   15   17 1    
    28   17   22 ar   
    29   17   18 ar   
    30   18   19 ar   
    31   18   45 1    
    32   19   20 ar   
    33   19   46 1    
    34   20   21 ar   
    35   20   25 1    
    36   21   22 ar   
    37   21   23 1    
    38   22   47 1    
    39   23   24 1    
    40   24   48 1    
    41   24   49 1    
    42   24   50 1    
    43   25   26 1    
    44   26   51 1    
    45   26   52 1    
    46   26   53 1    
    47   27   35 1    
    48   27   28 2    
    49   28   29 1    
    50   29   34 ar   
    51   29   30 ar   
    52   30   31 ar   
    53   30   54 1    
    54   31   32 ar   
    55   31   55 1    
    56   32   33 ar   
    57   32   36 1    
    58   33   34 ar   
    59   33   56 1    
    60   34   35 1    
@<TRIPOS>SUBSTRUCTURE
     1 UNK         1 GROUP             0       ****    0 ROOT    
