ZINC39671054_1324
                    3D
 Schrodinger Suite 2024-2.
 60 63  0  0  1  0            999 V2000
    5.3810   54.0978   21.1327 C   0  0  0  0  0  0
    4.8655   53.3359   20.0809 C   0  0  0  0  0  0
    3.5894   52.9391   20.4525 C   0  0  0  0  0  0
    3.3224   53.4159   21.6992 O   0  0  0  0  0  0
    4.4148   54.0973   22.1217 C   0  0  0  0  0  0
    2.4868   52.1609   19.7552 C   0  0  0  0  0  0
    1.9819   50.9239   20.5308 C   0  0  0  0  0  0
    1.5516   51.2297   21.8946 N   0  0  0  0  0  0
    0.3824   51.7983   22.2442 C   0  0  0  0  0  0
   -0.5317   51.9849   21.4414 O   0  0  0  0  0  0
    0.1617   52.2020   23.7248 C   0  0  2  0  0  0
   -0.5079   53.0647   23.7122 H   0  0  0  0  0  0
    1.4757   52.6990   24.3608 C   0  0  0  0  0  0
    1.2249   52.5722   25.8021 N   0  0  0  0  0  0
    0.0577   51.7199   26.0478 C   0  0  0  0  0  0
   -0.3391   51.0961   24.6824 C   0  0  0  0  0  0
    0.3525   49.7169   24.4455 C   0  0  0  0  0  0
    0.0132   48.6887   25.5394 C   0  0  0  0  0  0
   -1.5224   48.5572   25.6817 N   0  3  0  0  0  0
   -2.3232   49.8815   25.7066 C   0  0  0  0  0  0
   -1.8482   50.7907   24.5529 C   0  0  0  0  0  0
    1.9655   53.2969   26.6918 C   0  0  0  0  0  0
    2.9121   53.9727   26.2752 O   0  0  0  0  0  0
    1.7491   53.3420   28.2433 C   0  0  2  0  0  0
    2.7009   52.9516   28.6083 H   0  0  0  0  0  0
    0.6336   52.4503   28.8561 C   0  0  0  0  0  0
    0.5768   52.5611   30.3989 C   0  0  0  0  0  0
    0.6466   54.0077   30.8541 C   0  0  0  0  0  0
    1.1032   55.0133   30.0866 C   0  0  0  0  0  0
    1.6409   54.8416   28.6747 C   0  0  0  0  0  0
    6.3462   54.5810   21.1726 H   0  0  0  0  0  0
    5.3516   53.1096   19.1417 H   0  0  0  0  0  0
    4.3523   54.5336   23.1080 H   0  0  0  0  0  0
    1.6434   52.8241   19.5584 H   0  0  0  0  0  0
    2.8331   51.8366   18.7728 H   0  0  0  0  0  0
    1.1794   50.4303   19.9779 H   0  0  0  0  0  0
    2.7928   50.1976   20.6044 H   0  0  0  0  0  0
    2.2465   51.0865   22.6099 H   0  0  0  0  0  0
    2.3045   52.0263   24.1410 H   0  0  0  0  0  0
    1.6968   53.7182   24.0354 H   0  0  0  0  0  0
   -0.7506   52.3905   26.3434 H   0  0  0  0  0  0
    0.1504   50.9730   26.8270 H   0  0  0  0  0  0
    0.1299   49.3106   23.4574 H   0  0  0  0  0  0
    1.4363   49.8384   24.4665 H   0  0  0  0  0  0
    0.3823   47.6972   25.2808 H   0  0  0  0  0  0
    0.3964   48.9395   26.5276 H   0  0  0  0  0  0
   -1.8821   47.9553   24.9564 H   0  0  0  0  0  0
   -3.3748   49.6041   25.6222 H   0  0  0  0  0  0
   -2.1572   50.3098   26.6972 H   0  0  0  0  0  0
   -2.4074   51.7238   24.6343 H   0  0  0  0  0  0
   -2.1016   50.3884   23.5703 H   0  0  0  0  0  0
   -0.3510   52.7661   28.5084 H   0  0  0  0  0  0
    0.8259   51.3926   28.6793 H   0  0  0  0  0  0
    1.3945   52.0063   30.8596 H   0  0  0  0  0  0
   -0.3398   52.0964   30.7689 H   0  0  0  0  0  0
    0.3058   54.2477   31.8524 H   0  0  0  0  0  0
    1.0961   56.0070   30.5135 H   0  0  0  0  0  0
    2.5786   55.3790   28.5211 H   0  0  0  0  0  0
    0.9021   55.3492   28.0527 H   0  0  0  0  0  0
   -1.6926   48.0972   26.5819 H   0  0  0  0  0  0
  1  5  2  0  0  0
  1  2  1  0  0  0
  1 31  1  0  0  0
  2  3  2  0  0  0
  2 32  1  0  0  0
  3  4  1  0  0  0
  3  6  1  0  0  0
  4  5  1  0  0  0
  5 33  1  0  0  0
  6  7  1  0  0  0
  6 34  1  0  0  0
  6 35  1  0  0  0
  7  8  1  0  0  0
  7 36  1  0  0  0
  7 37  1  0  0  0
  8  9  1  0  0  0
  8 38  1  0  0  0
  9 10  2  0  0  0
  9 11  1  0  0  0
 11 12  1  0  0  0
 11 16  1  0  0  0
 11 13  1  0  0  0
 13 14  1  0  0  0
 13 39  1  0  0  0
 13 40  1  0  0  0
 14 15  1  0  0  0
 14 22  1  0  0  0
 15 16  1  0  0  0
 15 41  1  0  0  0
 15 42  1  0  0  0
 16 21  1  0  0  0
 16 17  1  0  0  0
 17 18  1  0  0  0
 17 43  1  0  0  0
 17 44  1  0  0  0
 18 19  1  0  0  0
 18 45  1  0  0  0
 18 46  1  0  0  0
 19 20  1  0  0  0
 19 47  1  0  0  0
 19 60  1  0  0  0
 20 21  1  0  0  0
 20 48  1  0  0  0
 20 49  1  0  0  0
 21 50  1  0  0  0
 21 51  1  0  0  0
 22 23  2  0  0  0
 22 24  1  0  0  0
 24 25  1  0  0  0
 24 30  1  0  0  0
 24 26  1  0  0  0
 26 27  1  0  0  0
 26 52  1  0  0  0
 26 53  1  0  0  0
 27 28  1  0  0  0
 27 54  1  0  0  0
 27 55  1  0  0  0
 28 29  2  0  0  0
 28 56  1  0  0  0
 29 30  1  0  0  0
 29 57  1  0  0  0
 30 58  1  0  0  0
 30 59  1  0  0  0
M  CHG  1  19   1
M  END
> <i_i_glide_confnum>
242

> <i_i_glide_lignum>
1325

> <i_i_glide_posenum>
167

> <i_i_glide_rotatable_bonds>
7

> <i_m_Source_File_Index>
5894

> <b_m_subgroup_collapsed>
0

> <r_i_docking_score>
-5.05128

> <r_i_glide_ecoul>
-6.35424

> <r_i_glide_eff_state_penalty>
0

> <r_i_glide_einternal>
25.5568

> <r_i_glide_emodel>
-41.788

> <r_i_glide_energy>
-39.901

> <r_i_glide_erotb>
0.781753

> <r_i_glide_esite>
-0.1

> <r_i_glide_evdw>
-33.5468

> <r_i_glide_gscore>
-5.05128

> <r_i_glide_hbond>
-0.169851

> <r_i_glide_ligand_efficiency>
-0.180403

> <r_i_glide_ligand_efficiency_ln>
-1.16598

> <r_i_glide_ligand_efficiency_sa>
-0.54781

> <r_i_glide_lipo>
-1.71673

> <r_i_glide_metal>
0

> <r_i_glide_rewards>
-1.21598

> <s_i_glide_gridfile>
wee1_glide-grid

> <s_m_Source_File>
wee1_decoys_glide_SP.sdf

> <s_m_Source_Path>
/Users/zhangxujun/Desktop

> <s_m_entry_id>
6169

> <s_m_entry_name>
wee1_decoys_glide_SP.5894

> <s_m_subgroup_title>
wee1_decoys_glide_SP

> <s_m_subgroupid>
wee1_decoys_glide_SP


$$$$
