ZINC30982458_5438
                    3D
 Schrodinger Suite 2024-2.
 68 72  0  0  1  0            999 V2000
    3.4786   54.0963   26.5970 C   0  0  0  0  0  0
    3.1767   54.0393   27.9532 C   0  0  0  0  0  0
    4.1946   54.1726   28.8893 C   0  0  0  0  0  0
    5.5070   54.3788   28.4821 C   0  0  0  0  0  0
    5.8124   54.4322   27.1249 C   0  0  0  0  0  0
    4.8003   54.2844   26.1664 C   0  0  0  0  0  0
    5.1162   54.3029   24.6966 C   0  0  0  0  0  0
    4.1837   54.0957   23.7860 N   0  0  0  0  0  0
    4.8538   54.1343   22.6695 C   0  0  0  0  0  0
    6.1744   54.3758   22.8449 O   0  0  0  0  0  0
    6.3349   54.4939   24.2253 N   0  0  0  0  0  0
    4.3377   53.9475   21.2545 C   0  0  0  0  0  0
    3.6569   52.5612   21.1006 N   0  3  1  0  0  0
    2.2157   52.5553   21.6750 C   0  0  0  0  0  0
    1.6457   51.1318   21.5639 C   0  0  0  0  0  0
    1.6592   50.6401   20.0899 C   0  0  1  0  0  0
    3.0862   50.7290   19.4943 C   0  0  0  0  0  0
    3.6391   52.1576   19.6080 C   0  0  0  0  0  0
    1.0733   49.2038   19.9819 C   0  0  0  0  0  0
    0.3382   48.7949   20.8816 O   0  0  0  0  0  0
    1.3910   48.4812   18.8794 N   0  0  0  0  0  0
    1.0016   47.1772   18.5127 C   0  0  0  0  0  0
    0.1720   46.3460   19.2820 C   0  0  0  0  0  0
   -0.1105   45.0511   18.8613 C   0  0  0  0  0  0
    0.4182   44.5793   17.6617 C   0  0  0  0  0  0
    1.2013   45.4149   16.8617 C   0  0  0  0  0  0
    1.5042   46.7047   17.2955 C   0  0  0  0  0  0
    0.0721   42.8965   17.1610 S   0  0  0  0  0  0
   -1.0332   42.9840   16.2015 O   0  0  0  0  0  0
   -0.0749   42.0968   18.3866 O   0  0  0  0  0  0
    1.5222   42.3367   16.3002 N   0  0  0  0  0  0
    1.2879   41.4844   15.1072 C   0  0  0  0  0  0
    2.5556   41.4381   14.2302 C   0  0  0  0  0  0
    3.8146   41.0504   15.0369 C   0  0  0  0  0  0
    3.9623   41.8770   16.3326 C   0  0  0  0  0  0
    2.6559   41.9015   17.1536 C   0  0  0  0  0  0
    3.9033   54.0950   30.2050 F   0  0  0  0  0  0
    2.6740   53.9798   25.8859 H   0  0  0  0  0  0
    2.1588   53.8826   28.2804 H   0  0  0  0  0  0
    6.2912   54.4940   29.2172 H   0  0  0  0  0  0
    6.8415   54.5750   26.8270 H   0  0  0  0  0  0
    5.1632   53.9713   20.5396 H   0  0  0  0  0  0
    3.6006   54.6934   20.9479 H   0  0  0  0  0  0
    1.6259   53.2969   21.1335 H   0  0  0  0  0  0
    2.2657   52.8364   22.7245 H   0  0  0  0  0  0
    0.6263   51.1834   21.9539 H   0  0  0  0  0  0
    2.2717   50.4993   22.1994 H   0  0  0  0  0  0
    0.9699   51.2391   19.4921 H   0  0  0  0  0  0
    3.7860   50.0961   20.0397 H   0  0  0  0  0  0
    3.1023   50.5053   18.4267 H   0  0  0  0  0  0
    3.0490   52.8931   19.0554 H   0  0  0  0  0  0
    4.6733   52.1692   19.2572 H   0  0  0  0  0  0
    2.0290   48.9184   18.2281 H   0  0  0  0  0  0
   -0.2520   46.6564   20.2226 H   0  0  0  0  0  0
   -0.7335   44.4166   19.4734 H   0  0  0  0  0  0
    1.6038   45.0605   15.9238 H   0  0  0  0  0  0
    2.1418   47.3304   16.6863 H   0  0  0  0  0  0
    0.4469   41.8656   14.5256 H   0  0  0  0  0  0
    1.1145   40.4610   15.4448 H   0  0  0  0  0  0
    2.7012   42.4140   13.7631 H   0  0  0  0  0  0
    2.4094   40.7379   13.4073 H   0  0  0  0  0  0
    3.7650   39.9900   15.2913 H   0  0  0  0  0  0
    4.7043   41.1670   14.4175 H   0  0  0  0  0  0
    4.7717   41.4759   16.9427 H   0  0  0  0  0  0
    4.2513   42.8967   16.0826 H   0  0  0  0  0  0
    2.7497   42.5615   18.0150 H   0  0  0  0  0  0
    2.4750   40.8712   17.4671 H   0  0  0  0  0  0
    4.2216   51.8855   21.5983 H   0  0  0  0  0  0
  1  6  2  0  0  0
  1  2  1  0  0  0
  1 38  1  0  0  0
  2  3  2  0  0  0
  2 39  1  0  0  0
  3  4  1  0  0  0
  3 37  1  0  0  0
  4  5  2  0  0  0
  4 40  1  0  0  0
  5  6  1  0  0  0
  5 41  1  0  0  0
  6  7  1  0  0  0
  7 11  2  0  0  0
  7  8  1  0  0  0
  8  9  2  0  0  0
  9 10  1  0  0  0
  9 12  1  0  0  0
 10 11  1  0  0  0
 12 13  1  0  0  0
 12 42  1  0  0  0
 12 43  1  0  0  0
 13 18  1  0  0  0
 13 14  1  0  0  0
 13 68  1  0  0  0
 14 15  1  0  0  0
 14 44  1  0  0  0
 14 45  1  0  0  0
 15 16  1  0  0  0
 15 46  1  0  0  0
 15 47  1  0  0  0
 16 17  1  0  0  0
 16 19  1  0  0  0
 16 48  1  0  0  0
 17 18  1  0  0  0
 17 49  1  0  0  0
 17 50  1  0  0  0
 18 51  1  0  0  0
 18 52  1  0  0  0
 19 20  2  0  0  0
 19 21  1  0  0  0
 21 22  1  0  0  0
 21 53  1  0  0  0
 22 27  2  0  0  0
 22 23  1  0  0  0
 23 24  2  0  0  0
 23 54  1  0  0  0
 24 25  1  0  0  0
 24 55  1  0  0  0
 25 26  2  0  0  0
 25 28  1  0  0  0
 26 27  1  0  0  0
 26 56  1  0  0  0
 27 57  1  0  0  0
 28 29  2  0  0  0
 28 30  2  0  0  0
 28 31  1  0  0  0
 31 36  1  0  0  0
 31 32  1  0  0  0
 32 33  1  0  0  0
 32 58  1  0  0  0
 32 59  1  0  0  0
 33 34  1  0  0  0
 33 60  1  0  0  0
 33 61  1  0  0  0
 34 35  1  0  0  0
 34 62  1  0  0  0
 34 63  1  0  0  0
 35 36  1  0  0  0
 35 64  1  0  0  0
 35 65  1  0  0  0
 36 66  1  0  0  0
 36 67  1  0  0  0
M  CHG  1  13   1
M  END
> <i_i_glide_confnum>
55

> <i_i_glide_lignum>
5439

> <i_i_glide_posenum>
220

> <i_i_glide_rotatable_bonds>
8

> <i_m_Source_File_Index>
2925

> <b_m_subgroup_collapsed>
0

> <r_i_docking_score>
-4.80851

> <r_i_glide_ecoul>
-7.83403

> <r_i_glide_eff_state_penalty>
0

> <r_i_glide_einternal>
9.69053

> <r_i_glide_emodel>
-59.5572

> <r_i_glide_energy>
-50.4666

> <r_i_glide_erotb>
0.589827

> <r_i_glide_esite>
-0.21684

> <r_i_glide_evdw>
-42.6326

> <r_i_glide_gscore>
-4.80851

> <r_i_glide_hbond>
0

> <r_i_glide_ligand_efficiency>
-0.12996

> <r_i_glide_ligand_efficiency_ln>
-1.04285

> <r_i_glide_ligand_efficiency_sa>
-0.433055

> <r_i_glide_lipo>
-2.41696

> <r_i_glide_metal>
0

> <r_i_glide_rewards>
0.542191

> <s_i_glide_gridfile>
wee1_glide-grid

> <s_m_Source_File>
wee1_decoys_glide_SP.sdf

> <s_m_Source_Path>
/Users/zhangxujun/Desktop

> <s_m_entry_id>
3200

> <s_m_entry_name>
wee1_decoys_glide_SP.2925

> <s_m_subgroup_title>
wee1_decoys_glide_SP

> <s_m_subgroupid>
wee1_decoys_glide_SP


$$$$
