ZINC35399281_2841
                    3D
 Schrodinger Suite 2024-2.
 61 65  0  0  1  0            999 V2000
   -6.0802   49.4521   32.8515 C   0  0  0  0  0  0
   -6.2690   48.5060   31.6478 C   0  0  0  0  0  0
   -5.9030   49.1368   30.2955 C   0  0  0  0  0  0
   -6.1328   50.3313   30.0986 O   0  0  0  0  0  0
   -5.3409   48.2982   29.3985 N   0  0  0  0  0  0
   -4.9412   48.5483   28.0718 C   0  0  0  0  0  0
   -5.3351   49.6692   27.3255 C   0  0  0  0  0  0
   -4.8322   49.8639   26.0431 C   0  0  0  0  0  0
   -3.9339   48.9452   25.4993 C   0  0  0  0  0  0
   -3.5813   47.8016   26.2152 C   0  0  0  0  0  0
   -4.0956   47.5978   27.4927 C   0  0  0  0  0  0
   -3.1751   49.2835   23.9119 S   0  0  0  0  0  0
   -2.6022   48.0239   23.4216 O   0  0  0  0  0  0
   -4.1750   50.0187   23.1285 O   0  0  0  0  0  0
   -1.8515   50.4049   24.2936 N   0  0  0  0  0  0
   -0.5332   49.8520   24.7254 C   0  0  0  0  0  0
   -0.0481   50.3399   26.1098 C   0  0  0  0  0  0
   -0.1760   51.8692   26.3177 C   0  0  0  0  0  0
   -1.6694   52.2170   26.0756 C   0  0  0  0  0  0
   -2.2236   51.7899   24.7018 C   0  0  0  0  0  0
    0.7907   52.6657   25.4073 C   0  0  0  0  0  0
    0.7781   52.9789   24.0423 C   0  0  0  0  0  0
    1.9049   53.7252   23.7143 C   0  0  0  0  0  0
    2.6360   53.8417   24.8752 C   0  0  0  0  0  0
    1.9785   53.1886   25.8970 N   0  0  0  0  0  0
    2.3841   53.0223   27.2352 C   0  0  0  0  0  0
    3.6817   53.2966   27.6875 C   0  0  0  0  0  0
    4.0391   53.0412   29.0071 C   0  0  0  0  0  0
    3.1076   52.5089   29.8990 C   0  0  0  0  0  0
    1.8009   52.2651   29.4655 C   0  0  0  0  0  0
    1.4317   52.5327   28.1446 C   0  0  0  0  0  0
    0.1306   52.2010   27.7227 N   0  0  0  0  0  0
    3.5136   52.2119   31.3313 C   0  0  0  0  0  0
   -6.2692   48.9235   33.7866 H   0  0  0  0  0  0
   -6.7785   50.2883   32.8216 H   0  0  0  0  0  0
   -5.0648   49.8493   32.9042 H   0  0  0  0  0  0
   -5.6960   47.5928   31.8109 H   0  0  0  0  0  0
   -7.3127   48.1984   31.5939 H   0  0  0  0  0  0
   -5.0761   47.3927   29.7467 H   0  0  0  0  0  0
   -6.0163   50.4057   27.7219 H   0  0  0  0  0  0
   -5.1233   50.7436   25.4885 H   0  0  0  0  0  0
   -2.8690   47.0954   25.8138 H   0  0  0  0  0  0
   -3.7688   46.7343   28.0538 H   0  0  0  0  0  0
   -0.5965   48.7635   24.7338 H   0  0  0  0  0  0
    0.1897   50.0776   23.9421 H   0  0  0  0  0  0
   -0.6202   49.8133   26.8769 H   0  0  0  0  0  0
    0.9813   50.0158   26.2683 H   0  0  0  0  0  0
   -1.8410   53.2830   26.2181 H   0  0  0  0  0  0
   -2.2811   51.7274   26.8384 H   0  0  0  0  0  0
   -1.9439   52.4690   23.9016 H   0  0  0  0  0  0
   -3.3098   51.8670   24.7163 H   0  0  0  0  0  0
    0.0249   52.6910   23.3270 H   0  0  0  0  0  0
    2.1604   54.1159   22.7404 H   0  0  0  0  0  0
    3.5808   54.3280   25.0573 H   0  0  0  0  0  0
    4.4371   53.6674   27.0122 H   0  0  0  0  0  0
    5.0552   53.2329   29.3188 H   0  0  0  0  0  0
    1.0740   51.8537   30.1507 H   0  0  0  0  0  0
   -0.5033   51.7727   28.3835 H   0  0  0  0  0  0
    4.2903   52.8982   31.6726 H   0  0  0  0  0  0
    2.6676   52.3146   32.0107 H   0  0  0  0  0  0
    3.9090   51.2047   31.4203 H   0  0  0  0  0  0
  1  2  1  0  0  0
  1 34  1  0  0  0
  1 35  1  0  0  0
  1 36  1  0  0  0
  2  3  1  0  0  0
  2 37  1  0  0  0
  2 38  1  0  0  0
  3  4  2  0  0  0
  3  5  1  0  0  0
  5  6  1  0  0  0
  5 39  1  0  0  0
  6 11  2  0  0  0
  6  7  1  0  0  0
  7  8  2  0  0  0
  7 40  1  0  0  0
  8  9  1  0  0  0
  8 41  1  0  0  0
  9 10  2  0  0  0
  9 12  1  0  0  0
 10 11  1  0  0  0
 10 42  1  0  0  0
 11 43  1  0  0  0
 12 13  2  0  0  0
 12 14  2  0  0  0
 12 15  1  0  0  0
 15 20  1  0  0  0
 15 16  1  0  0  0
 16 17  1  0  0  0
 16 44  1  0  0  0
 16 45  1  0  0  0
 17 18  1  0  0  0
 17 46  1  0  0  0
 17 47  1  0  0  0
 18 32  1  0  0  0
 18 19  1  0  0  0
 18 21  1  0  0  0
 19 20  1  0  0  0
 19 48  1  0  0  0
 19 49  1  0  0  0
 20 50  1  0  0  0
 20 51  1  0  0  0
 21 25  1  0  0  0
 21 22  2  0  0  0
 22 23  1  0  0  0
 22 52  1  0  0  0
 23 24  2  0  0  0
 23 53  1  0  0  0
 24 25  1  0  0  0
 24 54  1  0  0  0
 25 26  1  0  0  0
 26 31  2  0  0  0
 26 27  1  0  0  0
 27 28  2  0  0  0
 27 55  1  0  0  0
 28 29  1  0  0  0
 28 56  1  0  0  0
 29 30  2  0  0  0
 29 33  1  0  0  0
 30 31  1  0  0  0
 30 57  1  0  0  0
 31 32  1  0  0  0
 32 58  1  0  0  0
 33 59  1  0  0  0
 33 60  1  0  0  0
 33 61  1  0  0  0
M  END
> <i_i_glide_confnum>
39

> <i_i_glide_lignum>
2842

> <i_i_glide_posenum>
298

> <i_i_glide_rotatable_bonds>
5

> <i_m_Source_File_Index>
2497

> <b_m_subgroup_collapsed>
0

> <r_i_docking_score>
-4.23865

> <r_i_glide_ecoul>
-1.64995

> <r_i_glide_eff_state_penalty>
0

> <r_i_glide_einternal>
3.47414

> <r_i_glide_emodel>
-48.4123

> <r_i_glide_energy>
-38.1036

> <r_i_glide_erotb>
0.373627

> <r_i_glide_esite>
-0.0821383

> <r_i_glide_evdw>
-36.4537

> <r_i_glide_gscore>
-4.23865

> <r_i_glide_hbond>
0

> <r_i_glide_ligand_efficiency>
-0.128444

> <r_i_glide_ligand_efficiency_ln>
-0.942653

> <r_i_glide_ligand_efficiency_sa>
-0.411988

> <r_i_glide_lipo>
-2.04976

> <r_i_glide_metal>
0

> <r_i_glide_rewards>
-0.410202

> <s_i_glide_gridfile>
wee1_glide-grid

> <s_m_Source_File>
wee1_decoys_glide_SP.sdf

> <s_m_Source_Path>
/Users/zhangxujun/Desktop

> <s_m_entry_id>
2772

> <s_m_entry_name>
wee1_decoys_glide_SP.2497

> <s_m_subgroup_title>
wee1_decoys_glide_SP

> <s_m_subgroupid>
wee1_decoys_glide_SP


$$$$
