@<TRIPOS>MOLECULE
ZINC01874671_3341
47   50    1
SMALL
USER_CHARGES


@<TRIPOS>ATOM
      1 C1          6.4319   54.6413   27.6821 C.3       1 UNK         0.0000 
      2 C2          5.3937   54.4041   26.6091 C.ar      1 UNK         0.0000 
      3 C3          5.7719   54.4967   25.2706 C.ar      1 UNK         0.0000 
      4 C4          4.8291   54.2844   24.2729 C.ar      1 UNK         0.0000 
      5 C5          3.5075   53.9866   24.6164 C.ar      1 UNK         0.0000 
      6 C6          3.1272   53.8905   25.9553 C.ar      1 UNK         0.0000 
      7 C7          4.0750   54.0980   26.9545 C.ar      1 UNK         0.0000 
      8 S8          2.3056   53.7070   23.3263 S.o2      1 UNK         0.0000 
      9 O9          1.1045   54.4640   23.6841 O.2       1 UNK         0.0000 
     10 O10         3.0014   53.9673   22.0651 O.2       1 UNK         0.0000 
     11 N11         1.9037   51.9876   23.4390 N.pl3     1 UNK         0.0000 
     12 C12         1.1769   51.2769   22.3363 C.3       1 UNK         0.0000 
     13 C13         1.7143   51.5296   20.9613 C.ar      1 UNK         0.0000 
     14 C14         2.9311   51.4330   20.3926 C.ar      1 UNK         0.0000 
     15 O15         4.0742   51.1131   20.8809 O.co2     1 UNK         0.0000 
     16 N16         3.1044   51.6967   19.0683 N.pl3     1 UNK         0.0000 
     17 H17         3.9752   51.4131   18.6263 H         1 UNK         0.0000 
     18 C18         2.1046   52.1375   18.2446 C.ar      1 UNK         0.0000 
     19 O19         2.3670   52.4201   17.0746 O.2       1 UNK         0.0000 
     20 N20         0.8558   52.2676   18.8500 N.pl3     1 UNK         0.0000 
     21 C21         0.6014   51.9783   20.1905 C.ar      1 UNK         0.0000 
     22 N22        -0.4975   52.0967   20.8368 N.am      1 UNK         0.0000 
     23 C23        -0.2531   51.8023   22.1626 C.2       1 UNK         0.0000 
     24 O24        -1.0664   51.9217   23.0789 O.2       1 UNK         0.0000 
     25 C25        -0.2187   52.7725   18.0651 C.ar      1 UNK         0.0000 
     26 C26        -0.1806   54.0888   17.5816 C.ar      1 UNK         0.0000 
     27 C27        -1.2569   54.6016   16.8631 C.ar      1 UNK         0.0000 
     28 C28        -2.3687   53.7986   16.6185 C.ar      1 UNK         0.0000 
     29 C29        -2.4122   52.4844   17.0790 C.ar      1 UNK         0.0000 
     30 C30        -1.3376   51.9689   17.7992 C.ar      1 UNK         0.0000 
     31 C31         1.1053   49.7462   22.6446 C.3       1 UNK         0.0000 
     32 F32         0.7183   49.4974   23.8990 F         1 UNK         0.0000 
     33 F33         0.2772   49.0676   21.8422 F         1 UNK         0.0000 
     34 F34         2.3043   49.1916   22.4816 F         1 UNK         0.0000 
     35 H35         6.0748   54.3657   28.6752 H         1 UNK         0.0000 
     36 H36         6.7048   55.6955   27.6816 H         1 UNK         0.0000 
     37 H37         7.3325   54.0596   27.4808 H         1 UNK         0.0000 
     38 H38         6.7924   54.7263   24.9996 H         1 UNK         0.0000 
     39 H39         5.1330   54.3502   23.2379 H         1 UNK         0.0000 
     40 H40         2.1055   53.6565   26.2185 H         1 UNK         0.0000 
     41 H41         3.7823   54.0237   27.9916 H         1 UNK         0.0000 
     42 H42         1.4283   51.7779   24.3202 H         1 UNK         0.0000 
     43 H43         0.6794   54.7155   17.7732 H         1 UNK         0.0000 
     44 H44        -1.2265   55.6170   16.4960 H         1 UNK         0.0000 
     45 H45        -3.2022   54.1968   16.0585 H         1 UNK         0.0000 
     46 H46        -3.2757   51.8671   16.8789 H         1 UNK         0.0000 
     47 H47        -1.3788   50.9531   18.1659 H         1 UNK         0.0000 
@<TRIPOS>BOND
     1    1    2 1    
     2    1   35 1    
     3    1   36 1    
     4    1   37 1    
     5    2    7 ar   
     6    2    3 ar   
     7    3    4 ar   
     8    3   38 1    
     9    4    5 ar   
    10    4   39 1    
    11    5    6 ar   
    12    5    8 1    
    13    6    7 ar   
    14    6   40 1    
    15    7   41 1    
    16    8    9 2    
    17    8   10 2    
    18    8   11 1    
    19   11   12 1    
    20   11   42 1    
    21   12   23 1    
    22   12   13 1    
    23   12   31 1    
    24   13   21 ar   
    25   13   14 ar   
    26   14   15 1    
    27   14   16 ar   
    28   16   17 1    
    29   16   18 ar   
    30   18   19 2    
    31   18   20 ar   
    32   20   21 ar   
    33   20   25 1    
    34   21   22 2    
    35   22   23 am   BACKBONE|DICT|INTERRES
    36   23   24 2    
    37   25   30 ar   
    38   25   26 ar   
    39   26   27 ar   
    40   26   43 1    
    41   27   28 ar   
    42   27   44 1    
    43   28   29 ar   
    44   28   45 1    
    45   29   30 ar   
    46   29   46 1    
    47   30   47 1    
    48   31   32 1    
    49   31   33 1    
    50   31   34 1    
@<TRIPOS>SUBSTRUCTURE
     1 UNK         1 GROUP             0       ****    0 ROOT    
