ZINC35729064_3436
                    3D
 Schrodinger Suite 2024-2.
 52 54  0  0  1  0            999 V2000
    2.5618   55.4615   17.2816 C   0  0  0  0  0  0
    3.9510   56.0649   17.5596 C   0  0  0  0  0  0
    5.1434   55.1540   17.1635 C   0  0  2  0  0  0
    6.0348   55.7824   17.2226 H   0  0  0  0  0  0
    5.0240   54.7667   15.6697 C   0  0  0  0  0  0
    5.3563   53.9272   18.1285 C   0  0  2  0  0  0
    4.4049   53.4021   18.2098 H   0  0  0  0  0  0
    5.7634   54.4186   19.5480 C   0  0  0  0  0  0
    6.7788   55.1045   19.6852 O   0  0  0  0  0  0
    4.9514   54.0422   20.5659 N   0  0  0  0  0  0
    5.2100   54.2304   21.9208 C   0  0  0  0  0  0
    6.3683   54.5012   22.4817 N   0  0  0  0  0  0
    6.3020   54.5579   23.8659 N   0  0  0  0  0  0
    5.0940   54.3383   24.3350 C   0  0  0  0  0  0
    3.9135   54.0562   23.0674 S   0  0  0  0  0  0
    4.7582   54.2953   25.8002 C   0  0  0  0  0  0
    5.7758   54.4398   26.7549 C   0  0  0  0  0  0
    5.4881   54.3755   28.1164 C   0  0  0  0  0  0
    4.1760   54.1710   28.5338 C   0  0  0  0  0  0
    3.1531   54.0322   27.6000 C   0  0  0  0  0  0
    3.4422   54.0969   26.2388 C   0  0  0  0  0  0
    3.8925   54.1042   29.8554 F   0  0  0  0  0  0
    6.2696   52.8967   17.5970 N   0  0  0  0  0  0
    7.5339   53.0308   17.1584 C   0  0  0  0  0  0
    8.2336   54.0262   17.3419 O   0  0  0  0  0  0
    7.9045   51.9548   16.4369 N   0  0  0  0  0  0
    9.1598   51.6892   15.8584 C   0  0  0  0  0  0
   10.3591   52.0674   16.4817 C   0  0  0  0  0  0
   11.5894   51.7472   15.9076 C   0  0  0  0  0  0
   11.6359   51.0521   14.7006 C   0  0  0  0  0  0
   10.4522   50.6804   14.0664 C   0  0  0  0  0  0
    9.2163   50.9993   14.6336 C   0  0  0  0  0  0
    7.6390   50.4976   13.6817 Br  0  0  0  0  0  0
    1.7730   56.0966   17.6816 H   0  0  0  0  0  0
    2.3727   55.3632   16.2129 H   0  0  0  0  0  0
    2.4444   54.4784   17.7350 H   0  0  0  0  0  0
    4.0183   56.3503   18.6083 H   0  0  0  0  0  0
    4.0318   57.0031   17.0081 H   0  0  0  0  0  0
    4.2406   54.0263   15.5068 H   0  0  0  0  0  0
    4.7961   55.6381   15.0552 H   0  0  0  0  0  0
    5.9528   54.3512   15.2804 H   0  0  0  0  0  0
    4.0961   53.5601   20.3338 H   0  0  0  0  0  0
    6.8003   54.5876   26.4477 H   0  0  0  0  0  0
    6.2780   54.4858   28.8465 H   0  0  0  0  0  0
    2.1389   53.8722   27.9333 H   0  0  0  0  0  0
    2.6329   53.9783   25.5346 H   0  0  0  0  0  0
    5.9045   51.9478   17.6815 H   0  0  0  0  0  0
    7.1793   51.2911   16.2125 H   0  0  0  0  0  0
   10.3469   52.5868   17.4300 H   0  0  0  0  0  0
   12.5056   52.0332   16.4038 H   0  0  0  0  0  0
   12.5866   50.8001   14.2528 H   0  0  0  0  0  0
   10.4972   50.1475   13.1253 H   0  0  0  0  0  0
  1  2  1  0  0  0
  1 34  1  0  0  0
  1 35  1  0  0  0
  1 36  1  0  0  0
  2  3  1  0  0  0
  2 37  1  0  0  0
  2 38  1  0  0  0
  3  4  1  0  0  0
  3  5  1  0  0  0
  3  6  1  0  0  0
  5 39  1  0  0  0
  5 40  1  0  0  0
  5 41  1  0  0  0
  6  7  1  0  0  0
  6  8  1  0  0  0
  6 23  1  0  0  0
  8  9  2  0  0  0
  8 10  1  0  0  0
 10 11  1  0  0  0
 10 42  1  0  0  0
 11 15  1  0  0  0
 11 12  2  0  0  0
 12 13  1  0  0  0
 13 14  2  0  0  0
 14 15  1  0  0  0
 14 16  1  0  0  0
 16 21  2  0  0  0
 16 17  1  0  0  0
 17 18  2  0  0  0
 17 43  1  0  0  0
 18 19  1  0  0  0
 18 44  1  0  0  0
 19 20  2  0  0  0
 19 22  1  0  0  0
 20 21  1  0  0  0
 20 45  1  0  0  0
 21 46  1  0  0  0
 23 24  1  0  0  0
 23 47  1  0  0  0
 24 25  2  0  0  0
 24 26  1  0  0  0
 26 27  1  0  0  0
 26 48  1  0  0  0
 27 32  2  0  0  0
 27 28  1  0  0  0
 28 29  2  0  0  0
 28 49  1  0  0  0
 29 30  1  0  0  0
 29 50  1  0  0  0
 30 31  2  0  0  0
 30 51  1  0  0  0
 31 32  1  0  0  0
 31 52  1  0  0  0
 32 33  1  0  0  0
M  END
> <i_i_glide_confnum>
275

> <i_i_glide_lignum>
3437

> <i_i_glide_posenum>
328

> <i_i_glide_rotatable_bonds>
10

> <i_m_Source_File_Index>
5901

> <b_m_subgroup_collapsed>
0

> <r_i_docking_score>
-5.27174

> <r_i_glide_ecoul>
-5.91364

> <r_i_glide_eff_state_penalty>
0

> <r_i_glide_einternal>
10.6959

> <r_i_glide_emodel>
-57.9638

> <r_i_glide_energy>
-47.2175

> <r_i_glide_erotb>
0.638286

> <r_i_glide_esite>
-0.134604

> <r_i_glide_evdw>
-41.3039

> <r_i_glide_gscore>
-5.27174

> <r_i_glide_hbond>
-0.16

> <r_i_glide_ligand_efficiency>
-0.170056

> <r_i_glide_ligand_efficiency_ln>
-1.18894

> <r_i_glide_ligand_efficiency_sa>
-0.534211

> <r_i_glide_lipo>
-2.57419

> <r_i_glide_metal>
0

> <r_i_glide_rewards>
-0.0889909

> <s_i_glide_gridfile>
wee1_glide-grid

> <s_m_Source_File>
wee1_decoys_glide_SP.sdf

> <s_m_Source_Path>
/Users/zhangxujun/Desktop

> <s_m_entry_id>
6176

> <s_m_entry_name>
wee1_decoys_glide_SP.5901

> <s_m_subgroup_title>
wee1_decoys_glide_SP

> <s_m_subgroupid>
wee1_decoys_glide_SP


$$$$
