@<TRIPOS>MOLECULE
ZINC65594073_4308
51   53    1
SMALL
USER_CHARGES


@<TRIPOS>ATOM
      1 C1         -5.1277   49.9530   31.0991 C.3       1 UNK         0.0000 
      2 C2         -4.2326   50.4944   29.9796 C.3       1 UNK         0.0000 
      3 C3         -4.3402   49.6666   28.6871 C.3       1 UNK         0.0000 
      4 N4         -3.4308   50.1139   27.6386 N.am      1 UNK         0.0000 
      5 C5         -3.6351   51.1746   26.8365 C.2       1 UNK         0.0000 
      6 O6         -4.6689   51.8470   26.8862 O.2       1 UNK         0.0000 
      7 C7         -2.5438   51.5197   25.8459 C.ar      1 UNK         0.0000 
      8 C8         -2.8335   52.3801   24.7781 C.ar      1 UNK         0.0000 
      9 C9         -1.8427   52.7497   23.8727 C.ar      1 UNK         0.0000 
     10 C10        -0.5409   52.2684   24.0145 C.ar      1 UNK         0.0000 
     11 C11        -0.2430   51.3985   25.0758 C.ar      1 UNK         0.0000 
     12 C12        -1.2359   51.0248   25.9788 C.ar      1 UNK         0.0000 
     13 N13         0.4056   52.7488   23.0877 N.am      1 UNK         0.0000 
     14 C14         1.6404   52.2886   22.8222 C.2       1 UNK         0.0000 
     15 O15         2.1000   51.2389   23.2661 O.2       1 UNK         0.0000 
     16 N16         2.3438   53.1637   22.0698 N.am      1 UNK         0.0000 
     17 C17         3.8204   53.2718   21.9327 C.3       1 UNK         0.0000 
     18 C18         4.4004   51.9949   21.2476 C.3       1 UNK         0.0000 
     19 C19         4.2277   52.6378   19.8721 C.3       1 UNK         0.0000 
     20 C20         4.2005   53.9795   20.6028 C.3       1 UNK         0.0000 
     21 C21         4.4712   53.7670   23.2482 C.ar      1 UNK         0.0000 
     22 C22         5.8681   53.8627   23.2820 C.ar      1 UNK         0.0000 
     23 C23         6.5354   54.1336   24.4663 C.ar      1 UNK         0.0000 
     24 C24         5.8043   54.3368   25.6290 C.ar      1 UNK         0.0000 
     25 C25         4.4155   54.3643   25.5996 C.ar      1 UNK         0.0000 
     26 C26         3.7511   54.0965   24.4093 C.ar      1 UNK         0.0000 
     27 Br27        6.7046   54.4971   27.2818 Br        1 UNK         0.0000 
     28 H28        -4.9657   50.4972   32.0327 H         1 UNK         0.0000 
     29 H29        -4.9132   48.8993   31.2835 H         1 UNK         0.0000 
     30 H30        -6.1841   50.0363   30.8379 H         1 UNK         0.0000 
     31 H31        -4.4988   51.5320   29.7716 H         1 UNK         0.0000 
     32 H32        -3.1966   50.4959   30.3250 H         1 UNK         0.0000 
     33 H33        -4.0993   48.6257   28.9128 H         1 UNK         0.0000 
     34 H34        -5.3733   49.6391   28.3337 H         1 UNK         0.0000 
     35 H35        -2.5671   49.5771   27.5888 H         1 UNK         0.0000 
     36 H36        -3.8326   52.7725   24.6430 H         1 UNK         0.0000 
     37 H37        -2.1025   53.4162   23.0645 H         1 UNK         0.0000 
     38 H38         0.7542   51.0170   25.2345 H         1 UNK         0.0000 
     39 H39        -0.9648   50.3646   26.7918 H         1 UNK         0.0000 
     40 H40         0.1019   53.5352   22.5380 H         1 UNK         0.0000 
     41 H41         1.8272   53.7947   21.4722 H         1 UNK         0.0000 
     42 H42         5.4409   51.7887   21.5111 H         1 UNK         0.0000 
     43 H43         3.8550   51.0629   21.4080 H         1 UNK         0.0000 
     44 H44         5.0553   52.5011   19.1756 H         1 UNK         0.0000 
     45 H45         3.2878   52.3761   19.3854 H         1 UNK         0.0000 
     46 H46         3.5047   54.7215   20.2241 H         1 UNK         0.0000 
     47 H47         5.1715   54.4751   20.6389 H         1 UNK         0.0000 
     48 H48         6.4569   53.6840   22.3999 H         1 UNK         0.0000 
     49 H49         7.6152   54.1413   24.4863 H         1 UNK         0.0000 
     50 H50         3.8565   54.5469   26.5048 H         1 UNK         0.0000 
     51 H51         2.6737   54.1037   24.4363 H         1 UNK         0.0000 
@<TRIPOS>BOND
     1    1    2 1    
     2    1   28 1    
     3    1   29 1    
     4    1   30 1    
     5    2    3 1    
     6    2   31 1    
     7    2   32 1    
     8    3    4 1    
     9    3   33 1    
    10    3   34 1    
    11    4    5 am   BACKBONE|DICT|INTERRES
    12    4   35 1    
    13    5    6 2    
    14    5    7 1    
    15    7   12 ar   
    16    7    8 ar   
    17    8    9 ar   
    18    8   36 1    
    19    9   10 ar   
    20    9   37 1    
    21   10   11 ar   
    22   10   13 1    
    23   11   12 ar   
    24   11   38 1    
    25   12   39 1    
    26   13   14 am   BACKBONE|DICT|INTERRES
    27   13   40 1    
    28   14   15 2    
    29   14   16 am   BACKBONE|DICT|INTERRES
    30   16   17 1    
    31   16   41 1    
    32   17   20 1    
    33   17   18 1    
    34   17   21 1    
    35   18   19 1    
    36   18   42 1    
    37   18   43 1    
    38   19   20 1    
    39   19   44 1    
    40   19   45 1    
    41   20   46 1    
    42   20   47 1    
    43   21   26 ar   
    44   21   22 ar   
    45   22   23 ar   
    46   22   48 1    
    47   23   24 ar   
    48   23   49 1    
    49   24   25 ar   
    50   24   27 1    
    51   25   26 ar   
    52   25   50 1    
    53   26   51 1    
@<TRIPOS>SUBSTRUCTURE
     1 UNK         1 GROUP             0       ****    0 ROOT    
