@<TRIPOS>MOLECULE
ZINC39198218_6051
68   73    1
SMALL
USER_CHARGES


@<TRIPOS>ATOM
      1 C1         -1.8756   51.9230   17.6808 C.ar      1 UNK         0.0000 
      2 C2         -2.1475   53.2806   17.5529 C.ar      1 UNK         0.0000 
      3 C3         -1.1091   54.1661   17.2816 C.ar      1 UNK         0.0000 
      4 C4          0.2179   53.7179   17.1347 C.ar      1 UNK         0.0000 
      5 C5          0.4555   52.3410   17.2432 C.ar      1 UNK         0.0000 
      6 C6         -0.5774   51.4500   17.5230 C.ar      1 UNK         0.0000 
      7 C7          1.3258   54.7151   16.8425 C.ar      1 UNK         0.0000 
      8 C8          2.7383   54.5571   16.7802 C.ar      1 UNK         0.0000 
      9 N9          3.2217   55.8022   16.4037 N.pl3     1 UNK         0.0000 
     10 C10         4.4882   56.2721   16.1373 C.ar      1 UNK         0.0000 
     11 C11         4.6795   57.6272   15.8756 C.ar      1 UNK         0.0000 
     12 C12         3.5912   58.4944   15.8607 C.ar      1 UNK         0.0000 
     13 C13         2.2982   58.0200   16.0820 C.ar      1 UNK         0.0000 
     14 C14         2.1090   56.6536   16.3573 C.ar      1 UNK         0.0000 
     15 N15         0.9747   55.9722   16.6120 N.2       1 UNK         0.0000 
     16 C16         3.7147   53.3995   17.0472 C.3       1 UNK         0.0000 
     17 N17         4.1760   53.3287   18.5327 N.4       1 UNK         0.0000 
     18 C18         4.6136   54.7112   19.0848 C.3       1 UNK         0.0000 
     19 C19         5.1850   54.5478   20.4961 C.3       1 UNK         0.0000 
     20 C20         4.1414   53.8879   21.4304 C.3       1 UNK         0.0000 
     21 C21         3.7100   52.5096   20.8671 C.3       1 UNK         0.0000 
     22 C22         3.1160   52.6708   19.4482 C.3       1 UNK         0.0000 
     23 C23         4.8009   53.7033   22.8167 C.2       1 UNK         0.0000 
     24 O24         5.9044   53.1672   22.8818 O.2       1 UNK         0.0000 
     25 N25         4.1354   54.1511   23.9055 N.am      1 UNK         0.0000 
     26 C26         4.6226   54.1926   25.2341 C.ar      1 UNK         0.0000 
     27 C27         5.9663   54.5037   25.4965 C.ar      1 UNK         0.0000 
     28 C28         6.4511   54.4969   26.7965 C.ar      1 UNK         0.0000 
     29 C29         5.5955   54.2033   27.8469 C.ar      1 UNK         0.0000 
     30 C30         4.2459   53.9179   27.6264 C.ar      1 UNK         0.0000 
     31 C31         3.7395   53.9108   26.2995 C.ar      1 UNK         0.0000 
     32 C32         2.2827   53.4902   26.0311 C.3       1 UNK         0.0000 
     33 C33         1.3919   53.4607   27.2863 C.3       1 UNK         0.0000 
     34 C34         2.1158   52.8049   28.4647 C.3       1 UNK         0.0000 
     35 C35         3.3485   53.6427   28.8318 C.3       1 UNK         0.0000 
     36 H36        -2.6763   51.2279   17.8870 H         1 UNK         0.0000 
     37 H37        -3.1596   53.6427   17.6548 H         1 UNK         0.0000 
     38 H38        -1.3512   55.2143   17.1902 H         1 UNK         0.0000 
     39 H39         1.4328   51.9223   17.1078 H         1 UNK         0.0000 
     40 H40        -0.3696   50.3943   17.6044 H         1 UNK         0.0000 
     41 H41         5.3051   55.5668   16.1611 H         1 UNK         0.0000 
     42 H42         5.6727   58.0161   15.6919 H         1 UNK         0.0000 
     43 H43         3.7546   59.5517   15.6805 H         1 UNK         0.0000 
     44 H44         1.4595   58.7030   16.0806 H         1 UNK         0.0000 
     45 H45         4.6600   53.5059   16.5159 H         1 UNK         0.0000 
     46 H46         3.3732   52.3997   16.7895 H         1 UNK         0.0000 
     47 H47         3.7459   55.3726   19.0701 H         1 UNK         0.0000 
     48 H48         5.3958   55.0801   18.4229 H         1 UNK         0.0000 
     49 H49         5.4609   55.5470   20.8396 H         1 UNK         0.0000 
     50 H50         6.0675   53.9235   20.3617 H         1 UNK         0.0000 
     51 H51         3.2754   54.5380   21.5731 H         1 UNK         0.0000 
     52 H52         4.5588   51.8318   20.7535 H         1 UNK         0.0000 
     53 H53         2.9271   52.0571   21.4765 H         1 UNK         0.0000 
     54 H54         2.2215   53.2951   19.4203 H         1 UNK         0.0000 
     55 H55         2.9086   51.6863   19.0242 H         1 UNK         0.0000 
     56 H56         3.1643   54.3936   23.7895 H         1 UNK         0.0000 
     57 H57         6.6492   54.7354   24.6922 H         1 UNK         0.0000 
     58 H58         7.4874   54.7148   26.9994 H         1 UNK         0.0000 
     59 H59         5.9913   54.2169   28.8525 H         1 UNK         0.0000 
     60 H60         2.3043   52.4927   25.5925 H         1 UNK         0.0000 
     61 H61         1.8220   54.1281   25.2775 H         1 UNK         0.0000 
     62 H62         1.1052   54.4778   27.5598 H         1 UNK         0.0000 
     63 H63         0.4652   52.9285   27.0709 H         1 UNK         0.0000 
     64 H64         1.4478   52.7246   29.3241 H         1 UNK         0.0000 
     65 H65         2.4128   51.7865   28.2017 H         1 UNK         0.0000 
     66 H66         3.0254   54.6009   29.2425 H         1 UNK         0.0000 
     67 H67         3.9101   53.1432   29.6212 H         1 UNK         0.0000 
     68 H68         4.9785   52.7055   18.5352 H         1 UNK         0.0000 
@<TRIPOS>BOND
     1    1    6 ar   
     2    1    2 ar   
     3    1   36 1    
     4    2    3 ar   
     5    2   37 1    
     6    3    4 ar   
     7    3   38 1    
     8    4    5 ar   
     9    4    7 1    
    10    5    6 ar   
    11    5   39 1    
    12    6   40 1    
    13    7   15 ar   
    14    7    8 ar   
    15    8    9 ar   
    16    8   16 1    
    17    9   14 ar   
    18    9   10 ar   
    19   10   11 ar   
    20   10   41 1    
    21   11   12 ar   
    22   11   42 1    
    23   12   13 ar   
    24   12   43 1    
    25   13   14 ar   
    26   13   44 1    
    27   14   15 ar   
    28   16   17 1    
    29   16   45 1    
    30   16   46 1    
    31   17   22 1    
    32   17   18 1    
    33   17   68 1    
    34   18   19 1    
    35   18   47 1    
    36   18   48 1    
    37   19   20 1    
    38   19   49 1    
    39   19   50 1    
    40   20   21 1    
    41   20   23 1    
    42   20   51 1    
    43   21   22 1    
    44   21   52 1    
    45   21   53 1    
    46   22   54 1    
    47   22   55 1    
    48   23   24 2    
    49   23   25 am   BACKBONE|DICT|INTERRES
    50   25   26 1    
    51   25   56 1    
    52   26   31 ar   
    53   26   27 ar   
    54   27   28 ar   
    55   27   57 1    
    56   28   29 ar   
    57   28   58 1    
    58   29   30 ar   
    59   29   59 1    
    60   30   35 1    
    61   30   31 ar   
    62   31   32 1    
    63   32   33 1    
    64   32   60 1    
    65   32   61 1    
    66   33   34 1    
    67   33   62 1    
    68   33   63 1    
    69   34   35 1    
    70   34   64 1    
    71   34   65 1    
    72   35   66 1    
    73   35   67 1    
@<TRIPOS>SUBSTRUCTURE
     1 UNK         1 GROUP             0       ****    0 ROOT    
