@<TRIPOS>MOLECULE
ZINC18240539_2622
29   30    1
SMALL
USER_CHARGES


@<TRIPOS>ATOM
      1 C1         10.2239   55.7755   16.6639 C.3       1 UNK         0.0000 
      2 C2          9.0469   55.4579   17.5533 C.ar      1 UNK         0.0000 
      3 C3          8.7058   56.0134   18.7923 C.ar      1 UNK         0.0000 
      4 C4          7.5592   55.3638   19.2244 C.ar      1 UNK         0.0000 
      5 N5          7.2848   54.4960   18.1919 N.pl3     1 UNK         0.0000 
      6 H6          6.5033   53.8569   18.1607 H         1 UNK         0.0000 
      7 N7          8.1736   54.5439   17.1940 N.2       1 UNK         0.0000 
      8 C8          6.8155   55.5421   20.4456 C.2       1 UNK         0.0000 
      9 O9          7.0651   56.4950   21.1882 O.2       1 UNK         0.0000 
     10 N10         5.9041   54.5609   20.6959 N.am      1 UNK         0.0000 
     11 N11         5.1922   54.2811   21.8427 N.2       1 UNK         0.0000 
     12 C12         5.6937   54.4966   23.0050 C.2       1 UNK         0.0000 
     13 C13         4.9426   54.2957   24.2656 C.ar      1 UNK         0.0000 
     14 C14         3.6083   53.8549   24.2023 C.ar      1 UNK         0.0000 
     15 C15         2.8715   53.5988   25.3527 C.ar      1 UNK         0.0000 
     16 C16         3.4461   53.7974   26.6013 C.ar      1 UNK         0.0000 
     17 C17         4.7584   54.2527   26.7048 C.ar      1 UNK         0.0000 
     18 C18         5.5117   54.5177   25.5456 C.ar      1 UNK         0.0000 
     19 O19         6.7042   54.9607   25.6829 O.co2     1 UNK         0.0000 
     20 Br20        5.4820   54.4628   28.4609 Br        1 UNK         0.0000 
     21 Br21        1.1085   52.8968   25.2089 Br        1 UNK         0.0000 
     22 H22        10.8604   56.5483   17.0951 H         1 UNK         0.0000 
     23 H23        10.8525   54.8992   16.5026 H         1 UNK         0.0000 
     24 H24         9.9053   56.1311   15.6840 H         1 UNK         0.0000 
     25 H25         9.2536   56.7792   19.3233 H         1 UNK         0.0000 
     26 H26         5.5263   54.0876   19.8891 H         1 UNK         0.0000 
     27 H27         6.7167   54.8443   23.1326 H         1 UNK         0.0000 
     28 H28         3.1301   53.6714   23.2494 H         1 UNK         0.0000 
     29 H29         2.8776   53.5811   27.4938 H         1 UNK         0.0000 
@<TRIPOS>BOND
     1    1    2 1    
     2    1   22 1    
     3    1   23 1    
     4    1   24 1    
     5    2    7 ar   
     6    2    3 ar   
     7    3    4 ar   
     8    3   25 1    
     9    4    5 ar   
    10    4    8 1    
    11    5    6 1    
    12    5    7 ar   
    13    8    9 2    
    14    8   10 am   BACKBONE|DICT|INTERRES
    15   10   11 1    
    16   10   26 1    
    17   11   12 2    
    18   12   13 1    
    19   12   27 1    
    20   13   18 ar   
    21   13   14 ar   
    22   14   15 ar   
    23   14   28 1    
    24   15   16 ar   
    25   15   21 1    
    26   16   17 ar   
    27   16   29 1    
    28   17   18 ar   
    29   17   20 1    
    30   18   19 1    
@<TRIPOS>SUBSTRUCTURE
     1 UNK         1 GROUP             0       ****    0 ROOT    
