@<TRIPOS>MOLECULE
ZINC35525653_5443
71   75    1
SMALL
USER_CHARGES


@<TRIPOS>ATOM
      1 C1          0.1464   49.6779   25.9086 C.3       1 UNK         0.0000 
      2 N2         -0.8887   50.7844   25.6004 N.4       1 UNK         0.0000 
      3 C3         -1.5193   51.3386   26.8981 C.3       1 UNK         0.0000 
      4 C4         -0.3804   51.8638   24.5982 C.3       1 UNK         0.0000 
      5 C5          0.9100   52.6235   24.9203 C.ar      1 UNK         0.0000 
      6 N6          1.6424   53.0296   23.8533 N.ar      1 UNK         0.0000 
      7 C7          2.8985   53.5166   24.0787 C.ar      1 UNK         0.0000 
      8 C8          3.3663   53.6969   25.4257 C.ar      1 UNK         0.0000 
      9 C9          4.5659   54.2133   26.0444 C.2       1 UNK         0.0000 
     10 C10         4.5640   54.0179   27.4284 C.2       1 UNK         0.0000 
     11 S11         3.0489   53.4581   28.0665 S.3       1 UNK         0.0000 
     12 C12         2.4376   53.2940   26.4409 C.ar      1 UNK         0.0000 
     13 N13         1.2380   52.7662   26.2225 N.ar      1 UNK         0.0000 
     14 C14         5.7443   54.3099   28.3405 C.3       1 UNK         0.0000 
     15 C15         7.0239   54.2577   27.4848 C.3       1 UNK         0.0000 
     16 C16         6.8784   55.2355   26.3119 C.3       1 UNK         0.0000 
     17 C17         5.7583   54.8671   25.3542 C.3       1 UNK         0.0000 
     18 N18         3.6700   53.7190   22.9234 N.pl3     1 UNK         0.0000 
     19 C19         5.0550   53.2808   22.7619 C.3       1 UNK         0.0000 
     20 C20         5.8925   54.4148   22.1339 C.3       1 UNK         0.0000 
     21 N21         5.3615   54.7289   20.7970 N.am      1 UNK         0.0000 
     22 C22         4.0867   54.0957   20.3737 C.3       1 UNK         0.0000 
     23 C23         3.1052   53.9974   21.5882 C.3       1 UNK         0.0000 
     24 C24         5.9665   55.7398   20.1158 C.2       1 UNK         0.0000 
     25 O25         6.7699   56.5160   20.6512 O.2       1 UNK         0.0000 
     26 N26         5.6454   55.8304   18.8065 N.am      1 UNK         0.0000 
     27 C27         6.2659   56.7030   17.9028 C.ar      1 UNK         0.0000 
     28 C28         5.4757   57.6844   17.3064 C.ar      1 UNK         0.0000 
     29 C29         6.0500   58.6095   16.4412 C.ar      1 UNK         0.0000 
     30 C30         7.4193   58.5553   16.1427 C.ar      1 UNK         0.0000 
     31 C31         8.1917   57.5410   16.7102 C.ar      1 UNK         0.0000 
     32 C32         7.6365   56.6029   17.5970 C.ar      1 UNK         0.0000 
     33 O33         8.3651   55.5787   18.1789 O.3       1 UNK         0.0000 
     34 C34         9.7621   55.4754   17.9313 C.3       1 UNK         0.0000 
     35 O35         8.0737   59.4469   15.3155 O.3       1 UNK         0.0000 
     36 C36         7.3621   60.5836   14.8327 C.3       1 UNK         0.0000 
     37 H37         0.9458   50.1118   26.5090 H         1 UNK         0.0000 
     38 H38        -0.3655   48.8920   26.4678 H         1 UNK         0.0000 
     39 H39         0.5258   49.2909   24.9618 H         1 UNK         0.0000 
     40 H40        -0.7345   51.7524   27.5321 H         1 UNK         0.0000 
     41 H41        -2.2517   52.0982   26.6206 H         1 UNK         0.0000 
     42 H42        -2.0062   50.4988   27.4005 H         1 UNK         0.0000 
     43 H43        -1.2076   52.5620   24.4690 H         1 UNK         0.0000 
     44 H44        -0.2587   51.3004   23.6697 H         1 UNK         0.0000 
     45 H45         5.6383   55.2954   28.8031 H         1 UNK         0.0000 
     46 H46         5.7985   53.5824   29.1488 H         1 UNK         0.0000 
     47 H47         7.9016   54.4969   28.0819 H         1 UNK         0.0000 
     48 H48         7.1898   53.2460   27.1122 H         1 UNK         0.0000 
     49 H49         6.7044   56.2283   26.6926 H         1 UNK         0.0000 
     50 H50         7.7660   55.2657   25.6847 H         1 UNK         0.0000 
     51 H51         6.2905   54.1955   24.7079 H         1 UNK         0.0000 
     52 H52         5.4561   55.7368   24.7740 H         1 UNK         0.0000 
     53 H53         5.4894   52.8667   23.6576 H         1 UNK         0.0000 
     54 H54         5.0555   52.4006   22.1149 H         1 UNK         0.0000 
     55 H55         6.9298   54.0967   22.0755 H         1 UNK         0.0000 
     56 H56         5.8618   55.2965   22.7663 H         1 UNK         0.0000 
     57 H57         3.5753   54.6232   19.5672 H         1 UNK         0.0000 
     58 H58         4.3268   53.0890   20.0296 H         1 UNK         0.0000 
     59 H59         2.7063   55.0023   21.6995 H         1 UNK         0.0000 
     60 H60         2.3076   53.2956   21.3435 H         1 UNK         0.0000 
     61 H61         4.9439   55.2080   18.4369 H         1 UNK         0.0000 
     62 H62         4.4225   57.7595   17.5343 H         1 UNK         0.0000 
     63 H63         5.4204   59.3873   16.0333 H         1 UNK         0.0000 
     64 H64         9.2379   57.5097   16.4523 H         1 UNK         0.0000 
     65 H65        10.1636   54.6239   18.4821 H         1 UNK         0.0000 
     66 H66         9.9702   55.3091   16.8723 H         1 UNK         0.0000 
     67 H67        10.2923   56.3679   18.2679 H         1 UNK         0.0000 
     68 H68         8.0300   61.1993   14.2310 H         1 UNK         0.0000 
     69 H69         6.9975   61.2024   15.6535 H         1 UNK         0.0000 
     70 H70         6.5225   60.2943   14.1980 H         1 UNK         0.0000 
     71 H71        -1.6466   50.3117   25.1222 H         1 UNK         0.0000 
@<TRIPOS>BOND
     1    1    2 1    
     2    1   37 1    
     3    1   38 1    
     4    1   39 1    
     5    2    3 1    
     6    2    4 1    
     7    2   71 1    
     8    3   40 1    
     9    3   41 1    
    10    3   42 1    
    11    4    5 1    
    12    4   43 1    
    13    4   44 1    
    14    5   13 ar   
    15    5    6 ar   
    16    6    7 ar   
    17    7    8 ar   
    18    7   18 1    
    19    8   12 ar   
    20    8    9 1    
    21    9   17 1    
    22    9   10 2    
    23   10   11 1    
    24   10   14 1    
    25   11   12 1    
    26   12   13 ar   
    27   14   15 1    
    28   14   45 1    
    29   14   46 1    
    30   15   16 1    
    31   15   47 1    
    32   15   48 1    
    33   16   17 1    
    34   16   49 1    
    35   16   50 1    
    36   17   51 1    
    37   17   52 1    
    38   18   23 1    
    39   18   19 1    
    40   19   20 1    
    41   19   53 1    
    42   19   54 1    
    43   20   21 1    
    44   20   55 1    
    45   20   56 1    
    46   21   22 1    
    47   21   24 am   BACKBONE|DICT|INTERRES
    48   22   23 1    
    49   22   57 1    
    50   22   58 1    
    51   23   59 1    
    52   23   60 1    
    53   24   25 2    
    54   24   26 am   BACKBONE|DICT|INTERRES
    55   26   27 1    
    56   26   61 1    
    57   27   32 ar   
    58   27   28 ar   
    59   28   29 ar   
    60   28   62 1    
    61   29   30 ar   
    62   29   63 1    
    63   30   31 ar   
    64   30   35 1    
    65   31   32 ar   
    66   31   64 1    
    67   32   33 1    
    68   33   34 1    
    69   34   65 1    
    70   34   66 1    
    71   34   67 1    
    72   35   36 1    
    73   36   68 1    
    74   36   69 1    
    75   36   70 1    
@<TRIPOS>SUBSTRUCTURE
     1 UNK         1 GROUP             0       ****    0 ROOT    
