@<TRIPOS>MOLECULE
ZINC39684223_4999
73   78    1
SMALL
USER_CHARGES


@<TRIPOS>ATOM
      1 C1          1.6213   45.6062   16.2985 C.3       1 UNK         0.0000 
      2 C2          0.9209   46.1002   17.5535 C.ar      1 UNK         0.0000 
      3 C3         -0.1817   45.3935   18.0459 C.ar      1 UNK         0.0000 
      4 C4         -0.8818   45.7948   19.1791 C.ar      1 UNK         0.0000 
      5 C5         -0.5186   46.9407   19.8837 C.ar      1 UNK         0.0000 
      6 C6          0.5789   47.6940   19.4405 C.ar      1 UNK         0.0000 
      7 C7          1.2074   48.9082   19.9068 C.ar      1 UNK         0.0000 
      8 C8          2.2616   49.1174   19.0430 C.ar      1 UNK         0.0000 
      9 N9          2.3015   48.1476   18.0830 N.pl3     1 UNK         0.0000 
     10 C10         1.2834   47.2460   18.2768 C.ar      1 UNK         0.0000 
     11 C11         0.8135   49.7397   21.1105 C.3       1 UNK         0.0000 
     12 C12         1.2024   51.2342   20.9956 C.3       1 UNK         0.0000 
     13 N13         1.0652   51.9283   22.2723 N.am      1 UNK         0.0000 
     14 C14        -0.0937   52.3265   22.8291 C.2       1 UNK         0.0000 
     15 O15        -1.1628   52.2866   22.2207 O.2       1 UNK         0.0000 
     16 C16        -0.1081   52.7808   24.3160 C.3       1 UNK         0.0000 
     17 H17        -0.7011   53.6962   24.3832 H         1 UNK         0.0000 
     18 C18         1.3077   53.1501   24.8000 C.3       1 UNK         0.0000 
     19 N19         1.2988   52.8654   26.2377 N.am      1 UNK         0.0000 
     20 C20         0.0758   52.1570   26.6318 C.3       1 UNK         0.0000 
     21 C21        -0.5845   51.6885   25.3072 C.3       1 UNK         0.0000 
     22 C22        -2.1294   51.6108   25.3685 C.3       1 UNK         0.0000 
     23 C23        -2.6013   50.6182   26.4438 C.3       1 UNK         0.0000 
     24 N24        -2.0448   49.2260   26.0806 N.4       1 UNK         0.0000 
     25 C25        -0.5138   49.1721   25.8958 C.3       1 UNK         0.0000 
     26 C26        -0.1043   50.2546   24.8945 C.3       1 UNK         0.0000 
     27 C27         2.2673   53.1915   27.1458 C.2       1 UNK         0.0000 
     28 O28         2.1208   52.9895   28.3535 O.2       1 UNK         0.0000 
     29 C29         3.5363   53.7301   26.6769 C.2       1 UNK         0.0000 
     30 C30         4.6722   54.1343   27.3679 C.2       1 UNK         0.0000 
     31 C31         5.6288   54.4986   26.4120 C.2       1 UNK         0.0000 
     32 C32         5.0492   54.3095   25.1631 C.2       1 UNK         0.0000 
     33 O33         3.7928   53.8436   25.3482 O.3       1 UNK         0.0000 
     34 C34         5.4776   54.4940   23.7444 C.ar      1 UNK         0.0000 
     35 C35         6.7044   55.0904   23.4547 C.ar      1 UNK         0.0000 
     36 C36         7.0913   55.2967   22.1315 C.ar      1 UNK         0.0000 
     37 C37         6.2474   54.9041   21.0955 C.ar      1 UNK         0.0000 
     38 C38         5.0254   54.2996   21.3697 C.ar      1 UNK         0.0000 
     39 C39         4.6416   54.0962   22.6923 C.ar      1 UNK         0.0000 
     40 F40         6.6201   55.1184   19.8134 F         1 UNK         0.0000 
     41 H41         1.4983   46.3343   15.4963 H         1 UNK         0.0000 
     42 H42         2.6897   45.4845   16.4813 H         1 UNK         0.0000 
     43 H43         1.2258   44.6513   15.9520 H         1 UNK         0.0000 
     44 H44        -0.5155   44.5073   17.5270 H         1 UNK         0.0000 
     45 H45        -1.7308   45.2156   19.5098 H         1 UNK         0.0000 
     46 H46        -1.0777   47.2469   20.7538 H         1 UNK         0.0000 
     47 H47         3.0080   49.9008   19.0062 H         1 UNK         0.0000 
     48 H48         2.9971   48.1938   17.3367 H         1 UNK         0.0000 
     49 H49        -0.2651   49.6788   21.2632 H         1 UNK         0.0000 
     50 H50         1.2706   49.3097   22.0035 H         1 UNK         0.0000 
     51 H51         2.2504   51.3249   20.7100 H         1 UNK         0.0000 
     52 H52         0.6335   51.7309   20.2071 H         1 UNK         0.0000 
     53 H53         1.9103   52.0245   22.8100 H         1 UNK         0.0000 
     54 H54         2.0592   52.4677   24.4043 H         1 UNK         0.0000 
     55 H55         1.5321   54.1927   24.5692 H         1 UNK         0.0000 
     56 H56        -0.5802   52.8976   27.0952 H         1 UNK         0.0000 
     57 H57         0.2090   51.3552   27.3588 H         1 UNK         0.0000 
     58 H58        -2.5281   52.5945   25.6221 H         1 UNK         0.0000 
     59 H59        -2.5557   51.3699   24.3915 H         1 UNK         0.0000 
     60 H60        -2.2318   50.8459   27.4475 H         1 UNK         0.0000 
     61 H61        -3.6886   50.5151   26.4789 H         1 UNK         0.0000 
     62 H62        -2.2257   48.6014   26.8628 H         1 UNK         0.0000 
     63 H63        -0.0761   49.2996   26.8818 H         1 UNK         0.0000 
     64 H64        -0.2786   48.1615   25.5544 H         1 UNK         0.0000 
     65 H65        -0.4844   49.9663   23.9128 H         1 UNK         0.0000 
     66 H66         0.9822   50.2337   24.8030 H         1 UNK         0.0000 
     67 H67         4.7955   54.1501   28.4423 H         1 UNK         0.0000 
     68 H68         6.6257   54.8569   26.6137 H         1 UNK         0.0000 
     69 H69         7.3696   55.4002   24.2478 H         1 UNK         0.0000 
     70 H70         8.0443   55.7553   21.9104 H         1 UNK         0.0000 
     71 H71         4.3778   54.0007   20.5597 H         1 UNK         0.0000 
     72 H72         3.6845   53.6360   22.8877 H         1 UNK         0.0000 
     73 H73        -2.5125   48.8558   25.2635 H         1 UNK         0.0000 
@<TRIPOS>BOND
     1    1   41 1    
     2    1   42 1    
     3    1   43 1    
     4    1    2 1    
     5    2   10 ar   
     6    2    3 ar   
     7    3   44 1    
     8    3    4 ar   
     9    4   45 1    
    10    4    5 ar   
    11    5   46 1    
    12    5    6 ar   
    13    6   10 ar   
    14    6    7 ar   
    15    7   11 1    
    16    7    8 ar   
    17    8    9 ar   
    18    8   47 1    
    19    9   48 1    
    20    9   10 ar   
    21   11   12 1    
    22   11   49 1    
    23   11   50 1    
    24   12   13 1    
    25   12   51 1    
    26   12   52 1    
    27   13   14 am   BACKBONE|DICT|INTERRES
    28   13   53 1    
    29   14   15 2    
    30   14   16 1    
    31   16   17 1    
    32   16   21 1    
    33   16   18 1    
    34   18   19 1    
    35   18   54 1    
    36   18   55 1    
    37   19   20 1    
    38   19   27 am   BACKBONE|DICT|INTERRES
    39   20   21 1    
    40   20   56 1    
    41   20   57 1    
    42   21   26 1    
    43   21   22 1    
    44   22   23 1    
    45   22   58 1    
    46   22   59 1    
    47   23   24 1    
    48   23   60 1    
    49   23   61 1    
    50   24   25 1    
    51   24   62 1    
    52   24   73 1    
    53   25   26 1    
    54   25   63 1    
    55   25   64 1    
    56   26   65 1    
    57   26   66 1    
    58   27   28 2    
    59   27   29 1    
    60   29   33 1    
    61   29   30 2    
    62   30   31 1    
    63   30   67 1    
    64   31   32 2    
    65   31   68 1    
    66   32   33 1    
    67   32   34 1    
    68   34   39 ar   
    69   34   35 ar   
    70   35   36 ar   
    71   35   69 1    
    72   36   37 ar   
    73   36   70 1    
    74   37   38 ar   
    75   37   40 1    
    76   38   39 ar   
    77   38   71 1    
    78   39   72 1    
@<TRIPOS>SUBSTRUCTURE
     1 UNK         1 GROUP             0       ****    0 ROOT    
