@<TRIPOS>MOLECULE
ZINC54691222_4809
44   46    1
SMALL
USER_CHARGES


@<TRIPOS>ATOM
      1 C1          0.7050   49.6965   24.1373 C.3       1 UNK         0.0000 
      2 C2         -0.1835   49.4998   25.3820 C.3       1 UNK         0.0000 
      3 H3         -0.0595   48.4670   25.7164 H         1 UNK         0.0000 
      4 C4         -1.6885   49.7041   25.0921 C.3       1 UNK         0.0000 
      5 C5         -2.0264   51.1857   24.8074 C.3       1 UNK         0.0000 
      6 C6         -1.5272   52.1158   25.9384 C.3       1 UNK         0.0000 
      7 C7         -0.0343   51.8878   26.2830 C.3       1 UNK         0.0000 
      8 H8          0.5802   52.2191   25.4470 H         1 UNK         0.0000 
      9 C9          0.2145   50.3926   26.5800 C.3       1 UNK         0.0000 
     10 S10         0.4429   52.8735   27.7324 S.3       1 UNK         0.0000 
     11 C11         2.1632   53.3267   27.5974 C.ar      1 UNK         0.0000 
     12 C12         3.0504   53.3084   28.7101 C.ar      1 UNK         0.0000 
     13 C13         4.3770   53.7212   28.4651 C.ar      1 UNK         0.0000 
     14 C14         4.7758   54.1317   27.1971 C.ar      1 UNK         0.0000 
     15 C15         3.8428   54.0942   26.1733 C.ar      1 UNK         0.0000 
     16 N16         2.5590   53.6967   26.3490 N.ar      1 UNK         0.0000 
     17 C17         4.4727   54.4736   24.8546 C.3       1 UNK         0.0000 
     18 C18         5.8338   55.0511   25.2628 C.3       1 UNK         0.0000 
     19 C19         6.1339   54.5414   26.6778 C.3       1 UNK         0.0000 
     20 C20         2.7082   52.8482   30.0814 C.2       1 UNK         0.0000 
     21 N21         3.5517   52.0953   30.6694 N.2       1 UNK         0.0000 
     22 O22         3.2057   51.6967   31.9764 O.3       1 UNK         0.0000 
     23 N23         1.5007   53.3539   30.5280 N.pl3     1 UNK         0.0000 
     24 H24         0.6285   50.6994   23.7195 H         1 UNK         0.0000 
     25 H25         1.7529   49.5194   24.3717 H         1 UNK         0.0000 
     26 H26         0.4302   48.9945   23.3498 H         1 UNK         0.0000 
     27 H27        -1.9940   49.0921   24.2427 H         1 UNK         0.0000 
     28 H28        -2.2737   49.3578   25.9465 H         1 UNK         0.0000 
     29 H29        -3.1038   51.3009   24.6833 H         1 UNK         0.0000 
     30 H30        -1.5815   51.4914   23.8604 H         1 UNK         0.0000 
     31 H31        -2.1357   51.9344   26.8260 H         1 UNK         0.0000 
     32 H32        -1.6973   53.1551   25.6567 H         1 UNK         0.0000 
     33 H33         1.2509   50.2339   26.8766 H         1 UNK         0.0000 
     34 H34        -0.3823   50.0996   27.4449 H         1 UNK         0.0000 
     35 H35         5.1068   53.7172   29.2641 H         1 UNK         0.0000 
     36 H36         3.8783   55.1952   24.2953 H         1 UNK         0.0000 
     37 H37         4.5997   53.5937   24.2227 H         1 UNK         0.0000 
     38 H38         5.7702   56.1408   25.2777 H         1 UNK         0.0000 
     39 H39         6.6214   54.7953   24.5511 H         1 UNK         0.0000 
     40 H40         6.8014   53.6804   26.6326 H         1 UNK         0.0000 
     41 H41         6.6165   55.3069   27.2871 H         1 UNK         0.0000 
     42 H42         2.3683   52.1362   32.1389 H         1 UNK         0.0000 
     43 H43         1.0602   53.0411   31.3787 H         1 UNK         0.0000 
     44 H44         0.9080   53.8174   29.8548 H         1 UNK         0.0000 
@<TRIPOS>BOND
     1    1    2 1    
     2    1   24 1    
     3    1   25 1    
     4    1   26 1    
     5    2    3 1    
     6    2    9 1    
     7    2    4 1    
     8    4    5 1    
     9    4   27 1    
    10    4   28 1    
    11    5    6 1    
    12    5   29 1    
    13    5   30 1    
    14    6    7 1    
    15    6   31 1    
    16    6   32 1    
    17    7    8 1    
    18    7    9 1    
    19    7   10 1    
    20    9   33 1    
    21    9   34 1    
    22   10   11 1    
    23   11   16 ar   
    24   11   12 ar   
    25   12   13 ar   
    26   12   20 1    
    27   13   14 ar   
    28   13   35 1    
    29   14   19 1    
    30   14   15 ar   
    31   15   16 ar   
    32   15   17 1    
    33   17   18 1    
    34   17   36 1    
    35   17   37 1    
    36   18   19 1    
    37   18   38 1    
    38   18   39 1    
    39   19   40 1    
    40   19   41 1    
    41   20   21 2    
    42   20   23 1    
    43   21   22 1    
    44   22   42 1    
    45   23   43 1    
    46   23   44 1    
@<TRIPOS>SUBSTRUCTURE
     1 UNK         1 GROUP             0       ****    0 ROOT    
