@<TRIPOS>MOLECULE
ZINC39690270_399
76   80    1
SMALL
USER_CHARGES


@<TRIPOS>ATOM
      1 C1          0.1370   57.2608   16.2829 C.3       1 UNK         0.0000 
      2 C2         -0.1899   55.7878   16.3371 C.ar      1 UNK         0.0000 
      3 C3         -0.2736   54.9513   17.4460 C.ar      1 UNK         0.0000 
      4 C4         -0.6206   53.6948   16.9805 C.ar      1 UNK         0.0000 
      5 N5         -0.6657   53.8315   15.5967 N.pl3     1 UNK         0.0000 
      6 N6         -0.4404   55.1169   15.2382 N.2       1 UNK         0.0000 
      7 C7         -0.9903   52.8262   14.5292 C.3       1 UNK         0.0000 
      8 C8         -0.5328   53.3207   13.1246 C.3       1 UNK         0.0000 
      9 C9         -2.5227   52.6247   14.4999 C.3       1 UNK         0.0000 
     10 C10        -0.2598   51.4821   14.7878 C.3       1 UNK         0.0000 
     11 C11        -0.8573   52.5075   17.7579 C.2       1 UNK         0.0000 
     12 O12        -2.0079   52.0831   17.8791 O.2       1 UNK         0.0000 
     13 N13         0.2241   51.9084   18.3188 N.am      1 UNK         0.0000 
     14 C14         1.5872   52.4508   18.3698 C.3       1 UNK         0.0000 
     15 C15         2.3675   51.4360   19.2455 C.3       1 UNK         0.0000 
     16 H16         2.8725   50.7717   18.5390 H         1 UNK         0.0000 
     17 C17         1.2760   50.7083   20.0868 C.3       1 UNK         0.0000 
     18 C18         0.0938   50.6784   19.0957 C.3       1 UNK         0.0000 
     19 C19         1.6352   49.2462   20.4735 C.3       1 UNK         0.0000 
     20 C20         2.4652   49.1141   21.7537 C.3       1 UNK         0.0000 
     21 N21         1.7056   49.7633   22.9144 N.4       1 UNK         0.0000 
     22 C22         1.5383   51.2717   22.6730 C.3       1 UNK         0.0000 
     23 C23         0.7821   51.5129   21.3468 C.3       1 UNK         0.0000 
     24 C24         3.5171   52.1159   20.0435 C.2       1 UNK         0.0000 
     25 O25         4.3691   51.4061   20.5742 O.2       1 UNK         0.0000 
     26 N26         3.6170   53.4544   20.1090 N.am      1 UNK         0.0000 
     27 C27         4.6873   54.1603   20.8254 C.3       1 UNK         0.0000 
     28 C28         4.5600   54.1705   22.3503 C.ar      1 UNK         0.0000 
     29 C29         3.3071   54.2766   22.9576 C.ar      1 UNK         0.0000 
     30 C30         3.2012   54.3303   24.3433 C.ar      1 UNK         0.0000 
     31 C31         4.3481   54.2828   25.1518 C.ar      1 UNK         0.0000 
     32 C32         5.6031   54.1638   24.5342 C.ar      1 UNK         0.0000 
     33 C33         5.7060   54.0977   23.1465 C.ar      1 UNK         0.0000 
     34 N34         4.2372   54.3584   26.5723 N.pl3     1 UNK         0.0000 
     35 C35         5.2591   54.4040   27.5084 C.ar      1 UNK         0.0000 
     36 C36         4.7411   54.4955   28.7939 C.ar      1 UNK         0.0000 
     37 C37         3.3559   54.4929   28.6709 C.ar      1 UNK         0.0000 
     38 C38         3.0718   54.4140   27.3179 C.ar      1 UNK         0.0000 
     39 H39         0.3428   57.6671   17.2736 H         1 UNK         0.0000 
     40 H40         1.0182   57.4593   15.6690 H         1 UNK         0.0000 
     41 H41        -0.6850   57.8425   15.8659 H         1 UNK         0.0000 
     42 H42        -0.1058   55.2295   18.4783 H         1 UNK         0.0000 
     43 H43        -0.7486   52.5844   12.3466 H         1 UNK         0.0000 
     44 H44         0.5424   53.5142   13.0952 H         1 UNK         0.0000 
     45 H45        -1.0391   54.2416   12.8284 H         1 UNK         0.0000 
     46 H46        -2.8960   52.1990   15.4326 H         1 UNK         0.0000 
     47 H47        -3.0473   53.5708   14.3441 H         1 UNK         0.0000 
     48 H48        -2.8240   51.9507   13.6950 H         1 UNK         0.0000 
     49 H49        -0.6766   50.9230   15.6247 H         1 UNK         0.0000 
     50 H50        -0.3351   50.8172   13.9249 H         1 UNK         0.0000 
     51 H51         0.8038   51.6344   14.9823 H         1 UNK         0.0000 
     52 H52         2.0325   52.5620   17.3787 H         1 UNK         0.0000 
     53 H53         1.4809   53.4039   18.8821 H         1 UNK         0.0000 
     54 H54        -0.8681   50.5056   19.5828 H         1 UNK         0.0000 
     55 H55         0.2657   49.8517   18.4048 H         1 UNK         0.0000 
     56 H56         0.7065   48.7064   20.6736 H         1 UNK         0.0000 
     57 H57         2.0820   48.7095   19.6337 H         1 UNK         0.0000 
     58 H58         2.6820   48.0950   22.0415 H         1 UNK         0.0000 
     59 H59         3.4140   49.6253   21.6828 H         1 UNK         0.0000 
     60 H60         0.8028   49.3241   23.0281 H         1 UNK         0.0000 
     61 H61         1.0077   51.6750   23.5377 H         1 UNK         0.0000 
     62 H62         2.5480   51.6801   22.6627 H         1 UNK         0.0000 
     63 H63         0.6491   52.5730   21.1212 H         1 UNK         0.0000 
     64 H64        -0.2290   51.1756   21.5808 H         1 UNK         0.0000 
     65 H65         2.8655   54.0272   19.7481 H         1 UNK         0.0000 
     66 H66         5.6520   53.7378   20.5361 H         1 UNK         0.0000 
     67 H67         4.7052   55.1955   20.4843 H         1 UNK         0.0000 
     68 H68         2.4124   54.3421   22.3554 H         1 UNK         0.0000 
     69 H69         2.2107   54.4286   24.7561 H         1 UNK         0.0000 
     70 H70         6.5149   54.1092   25.1071 H         1 UNK         0.0000 
     71 H71         6.6844   54.0149   22.6952 H         1 UNK         0.0000 
     72 H72         6.2913   54.3829   27.2004 H         1 UNK         0.0000 
     73 H73         5.3024   54.5622   29.7158 H         1 UNK         0.0000 
     74 H74         2.6347   54.5523   29.4738 H         1 UNK         0.0000 
     75 H75         2.1098   54.3878   26.8331 H         1 UNK         0.0000 
     76 H76         2.2184   49.5927   23.7715 H         1 UNK         0.0000 
@<TRIPOS>BOND
     1    1    2 1    
     2    1   39 1    
     3    1   40 1    
     4    1   41 1    
     5    2    6 ar   
     6    2    3 ar   
     7    3    4 ar   
     8    3   42 1    
     9    4    5 ar   
    10    4   11 1    
    11    5    6 ar   
    12    5    7 1    
    13    7    8 1    
    14    7    9 1    
    15    7   10 1    
    16    8   43 1    
    17    8   44 1    
    18    8   45 1    
    19    9   46 1    
    20    9   47 1    
    21    9   48 1    
    22   10   49 1    
    23   10   50 1    
    24   10   51 1    
    25   11   12 2    
    26   11   13 am   BACKBONE|DICT|INTERRES
    27   13   18 1    
    28   13   14 1    
    29   14   15 1    
    30   14   52 1    
    31   14   53 1    
    32   15   16 1    
    33   15   17 1    
    34   15   24 1    
    35   17   23 1    
    36   17   18 1    
    37   17   19 1    
    38   18   54 1    
    39   18   55 1    
    40   19   20 1    
    41   19   56 1    
    42   19   57 1    
    43   20   21 1    
    44   20   58 1    
    45   20   59 1    
    46   21   22 1    
    47   21   60 1    
    48   21   76 1    
    49   22   23 1    
    50   22   61 1    
    51   22   62 1    
    52   23   63 1    
    53   23   64 1    
    54   24   25 2    
    55   24   26 am   BACKBONE|DICT|INTERRES
    56   26   27 1    
    57   26   65 1    
    58   27   28 1    
    59   27   66 1    
    60   27   67 1    
    61   28   33 ar   
    62   28   29 ar   
    63   29   30 ar   
    64   29   68 1    
    65   30   31 ar   
    66   30   69 1    
    67   31   32 ar   
    68   31   34 1    
    69   32   33 ar   
    70   32   70 1    
    71   33   71 1    
    72   34   38 ar   
    73   34   35 ar   
    74   35   36 ar   
    75   35   72 1    
    76   36   37 ar   
    77   36   73 1    
    78   37   38 ar   
    79   37   74 1    
    80   38   75 1    
@<TRIPOS>SUBSTRUCTURE
     1 UNK         1 GROUP             0       ****    0 ROOT    
