@<TRIPOS>MOLECULE
ZINC66083190_3040
64   66    1
SMALL
USER_CHARGES


@<TRIPOS>ATOM
      1 C1          1.4710   51.0779   28.1722 C.3       1 UNK         0.0000 
      2 C2          1.6041   52.4415   27.4852 C.3       1 UNK         0.0000 
      3 N3          1.7064   53.5760   28.4220 N.am      1 UNK         0.0000 
      4 C4          0.4826   53.8200   29.2056 C.3       1 UNK         0.0000 
      5 C5          0.5051   53.2724   30.6428 C.3       1 UNK         0.0000 
      6 C6          2.8567   54.2802   28.6335 C.2       1 UNK         0.0000 
      7 O7          3.0662   54.8939   29.6814 O.2       1 UNK         0.0000 
      8 C8          3.8934   54.3681   27.5284 C.ar      1 UNK         0.0000 
      9 C9          5.2583   54.4051   27.8412 C.ar      1 UNK         0.0000 
     10 C10         6.2125   54.4969   26.8269 C.ar      1 UNK         0.0000 
     11 C11         5.8146   54.5747   25.4900 C.ar      1 UNK         0.0000 
     12 C12         4.4525   54.5773   25.1796 C.ar      1 UNK         0.0000 
     13 C13         3.5045   54.4809   26.1877 C.ar      1 UNK         0.0000 
     14 N14         6.8055   54.6336   24.4957 N.pl3     1 UNK         0.0000 
     15 C15         6.6315   55.0651   23.1207 C.3       1 UNK         0.0000 
     16 C16         5.8189   54.0966   22.2418 C.2       1 UNK         0.0000 
     17 O17         5.8439   52.8918   22.4867 O.2       1 UNK         0.0000 
     18 N18         5.1698   54.6112   21.1762 N.am      1 UNK         0.0000 
     19 C19         4.4507   53.8825   20.2081 C.ar      1 UNK         0.0000 
     20 C20         4.4645   54.3633   18.8976 C.ar      1 UNK         0.0000 
     21 C21         3.7972   53.6704   17.8885 C.ar      1 UNK         0.0000 
     22 C22         3.1031   52.4969   18.1813 C.ar      1 UNK         0.0000 
     23 C23         3.0527   52.0042   19.4955 C.ar      1 UNK         0.0000 
     24 C24         3.7209   52.7172   20.5019 C.ar      1 UNK         0.0000 
     25 C25         2.2735   50.7573   19.8455 C.2       1 UNK         0.0000 
     26 O26         1.7542   50.6607   20.9589 O.2       1 UNK         0.0000 
     27 N27         2.2145   49.8078   18.8831 N.am      1 UNK         0.0000 
     28 C28         1.4514   48.6176   18.8434 C.ar      1 UNK         0.0000 
     29 C29         0.5212   48.2244   19.8205 C.ar      1 UNK         0.0000 
     30 C30        -0.1846   47.0296   19.6817 C.ar      1 UNK         0.0000 
     31 C31         0.0374   46.2042   18.5808 C.ar      1 UNK         0.0000 
     32 C32         0.9523   46.5796   17.5919 C.ar      1 UNK         0.0000 
     33 C33         1.6327   47.7946   17.7259 C.ar      1 UNK         0.0000 
     34 C34         1.2167   45.6839   16.3827 C.3       1 UNK         0.0000 
     35 F35         2.5038   45.7143   16.0342 F         1 UNK         0.0000 
     36 F36         0.8906   44.4143   16.6318 F         1 UNK         0.0000 
     37 F37         0.4853   46.1112   15.3529 F         1 UNK         0.0000 
     38 H38         1.5036   50.2852   27.4252 H         1 UNK         0.0000 
     39 H39         0.5203   50.9769   28.6973 H         1 UNK         0.0000 
     40 H40         2.2829   50.9051   28.8797 H         1 UNK         0.0000 
     41 H41         2.4677   52.3673   26.8279 H         1 UNK         0.0000 
     42 H42         0.7467   52.6021   26.8299 H         1 UNK         0.0000 
     43 H43         0.3087   54.8956   29.2464 H         1 UNK         0.0000 
     44 H44        -0.3793   53.4050   28.6803 H         1 UNK         0.0000 
     45 H45        -0.4953   53.2784   31.0753 H         1 UNK         0.0000 
     46 H46         0.8808   52.2486   30.6954 H         1 UNK         0.0000 
     47 H47         1.1140   53.8995   31.2906 H         1 UNK         0.0000 
     48 H48         5.5908   54.3507   28.8690 H         1 UNK         0.0000 
     49 H49         7.2584   54.4923   27.0928 H         1 UNK         0.0000 
     50 H50         4.1012   54.6557   24.1636 H         1 UNK         0.0000 
     51 H51         2.4615   54.4878   25.9083 H         1 UNK         0.0000 
     52 H52         7.7278   54.8131   24.8601 H         1 UNK         0.0000 
     53 H53         6.3044   56.0968   23.0324 H         1 UNK         0.0000 
     54 H54         7.5934   55.0620   22.6115 H         1 UNK         0.0000 
     55 H55         5.2778   55.5957   20.9958 H         1 UNK         0.0000 
     56 H56         5.0070   55.2634   18.6469 H         1 UNK         0.0000 
     57 H57         3.8259   54.0373   16.8740 H         1 UNK         0.0000 
     58 H58         2.5998   51.9808   17.3757 H         1 UNK         0.0000 
     59 H59         3.6706   52.3549   21.5187 H         1 UNK         0.0000 
     60 H60         2.8313   49.9459   18.0893 H         1 UNK         0.0000 
     61 H61         0.3167   48.8253   20.6913 H         1 UNK         0.0000 
     62 H62        -0.8996   46.7379   20.4361 H         1 UNK         0.0000 
     63 H63        -0.5131   45.2799   18.4941 H         1 UNK         0.0000 
     64 H64         2.3044   48.0989   16.9381 H         1 UNK         0.0000 
@<TRIPOS>BOND
     1    1    2 1    
     2    1   38 1    
     3    1   39 1    
     4    1   40 1    
     5    2    3 1    
     6    2   41 1    
     7    2   42 1    
     8    3    4 1    
     9    3    6 am   BACKBONE|DICT|INTERRES
    10    4    5 1    
    11    4   43 1    
    12    4   44 1    
    13    5   45 1    
    14    5   46 1    
    15    5   47 1    
    16    6    7 2    
    17    6    8 1    
    18    8   13 ar   
    19    8    9 ar   
    20    9   10 ar   
    21    9   48 1    
    22   10   11 ar   
    23   10   49 1    
    24   11   12 ar   
    25   11   14 1    
    26   12   13 ar   
    27   12   50 1    
    28   13   51 1    
    29   14   15 1    
    30   14   52 1    
    31   15   16 1    
    32   15   53 1    
    33   15   54 1    
    34   16   17 2    
    35   16   18 am   BACKBONE|DICT|INTERRES
    36   18   19 1    
    37   18   55 1    
    38   19   24 ar   
    39   19   20 ar   
    40   20   21 ar   
    41   20   56 1    
    42   21   22 ar   
    43   21   57 1    
    44   22   23 ar   
    45   22   58 1    
    46   23   24 ar   
    47   23   25 1    
    48   24   59 1    
    49   25   26 2    
    50   25   27 am   BACKBONE|DICT|INTERRES
    51   27   28 1    
    52   27   60 1    
    53   28   33 ar   
    54   28   29 ar   
    55   29   30 ar   
    56   29   61 1    
    57   30   31 ar   
    58   30   62 1    
    59   31   32 ar   
    60   31   63 1    
    61   32   33 ar   
    62   32   34 1    
    63   33   64 1    
    64   34   35 1    
    65   34   36 1    
    66   34   37 1    
@<TRIPOS>SUBSTRUCTURE
     1 UNK         1 GROUP             0       ****    0 ROOT    
