@<TRIPOS>MOLECULE
ZINC12250455_4935
59   62    1
SMALL
USER_CHARGES


@<TRIPOS>ATOM
      1 C1         -1.2116   51.2950   27.4117 C.3       1 UNK         0.0000 
      2 C2         -1.3094   51.7410   25.9631 C.ar      1 UNK         0.0000 
      3 C3         -2.5565   51.9033   25.3558 C.ar      1 UNK         0.0000 
      4 C4         -2.6386   52.2778   24.0155 C.ar      1 UNK         0.0000 
      5 C5         -1.4751   52.4966   23.2778 C.ar      1 UNK         0.0000 
      6 C6         -0.2179   52.3660   23.8749 C.ar      1 UNK         0.0000 
      7 C7         -0.1459   51.9671   25.2220 C.ar      1 UNK         0.0000 
      8 N8          0.9122   52.6007   23.0623 N.am      1 UNK         0.0000 
      9 C9          2.1630   52.9374   23.4534 C.2       1 UNK         0.0000 
     10 O10         2.4346   53.1970   24.6230 O.2       1 UNK         0.0000 
     11 C11         3.1688   53.0075   22.3895 C.2       1 UNK         0.0000 
     12 C12         3.2389   52.0894   21.3741 C.2       1 UNK         0.0000 
     13 N13         4.1221   52.2623   20.3308 N.pl3     1 UNK         0.0000 
     14 C14         4.9435   53.3512   20.1918 C.2       1 UNK         0.0000 
     15 C15         4.9891   54.3173   21.1327 C.2       1 UNK         0.0000 
     16 C16         4.1350   54.2444   22.4200 C.3       1 UNK         0.0000 
     17 H17         3.4980   55.1289   22.3878 H         1 UNK         0.0000 
     18 C18         5.0298   54.3612   23.6605 C.2       1 UNK         0.0000 
     19 C19         6.3682   54.0966   23.9344 C.2       1 UNK         0.0000 
     20 C20         6.5902   54.4183   25.2740 C.2       1 UNK         0.0000 
     21 C21         5.3940   54.9002   25.7599 C.2       1 UNK         0.0000 
     22 O22         4.4633   54.8959   24.7763 O.3       1 UNK         0.0000 
     23 C23         5.9047   55.4065   20.9757 C.1       1 UNK         0.0000 
     24 N24         6.6506   56.2884   20.8817 N.1       1 UNK         0.0000 
     25 S25         5.9007   53.3024   18.6857 S.3       1 UNK         0.0000 
     26 C26         4.6238   53.1208   17.3886 C.3       1 UNK         0.0000 
     27 C27         3.6233   54.2852   17.3244 C.2       1 UNK         0.0000 
     28 O28         4.0000   55.4294   17.5852 O.2       1 UNK         0.0000 
     29 N29         2.3535   53.9614   16.9962 N.am      1 UNK         0.0000 
     30 C30         1.2538   54.8339   16.9043 C.ar      1 UNK         0.0000 
     31 C31         1.3578   56.1693   16.4815 C.ar      1 UNK         0.0000 
     32 C32         0.2329   56.9945   16.4768 C.ar      1 UNK         0.0000 
     33 C33        -1.0040   56.4928   16.8799 C.ar      1 UNK         0.0000 
     34 C34        -1.1192   55.1621   17.2784 C.ar      1 UNK         0.0000 
     35 C35         0.0029   54.3319   17.2798 C.ar      1 UNK         0.0000 
     36 F36        -2.3180   54.6817   17.6806 F         1 UNK         0.0000 
     37 C37         2.4662   50.7779   21.2422 C.3       1 UNK         0.0000 
     38 H38        -2.1552   50.8930   27.7835 H         1 UNK         0.0000 
     39 H39        -0.8970   52.1213   28.0492 H         1 UNK         0.0000 
     40 H40        -0.4738   50.4977   27.5113 H         1 UNK         0.0000 
     41 H41        -3.4625   51.7259   25.9170 H         1 UNK         0.0000 
     42 H42        -3.6051   52.3898   23.5473 H         1 UNK         0.0000 
     43 H43        -1.5606   52.7771   22.2388 H         1 UNK         0.0000 
     44 H44         0.8060   51.8104   25.7058 H         1 UNK         0.0000 
     45 H45         0.7587   52.5509   22.0675 H         1 UNK         0.0000 
     46 H46         4.1903   51.5422   19.6200 H         1 UNK         0.0000 
     47 H47         7.0960   53.6943   23.2452 H         1 UNK         0.0000 
     48 H48         7.5044   54.3058   25.8306 H         1 UNK         0.0000 
     49 H49         5.0702   55.2662   26.7230 H         1 UNK         0.0000 
     50 H50         5.1345   53.0660   16.4277 H         1 UNK         0.0000 
     51 H51         4.1143   52.1644   17.5153 H         1 UNK         0.0000 
     52 H52         2.1414   52.9791   16.9135 H         1 UNK         0.0000 
     53 H53         2.3063   56.5837   16.1720 H         1 UNK         0.0000 
     54 H54         0.3260   58.0278   16.1739 H         1 UNK         0.0000 
     55 H55        -1.8715   57.1355   16.8833 H         1 UNK         0.0000 
     56 H56        -0.1012   53.3087   17.6090 H         1 UNK         0.0000 
     57 H57         1.6680   50.8805   20.5070 H         1 UNK         0.0000 
     58 H58         3.1206   49.9694   20.9145 H         1 UNK         0.0000 
     59 H59         2.0306   50.4439   22.1833 H         1 UNK         0.0000 
@<TRIPOS>BOND
     1    1    2 1    
     2    1   38 1    
     3    1   39 1    
     4    1   40 1    
     5    2    7 ar   
     6    2    3 ar   
     7    3    4 ar   
     8    3   41 1    
     9    4    5 ar   
    10    4   42 1    
    11    5    6 ar   
    12    5   43 1    
    13    6    7 ar   
    14    6    8 1    
    15    7   44 1    
    16    8    9 am   BACKBONE|DICT|INTERRES
    17    8   45 1    
    18    9   10 2    
    19    9   11 1    
    20   11   16 1    
    21   11   12 2    
    22   12   13 1    
    23   12   37 1    
    24   13   14 1    
    25   13   46 1    
    26   14   15 2    
    27   14   25 1    
    28   15   16 1    
    29   15   23 1    
    30   16   17 1    
    31   16   18 1    
    32   18   22 1    
    33   18   19 2    
    34   19   20 1    
    35   19   47 1    
    36   20   21 2    
    37   20   48 1    
    38   21   22 1    
    39   21   49 1    
    40   23   24 3    
    41   25   26 1    
    42   26   27 1    
    43   26   50 1    
    44   26   51 1    
    45   27   28 2    
    46   27   29 am   BACKBONE|DICT|INTERRES
    47   29   30 1    
    48   29   52 1    
    49   30   35 ar   
    50   30   31 ar   
    51   31   32 ar   
    52   31   53 1    
    53   32   33 ar   
    54   32   54 1    
    55   33   34 ar   
    56   33   55 1    
    57   34   35 ar   
    58   34   36 1    
    59   35   56 1    
    60   37   57 1    
    61   37   58 1    
    62   37   59 1    
@<TRIPOS>SUBSTRUCTURE
     1 UNK         1 GROUP             0       ****    0 ROOT    
