ZINC61827665_1660
                    3D
 Schrodinger Suite 2024-2.
 46 46  0  0  1  0            999 V2000
    3.4162   55.0216   17.3085 C   0  0  0  0  0  0
    4.5726   55.4479   18.2298 C   0  0  2  0  0  0
    4.4433   56.5023   18.4826 H   0  0  0  0  0  0
    5.9360   55.2866   17.5311 C   0  0  0  0  0  0
    7.0689   55.8219   18.4232 C   0  0  0  0  0  0
    7.0973   55.1156   19.7960 C   0  0  0  0  0  0
    5.7138   55.0613   20.5059 C   0  0  1  0  0  0
    5.5044   56.1070   20.7428 H   0  0  0  0  0  0
    4.5825   54.6299   19.5409 C   0  0  0  0  0  0
    5.6690   54.3641   21.7991 N   0  0  0  0  0  0
    6.2889   54.7819   22.9163 C   0  0  0  0  0  0
    7.1044   55.6967   22.9003 O   0  0  0  0  0  0
    5.8328   54.1608   24.0243 N   0  0  0  0  0  0
    6.0566   54.5073   25.3169 C   0  0  0  0  0  0
    6.7045   55.4905   25.6840 O   0  0  0  0  0  0
    5.4711   53.5289   26.3590 C   0  0  0  0  0  0
    4.7143   54.0390   27.6277 C   0  0  0  0  0  0
    5.6743   54.8504   28.5314 C   0  0  0  0  0  0
    3.5035   54.8958   27.1761 C   0  0  0  0  0  0
    4.2253   52.7527   28.3897 C   0  0  0  0  0  0
    3.5437   52.9186   29.7621 C   0  0  0  0  0  0
    3.0688   54.0304   30.0818 O   0  0  0  0  0  0
    3.5016   51.8943   30.4819 O   0  5  0  0  0  0
    3.4925   53.9688   17.0330 H   0  0  0  0  0  0
    2.4495   55.1672   17.7916 H   0  0  0  0  0  0
    3.4099   55.6064   16.3878 H   0  0  0  0  0  0
    6.1057   54.2425   17.2609 H   0  0  0  0  0  0
    5.9303   55.8226   16.5808 H   0  0  0  0  0  0
    6.9425   56.8961   18.5677 H   0  0  0  0  0  0
    8.0291   55.6949   17.9215 H   0  0  0  0  0  0
    7.8465   55.5948   20.4273 H   0  0  0  0  0  0
    7.4374   54.0970   19.6246 H   0  0  0  0  0  0
    4.6836   53.5699   19.2992 H   0  0  0  0  0  0
    3.6106   54.7133   20.0278 H   0  0  0  0  0  0
    5.1744   53.4848   21.8076 H   0  0  0  0  0  0
    5.2383   53.3612   23.8806 H   0  0  0  0  0  0
    6.3019   52.8968   26.6696 H   0  0  0  0  0  0
    4.7651   52.8967   25.8309 H   0  0  0  0  0  0
    6.1114   55.6969   28.0153 H   0  0  0  0  0  0
    5.1817   55.2545   29.4150 H   0  0  0  0  0  0
    6.5005   54.2296   28.8808 H   0  0  0  0  0  0
    3.7857   55.6492   26.4415 H   0  0  0  0  0  0
    2.7352   54.2794   26.7082 H   0  0  0  0  0  0
    3.0318   55.4176   28.0079 H   0  0  0  0  0  0
    5.0814   52.0967   28.5513 H   0  0  0  0  0  0
    3.5233   52.1964   27.7676 H   0  0  0  0  0  0
  1  2  1  0  0  0
  1 24  1  0  0  0
  1 25  1  0  0  0
  1 26  1  0  0  0
  2  3  1  0  0  0
  2  9  1  0  0  0
  2  4  1  0  0  0
  4  5  1  0  0  0
  4 27  1  0  0  0
  4 28  1  0  0  0
  5  6  1  0  0  0
  5 29  1  0  0  0
  5 30  1  0  0  0
  6  7  1  0  0  0
  6 31  1  0  0  0
  6 32  1  0  0  0
  7  8  1  0  0  0
  7  9  1  0  0  0
  7 10  1  0  0  0
  9 33  1  0  0  0
  9 34  1  0  0  0
 10 11  1  0  0  0
 10 35  1  0  0  0
 11 12  2  0  0  0
 11 13  1  0  0  0
 13 14  1  0  0  0
 13 36  1  0  0  0
 14 15  2  0  0  0
 14 16  1  0  0  0
 16 17  1  0  0  0
 16 37  1  0  0  0
 16 38  1  0  0  0
 17 18  1  0  0  0
 17 19  1  0  0  0
 17 20  1  0  0  0
 18 39  1  0  0  0
 18 40  1  0  0  0
 18 41  1  0  0  0
 19 42  1  0  0  0
 19 43  1  0  0  0
 19 44  1  0  0  0
 20 21  1  0  0  0
 20 45  1  0  0  0
 20 46  1  0  0  0
 21 22  2  0  0  0
 21 23  1  0  0  0
M  CHG  1  23  -1
M  END
> <i_i_glide_confnum>
5

> <i_i_glide_lignum>
1661

> <i_i_glide_posenum>
294

> <i_i_glide_rotatable_bonds>
8

> <i_m_Source_File_Index>
2104

> <b_m_subgroup_collapsed>
0

> <r_i_docking_score>
-4.29966

> <r_i_glide_ecoul>
-9.42111

> <r_i_glide_eff_state_penalty>
0

> <r_i_glide_einternal>
3.89954

> <r_i_glide_emodel>
-46.353

> <r_i_glide_energy>
-36.5636

> <r_i_glide_erotb>
2.9027

> <r_i_glide_esite>
0

> <r_i_glide_evdw>
-27.1425

> <r_i_glide_gscore>
-4.29966

> <r_i_glide_hbond>
-0.64

> <r_i_glide_ligand_efficiency>
-0.204746

> <r_i_glide_ligand_efficiency_ln>
-1.06308

> <r_i_glide_ligand_efficiency_sa>
-0.564878

> <r_i_glide_lipo>
-1.289

> <r_i_glide_metal>
0

> <r_i_glide_rewards>
-2.50307

> <s_i_glide_gridfile>
wee1_glide-grid

> <s_m_Source_File>
wee1_decoys_glide_SP.sdf

> <s_m_Source_Path>
/Users/zhangxujun/Desktop

> <s_m_entry_id>
2379

> <s_m_entry_name>
wee1_decoys_glide_SP.2104

> <s_m_subgroup_title>
wee1_decoys_glide_SP

> <s_m_subgroupid>
wee1_decoys_glide_SP


$$$$
