@<TRIPOS>MOLECULE
ZINC38678739_4397
51   54    1
SMALL
USER_CHARGES


@<TRIPOS>ATOM
      1 C1         -0.7782   47.3373   18.7946 C.3       1 UNK         0.0000 
      2 C2         -0.6116   47.9059   20.2151 C.3       1 UNK         0.0000 
      3 H3          0.1718   47.3277   20.7037 H         1 UNK         0.0000 
      4 C4         -0.2129   49.3947   20.1711 C.2       1 UNK         0.0000 
      5 O5         -1.0606   50.2884   20.0917 O.2       1 UNK         0.0000 
      6 O6          1.1486   49.5512   20.2429 O.3       1 UNK         0.0000 
      7 C7          1.7649   50.7519   20.5618 C.ar      1 UNK         0.0000 
      8 C8          1.1876   51.7445   21.3656 C.ar      1 UNK         0.0000 
      9 C9          1.9017   52.8916   21.7012 C.ar      1 UNK         0.0000 
     10 C10         3.2469   53.0564   21.3547 C.ar      1 UNK         0.0000 
     11 C11         3.7609   52.1239   20.4418 C.ar      1 UNK         0.0000 
     12 C12         3.0588   50.9707   20.0800 C.ar      1 UNK         0.0000 
     13 O13         4.9413   52.3563   19.7802 O.3       1 UNK         0.0000 
     14 C14         5.4301   53.6118   19.7455 C.2       1 UNK         0.0000 
     15 C15         5.1219   54.5682   20.6397 C.2       1 UNK         0.0000 
     16 C16         4.1180   54.2661   21.7908 C.3       1 UNK         0.0000 
     17 H17         3.4643   55.1306   21.9015 H         1 UNK         0.0000 
     18 C18         4.7782   54.1121   23.1933 C.ar      1 UNK         0.0000 
     19 C19         6.1776   54.0902   23.2811 C.ar      1 UNK         0.0000 
     20 C20         6.8347   54.0976   24.5001 C.ar      1 UNK         0.0000 
     21 C21         6.1241   54.1064   25.6902 C.ar      1 UNK         0.0000 
     22 C22         4.7381   54.0958   25.6454 C.ar      1 UNK         0.0000 
     23 C23         4.0644   54.0968   24.4187 C.ar      1 UNK         0.0000 
     24 Br24        2.1738   54.0971   24.5548 Br        1 UNK         0.0000 
     25 C25         5.8995   55.7732   20.6223 C.1       1 UNK         0.0000 
     26 N26         6.5628   56.7243   20.5952 N.1       1 UNK         0.0000 
     27 N27         6.3193   53.6878   18.7126 N.pl3     1 UNK         0.0000 
     28 O28        -1.8550   47.6784   20.8934 O.3       1 UNK         0.0000 
     29 C29        -1.9372   47.7200   22.2783 C.ar      1 UNK         0.0000 
     30 C30        -0.8950   48.1426   23.1243 C.ar      1 UNK         0.0000 
     31 C31        -1.0472   48.1234   24.5113 C.ar      1 UNK         0.0000 
     32 C32        -2.2451   47.6958   25.0775 C.ar      1 UNK         0.0000 
     33 C33        -3.2916   47.2844   24.2508 C.ar      1 UNK         0.0000 
     34 C34        -3.1367   47.2944   22.8637 C.ar      1 UNK         0.0000 
     35 F35        -4.1622   46.8740   22.0849 F         1 UNK         0.0000 
     36 H36         0.1210   47.4824   18.1915 H         1 UNK         0.0000 
     37 H37        -0.9790   46.2649   18.8245 H         1 UNK         0.0000 
     38 H38        -1.6117   47.8119   18.2743 H         1 UNK         0.0000 
     39 H39         0.1799   51.6499   21.7401 H         1 UNK         0.0000 
     40 H40         1.3703   53.6645   22.2274 H         1 UNK         0.0000 
     41 H41         3.5054   50.2730   19.3830 H         1 UNK         0.0000 
     42 H42         6.8062   54.0968   22.4038 H         1 UNK         0.0000 
     43 H43         7.9040   54.0921   24.4856 H         1 UNK         0.0000 
     44 H44         6.6414   54.1022   26.6391 H         1 UNK         0.0000 
     45 H45         4.1753   54.0877   26.5658 H         1 UNK         0.0000 
     46 H46         6.7835   54.5543   18.4792 H         1 UNK         0.0000 
     47 H47         6.3614   52.9344   18.0406 H         1 UNK         0.0000 
     48 H48         0.0464   48.4942   22.7296 H         1 UNK         0.0000 
     49 H49        -0.2381   48.4459   25.1493 H         1 UNK         0.0000 
     50 H50        -2.3624   47.6931   26.1522 H         1 UNK         0.0000 
     51 H51        -4.2257   46.9646   24.6880 H         1 UNK         0.0000 
@<TRIPOS>BOND
     1    1    2 1    
     2    1   36 1    
     3    1   37 1    
     4    1   38 1    
     5    2    3 1    
     6    2    4 1    
     7    2   28 1    
     8    4    5 2    
     9    4    6 1    
    10    6    7 1    
    11    7   12 ar   
    12    7    8 ar   
    13    8    9 ar   
    14    8   39 1    
    15    9   10 ar   
    16    9   40 1    
    17   10   16 1    
    18   10   11 ar   
    19   11   12 ar   
    20   11   13 1    
    21   12   41 1    
    22   13   14 1    
    23   14   15 2    
    24   14   27 1    
    25   15   16 1    
    26   15   25 1    
    27   16   17 1    
    28   16   18 1    
    29   18   23 ar   
    30   18   19 ar   
    31   19   20 ar   
    32   19   42 1    
    33   20   21 ar   
    34   20   43 1    
    35   21   22 ar   
    36   21   44 1    
    37   22   23 ar   
    38   22   45 1    
    39   23   24 1    
    40   25   26 3    
    41   27   46 1    
    42   27   47 1    
    43   28   29 1    
    44   29   34 ar   
    45   29   30 ar   
    46   30   31 ar   
    47   30   48 1    
    48   31   32 ar   
    49   31   49 1    
    50   32   33 ar   
    51   32   50 1    
    52   33   34 ar   
    53   33   51 1    
    54   34   35 1    
@<TRIPOS>SUBSTRUCTURE
     1 UNK         1 GROUP             0       ****    0 ROOT    
