@<TRIPOS>MOLECULE
ZINC06757815_1702
32   34    1
SMALL
USER_CHARGES


@<TRIPOS>ATOM
      1 C1          5.8334   54.6032   21.3821 C.3       1 UNK         0.0000 
      2 S2          6.7042   54.8967   22.9516 S.3       1 UNK         0.0000 
      3 C3          5.4236   54.5393   24.1147 C.ar      1 UNK         0.0000 
      4 N4          5.6040   54.7527   25.4104 N.2       1 UNK         0.0000 
      5 C5          4.4672   54.3645   25.9240 C.ar      1 UNK         0.0000 
      6 N6          3.6179   53.9108   24.9460 N.pl3     1 UNK         0.0000 
      7 N7          4.2412   54.0670   23.7692 N.2       1 UNK         0.0000 
      8 C8          2.3740   53.3132   25.2155 C.2       1 UNK         0.0000 
      9 C9          1.9451   53.2848   26.4951 C.2       1 UNK         0.0000 
     10 C10         2.7072   53.9827   27.6478 C.3       1 UNK         0.0000 
     11 H11         2.2224   54.9519   27.7780 H         1 UNK         0.0000 
     12 N12         4.1024   54.2950   27.2547 N.pl3     1 UNK         0.0000 
     13 C13         2.5630   53.3168   29.0264 C.ar      1 UNK         0.0000 
     14 C14         3.6491   52.6840   29.6490 C.ar      1 UNK         0.0000 
     15 C15         3.4966   52.0967   30.9003 C.ar      1 UNK         0.0000 
     16 C16         2.2470   52.0967   31.5158 C.ar      1 UNK         0.0000 
     17 C17         1.1598   52.7242   30.9136 C.ar      1 UNK         0.0000 
     18 C18         1.3247   53.3509   29.6816 C.ar      1 UNK         0.0000 
     19 C19         0.7129   52.6191   26.7825 C.1       1 UNK         0.0000 
     20 N20        -0.3004   52.0969   26.9781 N.1       1 UNK         0.0000 
     21 N21         1.7283   52.7646   24.1313 N.pl3     1 UNK         0.0000 
     22 H22         6.5031   54.8074   20.5466 H         1 UNK         0.0000 
     23 H23         4.9713   55.2630   21.2875 H         1 UNK         0.0000 
     24 H24         5.5044   53.5663   21.3051 H         1 UNK         0.0000 
     25 H25         4.6861   54.6695   27.9882 H         1 UNK         0.0000 
     26 H26         4.6173   52.6397   29.1713 H         1 UNK         0.0000 
     27 H27         4.3406   51.6270   31.3840 H         1 UNK         0.0000 
     28 H28         2.1200   51.6276   32.4814 H         1 UNK         0.0000 
     29 H29         0.1966   52.7271   31.4064 H         1 UNK         0.0000 
     30 H30         0.4768   53.8414   29.2256 H         1 UNK         0.0000 
     31 H31         0.8597   52.2604   24.2395 H         1 UNK         0.0000 
     32 H32         2.1299   52.8223   23.2060 H         1 UNK         0.0000 
@<TRIPOS>BOND
     1    1    2 1    
     2    1   22 1    
     3    1   23 1    
     4    1   24 1    
     5    2    3 1    
     6    3    7 ar   
     7    3    4 ar   
     8    4    5 ar   
     9    5   12 1    
    10    5    6 ar   
    11    6    7 ar   
    12    6    8 1    
    13    8    9 2    
    14    8   21 1    
    15    9   10 1    
    16    9   19 1    
    17   10   11 1    
    18   10   12 1    
    19   10   13 1    
    20   12   25 1    
    21   13   18 ar   
    22   13   14 ar   
    23   14   15 ar   
    24   14   26 1    
    25   15   16 ar   
    26   15   27 1    
    27   16   17 ar   
    28   16   28 1    
    29   17   18 ar   
    30   17   29 1    
    31   18   30 1    
    32   19   20 3    
    33   21   31 1    
    34   21   32 1    
@<TRIPOS>SUBSTRUCTURE
     1 UNK         1 GROUP             0       ****    0 ROOT    
