@<TRIPOS>MOLECULE
ZINC44900885_4652
61   64    1
SMALL
USER_CHARGES


@<TRIPOS>ATOM
      1 C1          6.4701   54.1628   25.2690 C.3       1 UNK         0.0000 
      2 C2          5.4232   54.2931   26.3597 C.ar      1 UNK         0.0000 
      3 C3          4.0645   54.2977   26.0334 C.ar      1 UNK         0.0000 
      4 C4          3.1090   54.3969   27.0420 C.ar      1 UNK         0.0000 
      5 C5          3.5136   54.4848   28.3721 C.ar      1 UNK         0.0000 
      6 C6          4.8678   54.4931   28.6997 C.ar      1 UNK         0.0000 
      7 C7          5.8252   54.3944   27.6930 C.ar      1 UNK         0.0000 
      8 S8          2.3042   54.5862   29.6554 S.3       1 UNK         0.0000 
      9 C9          1.8554   52.8681   30.0557 C.3       1 UNK         0.0000 
     10 C10         0.9424   52.2538   29.0041 C.ar      1 UNK         0.0000 
     11 C11         1.4803   51.6973   27.8448 C.ar      1 UNK         0.0000 
     12 C12         0.6441   51.1500   26.8746 C.ar      1 UNK         0.0000 
     13 C13        -0.7470   51.1279   27.0609 C.ar      1 UNK         0.0000 
     14 C14        -1.2749   51.6889   28.2317 C.ar      1 UNK         0.0000 
     15 C15        -0.4385   52.2421   29.1983 C.ar      1 UNK         0.0000 
     16 C16        -1.6819   50.4783   26.0580 C.2       1 UNK         0.0000 
     17 O17        -2.8654   50.8228   25.9985 O.2       1 UNK         0.0000 
     18 N18        -1.1408   49.5100   25.2822 N.am      1 UNK         0.0000 
     19 C19        -1.8034   48.5839   24.4545 C.ar      1 UNK         0.0000 
     20 C20        -1.1000   48.0963   23.3527 C.ar      1 UNK         0.0000 
     21 C21        -1.6605   47.1093   22.5432 C.ar      1 UNK         0.0000 
     22 C22        -2.9063   46.5609   22.8531 C.ar      1 UNK         0.0000 
     23 C23        -3.6261   47.0723   23.9395 C.ar      1 UNK         0.0000 
     24 C24        -3.0796   48.0776   24.7379 C.ar      1 UNK         0.0000 
     25 S25        -3.6063   45.2152   21.8622 S.o2      1 UNK         0.0000 
     26 O26        -4.6116   44.6081   22.7415 O.2       1 UNK         0.0000 
     27 O27        -4.0957   45.8743   20.6472 O.2       1 UNK         0.0000 
     28 N28        -2.3659   44.2523   21.6817 N.2       1 UNK         0.0000 
     29 C29        -1.5033   44.2334   20.6144 C.ar      1 UNK         0.0000 
     30 N30        -1.6164   45.0968   19.5652 N.ar      1 UNK         0.0000 
     31 C31        -0.7112   45.0084   18.5583 C.ar      1 UNK         0.0000 
     32 C32         0.3231   44.0742   18.5683 C.ar      1 UNK         0.0000 
     33 C33         0.3902   43.2331   19.6771 C.ar      1 UNK         0.0000 
     34 N34        -0.5144   43.2967   20.6860 N.ar      1 UNK         0.0000 
     35 C35         1.5046   42.2179   19.8457 C.3       1 UNK         0.0000 
     36 C36        -0.8825   45.9970   17.4231 C.3       1 UNK         0.0000 
     37 H37         7.1042   53.2986   25.4677 H         1 UNK         0.0000 
     38 H38         7.1102   55.0446   25.2474 H         1 UNK         0.0000 
     39 H39         6.0251   54.0327   24.2818 H         1 UNK         0.0000 
     40 H40         3.7460   54.2180   25.0041 H         1 UNK         0.0000 
     41 H41         2.0575   54.3910   26.7948 H         1 UNK         0.0000 
     42 H42         5.1781   54.5801   29.7282 H         1 UNK         0.0000 
     43 H43         6.8740   54.3981   27.9541 H         1 UNK         0.0000 
     44 H44         2.7613   52.2711   30.1667 H         1 UNK         0.0000 
     45 H45         1.3572   52.8534   31.0266 H         1 UNK         0.0000 
     46 H46         2.5490   51.6931   27.6898 H         1 UNK         0.0000 
     47 H47         1.0980   50.7374   25.9853 H         1 UNK         0.0000 
     48 H48        -2.3402   51.6692   28.4148 H         1 UNK         0.0000 
     49 H49        -0.8664   52.6520   30.1017 H         1 UNK         0.0000 
     50 H50        -0.1426   49.3898   25.3403 H         1 UNK         0.0000 
     51 H51        -0.1146   48.4753   23.1199 H         1 UNK         0.0000 
     52 H52        -1.1006   46.7465   21.6948 H         1 UNK         0.0000 
     53 H53        -4.6019   46.6778   24.1843 H         1 UNK         0.0000 
     54 H54        -3.6339   48.4247   25.5976 H         1 UNK         0.0000 
     55 H55         1.0484   44.0226   17.7694 H         1 UNK         0.0000 
     56 H56         2.1293   42.1571   18.9537 H         1 UNK         0.0000 
     57 H57         2.1427   42.4979   20.6845 H         1 UNK         0.0000 
     58 H58         1.1053   41.2252   20.0491 H         1 UNK         0.0000 
     59 H59        -0.0978   45.8902   16.6739 H         1 UNK         0.0000 
     60 H60        -1.8439   45.8470   16.9318 H         1 UNK         0.0000 
     61 H61        -0.8489   47.0185   17.8031 H         1 UNK         0.0000 
@<TRIPOS>BOND
     1    1    2 1    
     2    1   37 1    
     3    1   38 1    
     4    1   39 1    
     5    2    7 ar   
     6    2    3 ar   
     7    3    4 ar   
     8    3   40 1    
     9    4    5 ar   
    10    4   41 1    
    11    5    6 ar   
    12    5    8 1    
    13    6    7 ar   
    14    6   42 1    
    15    7   43 1    
    16    8    9 1    
    17    9   10 1    
    18    9   44 1    
    19    9   45 1    
    20   10   15 ar   
    21   10   11 ar   
    22   11   12 ar   
    23   11   46 1    
    24   12   13 ar   
    25   12   47 1    
    26   13   14 ar   
    27   13   16 1    
    28   14   15 ar   
    29   14   48 1    
    30   15   49 1    
    31   16   17 2    
    32   16   18 am   BACKBONE|DICT|INTERRES
    33   18   19 1    
    34   18   50 1    
    35   19   24 ar   
    36   19   20 ar   
    37   20   21 ar   
    38   20   51 1    
    39   21   22 ar   
    40   21   52 1    
    41   22   23 ar   
    42   22   25 1    
    43   23   24 ar   
    44   23   53 1    
    45   24   54 1    
    46   25   26 2    
    47   25   27 2    
    48   25   28 1    
    49   28   29 1    
    50   29   34 ar   
    51   29   30 ar   
    52   30   31 ar   
    53   31   32 ar   
    54   31   36 1    
    55   32   33 ar   
    56   32   55 1    
    57   33   34 ar   
    58   33   35 1    
    59   35   56 1    
    60   35   57 1    
    61   35   58 1    
    62   36   59 1    
    63   36   60 1    
    64   36   61 1    
@<TRIPOS>SUBSTRUCTURE
     1 UNK         1 GROUP             0       ****    0 ROOT    
