ZINC15719201_3280
                    3D
 Schrodinger Suite 2024-2.
 61 65  0  0  1  0            999 V2000
    5.3843   54.2325   26.6528 C   0  0  0  0  0  0
    4.1854   54.4232   25.9734 C   0  0  0  0  0  0
    4.1836   54.4966   24.5834 C   0  0  0  0  0  0
    5.3782   54.3744   23.8612 C   0  0  0  0  0  0
    6.5820   54.1978   24.5622 C   0  0  0  0  0  0
    6.5817   54.1229   25.9535 C   0  0  0  0  0  0
    5.3891   54.4736   22.4372 N   0  0  0  0  0  0
    4.6460   53.8059   21.4617 C   0  0  0  0  0  0
    5.1720   54.2748   20.2604 C   0  0  0  0  0  0
    6.2348   55.1172   20.5752 C   0  0  0  0  0  0
    6.3849   55.1939   21.8752 N   0  0  0  0  0  0
    7.1572   55.8701   19.6421 C   0  0  0  0  0  0
    8.6558   55.7194   19.7217 C   0  0  0  0  0  0
    7.8858   55.1357   18.5460 C   0  0  0  0  0  0
    3.5213   52.9098   21.6323 C   0  0  0  0  0  0
    2.6986   53.0657   22.5277 O   0  0  0  0  0  0
    3.4567   51.9365   20.6947 N   0  0  0  0  0  0
    2.4588   50.9548   20.5240 C   0  0  0  0  0  0
    2.3948   50.3326   19.2735 C   0  0  0  0  0  0
    1.4403   49.3510   19.0137 C   0  0  0  0  0  0
    0.5270   48.9870   20.0009 C   0  0  0  0  0  0
    0.5797   49.5920   21.2606 C   0  0  0  0  0  0
    1.5525   50.5609   21.5239 C   0  0  0  0  0  0
   -0.5815   49.1403   22.5519 S   0  0  0  0  0  0
   -1.2953   47.9784   22.0088 O   0  0  0  0  0  0
    0.2913   48.8636   23.6989 O   0  0  0  0  0  0
   -1.4603   50.6732   22.5590 N   0  0  0  0  0  0
   -1.7589   51.2236   23.6674 C   0  0  0  0  0  0
   -2.4755   52.5715   23.7374 C   0  0  0  0  0  0
   -3.7800   52.6299   24.5633 C   0  0  0  0  0  0
   -3.5859   52.7582   26.0819 C   0  0  0  0  0  0
   -2.8956   51.5664   26.7662 C   0  0  0  0  0  0
   -1.4871   51.2226   26.2535 C   0  0  0  0  0  0
   -1.4598   50.6667   24.9053 N   0  0  0  0  0  0
    5.3874   54.1733   27.7313 H   0  0  0  0  0  0
    3.2608   54.5240   26.5221 H   0  0  0  0  0  0
    3.2499   54.7128   24.0892 H   0  0  0  0  0  0
    7.5180   54.1070   24.0307 H   0  0  0  0  0  0
    7.5013   53.9717   26.4968 H   0  0  0  0  0  0
    4.8347   54.0316   19.2625 H   0  0  0  0  0  0
    6.7858   56.8618   19.3803 H   0  0  0  0  0  0
    9.2803   56.5988   19.5614 H   0  0  0  0  0  0
    9.0772   55.0524   20.4738 H   0  0  0  0  0  0
    7.7738   54.0533   18.4706 H   0  0  0  0  0  0
    7.9690   55.6113   17.5681 H   0  0  0  0  0  0
    4.1750   51.9362   19.9861 H   0  0  0  0  0  0
    3.0941   50.5951   18.4903 H   0  0  0  0  0  0
    1.4139   48.8750   18.0444 H   0  0  0  0  0  0
   -0.2141   48.2321   19.7825 H   0  0  0  0  0  0
    1.5831   50.9864   22.5138 H   0  0  0  0  0  0
   -1.7746   53.3409   24.0646 H   0  0  0  0  0  0
   -2.7333   52.8659   22.7197 H   0  0  0  0  0  0
   -4.3668   53.4832   24.2212 H   0  0  0  0  0  0
   -4.3996   51.7562   24.3470 H   0  0  0  0  0  0
   -4.5633   52.9048   26.5445 H   0  0  0  0  0  0
   -3.0253   53.6701   26.2965 H   0  0  0  0  0  0
   -3.5268   50.6801   26.6855 H   0  0  0  0  0  0
   -2.8289   51.7676   27.8348 H   0  0  0  0  0  0
   -0.9848   50.5512   26.9534 H   0  0  0  0  0  0
   -0.8872   52.1340   26.2266 H   0  0  0  0  0  0
   -0.8420   49.8620   24.8427 H   0  0  0  0  0  0
  1  6  2  0  0  0
  1  2  1  0  0  0
  1 35  1  0  0  0
  2  3  2  0  0  0
  2 36  1  0  0  0
  3  4  1  0  0  0
  3 37  1  0  0  0
  4  5  2  0  0  0
  4  7  1  0  0  0
  5  6  1  0  0  0
  5 38  1  0  0  0
  6 39  1  0  0  0
  7 11  1  0  0  0
  7  8  1  0  0  0
  8  9  2  0  0  0
  8 15  1  0  0  0
  9 10  1  0  0  0
  9 40  1  0  0  0
 10 11  2  0  0  0
 10 12  1  0  0  0
 12 14  1  0  0  0
 12 13  1  0  0  0
 12 41  1  0  0  0
 13 14  1  0  0  0
 13 42  1  0  0  0
 13 43  1  0  0  0
 14 44  1  0  0  0
 14 45  1  0  0  0
 15 16  2  0  0  0
 15 17  1  0  0  0
 17 18  1  0  0  0
 17 46  1  0  0  0
 18 23  2  0  0  0
 18 19  1  0  0  0
 19 20  2  0  0  0
 19 47  1  0  0  0
 20 21  1  0  0  0
 20 48  1  0  0  0
 21 22  2  0  0  0
 21 49  1  0  0  0
 22 23  1  0  0  0
 22 24  1  0  0  0
 23 50  1  0  0  0
 24 25  2  0  0  0
 24 26  2  0  0  0
 24 27  1  0  0  0
 27 28  2  0  0  0
 28 34  1  0  0  0
 28 29  1  0  0  0
 29 30  1  0  0  0
 29 51  1  0  0  0
 29 52  1  0  0  0
 30 31  1  0  0  0
 30 53  1  0  0  0
 30 54  1  0  0  0
 31 32  1  0  0  0
 31 55  1  0  0  0
 31 56  1  0  0  0
 32 33  1  0  0  0
 32 57  1  0  0  0
 32 58  1  0  0  0
 33 34  1  0  0  0
 33 59  1  0  0  0
 33 60  1  0  0  0
 34 61  1  0  0  0
M  END
> <i_i_glide_confnum>
3

> <i_i_glide_lignum>
3281

> <i_i_glide_posenum>
339

> <i_i_glide_rotatable_bonds>
7

> <i_m_Source_File_Index>
5529

> <b_m_subgroup_collapsed>
0

> <r_i_docking_score>
-4.78169

> <r_i_glide_ecoul>
-0.895155

> <r_i_glide_eff_state_penalty>
0

> <r_i_glide_einternal>
7.1445

> <r_i_glide_emodel>
-58.5753

> <r_i_glide_energy>
-48.4249

> <r_i_glide_erotb>
0.621737

> <r_i_glide_esite>
-0.0601678

> <r_i_glide_evdw>
-47.5298

> <r_i_glide_gscore>
-4.78169

> <r_i_glide_hbond>
0

> <r_i_glide_ligand_efficiency>
-0.140638

> <r_i_glide_ligand_efficiency_ln>
-1.05641

> <r_i_glide_ligand_efficiency_sa>
-0.455612

> <r_i_glide_lipo>
-2.6245

> <r_i_glide_metal>
0

> <r_i_glide_rewards>
-0.207998

> <s_i_glide_gridfile>
wee1_glide-grid

> <s_m_Source_File>
wee1_decoys_glide_SP.sdf

> <s_m_Source_Path>
/Users/zhangxujun/Desktop

> <s_m_entry_id>
5804

> <s_m_entry_name>
wee1_decoys_glide_SP.5529

> <s_m_subgroup_title>
wee1_decoys_glide_SP

> <s_m_subgroupid>
wee1_decoys_glide_SP


$$$$
