ZINC12250455_4935
                    3D
 Schrodinger Suite 2024-2.
 59 62  0  0  1  0            999 V2000
   -1.2116   51.2950   27.4117 C   0  0  0  0  0  0
   -1.3094   51.7410   25.9631 C   0  0  0  0  0  0
   -2.5565   51.9033   25.3558 C   0  0  0  0  0  0
   -2.6386   52.2778   24.0155 C   0  0  0  0  0  0
   -1.4751   52.4966   23.2778 C   0  0  0  0  0  0
   -0.2179   52.3660   23.8749 C   0  0  0  0  0  0
   -0.1459   51.9671   25.2220 C   0  0  0  0  0  0
    0.9122   52.6007   23.0623 N   0  0  0  0  0  0
    2.1630   52.9374   23.4534 C   0  0  0  0  0  0
    2.4346   53.1970   24.6230 O   0  0  0  0  0  0
    3.1688   53.0075   22.3895 C   0  0  0  0  0  0
    3.2389   52.0894   21.3741 C   0  0  0  0  0  0
    4.1221   52.2623   20.3308 N   0  0  0  0  0  0
    4.9435   53.3512   20.1918 C   0  0  0  0  0  0
    4.9891   54.3173   21.1327 C   0  0  0  0  0  0
    4.1350   54.2444   22.4200 C   0  0  2  0  0  0
    3.4980   55.1289   22.3878 H   0  0  0  0  0  0
    5.0298   54.3612   23.6605 C   0  0  0  0  0  0
    6.3682   54.0966   23.9344 C   0  0  0  0  0  0
    6.5902   54.4183   25.2740 C   0  0  0  0  0  0
    5.3940   54.9002   25.7599 C   0  0  0  0  0  0
    4.4633   54.8959   24.7763 O   0  0  0  0  0  0
    5.9047   55.4065   20.9757 C   0  0  0  0  0  0
    6.6506   56.2884   20.8817 N   0  0  0  0  0  0
    5.9007   53.3024   18.6857 S   0  0  0  0  0  0
    4.6238   53.1208   17.3886 C   0  0  0  0  0  0
    3.6233   54.2852   17.3244 C   0  0  0  0  0  0
    4.0000   55.4294   17.5852 O   0  0  0  0  0  0
    2.3535   53.9614   16.9962 N   0  0  0  0  0  0
    1.2538   54.8339   16.9043 C   0  0  0  0  0  0
    1.3578   56.1693   16.4815 C   0  0  0  0  0  0
    0.2329   56.9945   16.4768 C   0  0  0  0  0  0
   -1.0040   56.4928   16.8799 C   0  0  0  0  0  0
   -1.1192   55.1621   17.2784 C   0  0  0  0  0  0
    0.0029   54.3319   17.2798 C   0  0  0  0  0  0
   -2.3180   54.6817   17.6806 F   0  0  0  0  0  0
    2.4662   50.7779   21.2422 C   0  0  0  0  0  0
   -2.1552   50.8930   27.7835 H   0  0  0  0  0  0
   -0.8970   52.1213   28.0492 H   0  0  0  0  0  0
   -0.4738   50.4977   27.5113 H   0  0  0  0  0  0
   -3.4625   51.7259   25.9170 H   0  0  0  0  0  0
   -3.6051   52.3898   23.5473 H   0  0  0  0  0  0
   -1.5606   52.7771   22.2388 H   0  0  0  0  0  0
    0.8060   51.8104   25.7058 H   0  0  0  0  0  0
    0.7587   52.5509   22.0675 H   0  0  0  0  0  0
    4.1903   51.5422   19.6200 H   0  0  0  0  0  0
    7.0960   53.6943   23.2452 H   0  0  0  0  0  0
    7.5044   54.3058   25.8306 H   0  0  0  0  0  0
    5.0702   55.2662   26.7230 H   0  0  0  0  0  0
    5.1345   53.0660   16.4277 H   0  0  0  0  0  0
    4.1143   52.1644   17.5153 H   0  0  0  0  0  0
    2.1414   52.9791   16.9135 H   0  0  0  0  0  0
    2.3063   56.5837   16.1720 H   0  0  0  0  0  0
    0.3260   58.0278   16.1739 H   0  0  0  0  0  0
   -1.8715   57.1355   16.8833 H   0  0  0  0  0  0
   -0.1012   53.3087   17.6090 H   0  0  0  0  0  0
    1.6680   50.8805   20.5070 H   0  0  0  0  0  0
    3.1206   49.9694   20.9145 H   0  0  0  0  0  0
    2.0306   50.4439   22.1833 H   0  0  0  0  0  0
  1  2  1  0  0  0
  1 38  1  0  0  0
  1 39  1  0  0  0
  1 40  1  0  0  0
  2  7  2  0  0  0
  2  3  1  0  0  0
  3  4  2  0  0  0
  3 41  1  0  0  0
  4  5  1  0  0  0
  4 42  1  0  0  0
  5  6  2  0  0  0
  5 43  1  0  0  0
  6  7  1  0  0  0
  6  8  1  0  0  0
  7 44  1  0  0  0
  8  9  1  0  0  0
  8 45  1  0  0  0
  9 10  2  0  0  0
  9 11  1  0  0  0
 11 16  1  0  0  0
 11 12  2  0  0  0
 12 13  1  0  0  0
 12 37  1  0  0  0
 13 14  1  0  0  0
 13 46  1  0  0  0
 14 15  2  0  0  0
 14 25  1  0  0  0
 15 16  1  0  0  0
 15 23  1  0  0  0
 16 17  1  0  0  0
 16 18  1  0  0  0
 18 22  1  0  0  0
 18 19  2  0  0  0
 19 20  1  0  0  0
 19 47  1  0  0  0
 20 21  2  0  0  0
 20 48  1  0  0  0
 21 22  1  0  0  0
 21 49  1  0  0  0
 23 24  3  0  0  0
 25 26  1  0  0  0
 26 27  1  0  0  0
 26 50  1  0  0  0
 26 51  1  0  0  0
 27 28  2  0  0  0
 27 29  1  0  0  0
 29 30  1  0  0  0
 29 52  1  0  0  0
 30 35  2  0  0  0
 30 31  1  0  0  0
 31 32  2  0  0  0
 31 53  1  0  0  0
 32 33  1  0  0  0
 32 54  1  0  0  0
 33 34  2  0  0  0
 33 55  1  0  0  0
 34 35  1  0  0  0
 34 36  1  0  0  0
 35 56  1  0  0  0
 37 57  1  0  0  0
 37 58  1  0  0  0
 37 59  1  0  0  0
M  END
> <i_i_glide_confnum>
270

> <i_i_glide_lignum>
4936

> <i_i_glide_posenum>
43

> <i_i_glide_rotatable_bonds>
10

> <i_m_Source_File_Index>
2218

> <b_m_subgroup_collapsed>
0

> <r_i_docking_score>
-4.95206

> <r_i_glide_ecoul>
-4.74942

> <r_i_glide_eff_state_penalty>
0

> <r_i_glide_einternal>
10.3999

> <r_i_glide_emodel>
-61.6389

> <r_i_glide_energy>
-50.939

> <r_i_glide_erotb>
0.647242

> <r_i_glide_esite>
-0.0963892

> <r_i_glide_evdw>
-46.1896

> <r_i_glide_gscore>
-4.95206

> <r_i_glide_hbond>
-0.143722

> <r_i_glide_ligand_efficiency>
-0.137557

> <r_i_glide_ligand_efficiency_ln>
-1.08041

> <r_i_glide_ligand_efficiency_sa>
-0.454204

> <r_i_glide_lipo>
-1.88994

> <r_i_glide_metal>
0

> <r_i_glide_rewards>
-0.447368

> <s_i_glide_gridfile>
wee1_glide-grid

> <s_m_Source_File>
wee1_decoys_glide_SP.sdf

> <s_m_Source_Path>
/Users/zhangxujun/Desktop

> <s_m_entry_id>
2493

> <s_m_entry_name>
wee1_decoys_glide_SP.2218

> <s_m_subgroup_title>
wee1_decoys_glide_SP

> <s_m_subgroupid>
wee1_decoys_glide_SP


$$$$
