@<TRIPOS>MOLECULE
ZINC08832438_2337
65   67    1
SMALL
USER_CHARGES


@<TRIPOS>ATOM
      1 C1          4.3852   58.6291   16.5276 C.3       1 UNK         0.0000 
      2 C2          3.6998   57.2775   16.5819 C.ar      1 UNK         0.0000 
      3 C3          2.6185   57.0089   15.7487 C.ar      1 UNK         0.0000 
      4 C4          2.0017   55.7626   15.7868 C.ar      1 UNK         0.0000 
      5 C5          2.4460   54.7678   16.6671 C.ar      1 UNK         0.0000 
      6 C6          3.5267   55.0367   17.5328 C.ar      1 UNK         0.0000 
      7 C7          4.1592   56.2917   17.4550 C.ar      1 UNK         0.0000 
      8 O8          3.9058   54.0344   18.4092 O.3       1 UNK         0.0000 
      9 C9          4.8220   54.2639   19.4838 C.3       1 UNK         0.0000 
     10 C10         4.2276   53.7060   20.7849 C.2       1 UNK         0.0000 
     11 O11         3.4128   52.7837   20.7572 O.2       1 UNK         0.0000 
     12 N12         4.6836   54.2893   21.9151 N.am      1 UNK         0.0000 
     13 C13         4.2351   54.0969   23.2224 C.2       1 UNK         0.0000 
     14 C14         4.9468   54.3762   24.4138 C.2       1 UNK         0.0000 
     15 C15         4.1466   54.1524   25.5653 C.2       1 UNK         0.0000 
     16 C16         2.8685   53.6820   25.2425 C.2       1 UNK         0.0000 
     17 S17         2.6035   53.5769   23.5440 S.3       1 UNK         0.0000 
     18 C18         1.8361   53.1777   26.2357 C.3       1 UNK         0.0000 
     19 C19         2.1793   53.6743   27.6692 C.3       1 UNK         0.0000 
     20 H20         2.0050   54.7524   27.7058 H         1 UNK         0.0000 
     21 C21         3.6872   53.4149   27.9299 C.3       1 UNK         0.0000 
     22 C22         4.6013   54.2584   27.0243 C.3       1 UNK         0.0000 
     23 C23         1.2431   53.0435   28.7688 C.3       1 UNK         0.0000 
     24 C24         1.4809   51.5239   28.9420 C.3       1 UNK         0.0000 
     25 C25        -0.2481   53.2376   28.4086 C.3       1 UNK         0.0000 
     26 C26         1.4757   53.7298   30.1380 C.3       1 UNK         0.0000 
     27 C27         6.3021   54.8972   24.4818 C.2       1 UNK         0.0000 
     28 O28         6.7046   55.6192   25.3923 O.2       1 UNK         0.0000 
     29 N29         7.1044   54.5286   23.4871 N.am      1 UNK         0.0000 
     30 C30         1.7112   53.4177   16.6674 C.3       1 UNK         0.0000 
     31 C31         2.6325   52.2123   16.3845 C.3       1 UNK         0.0000 
     32 C32         0.8607   53.2237   17.9348 C.3       1 UNK         0.0000 
     33 H33         4.2730   59.0959   15.5494 H         1 UNK         0.0000 
     34 H34         3.9632   59.2968   17.2798 H         1 UNK         0.0000 
     35 H35         5.4568   58.5406   16.7110 H         1 UNK         0.0000 
     36 H36         2.2570   57.7673   15.0704 H         1 UNK         0.0000 
     37 H37         1.1642   55.5771   15.1299 H         1 UNK         0.0000 
     38 H38         5.0171   56.5369   18.0568 H         1 UNK         0.0000 
     39 H39         5.0825   55.3054   19.6595 H         1 UNK         0.0000 
     40 H40         5.7435   53.7248   19.2651 H         1 UNK         0.0000 
     41 H41         5.4887   54.8909   21.8228 H         1 UNK         0.0000 
     42 H42         1.8513   52.0928   26.2030 H         1 UNK         0.0000 
     43 H43         0.8407   53.4746   25.9198 H         1 UNK         0.0000 
     44 H44         3.9475   53.6694   28.9562 H         1 UNK         0.0000 
     45 H45         3.9201   52.3546   27.8535 H         1 UNK         0.0000 
     46 H46         4.5890   55.2970   27.3443 H         1 UNK         0.0000 
     47 H47         5.6319   53.9232   27.1462 H         1 UNK         0.0000 
     48 H48         0.7916   51.1213   29.6807 H         1 UNK         0.0000 
     49 H49         2.4903   51.2967   29.2830 H         1 UNK         0.0000 
     50 H50         1.3093   50.9620   28.0251 H         1 UNK         0.0000 
     51 H51        -0.4854   54.2819   28.2147 H         1 UNK         0.0000 
     52 H52        -0.5401   52.6638   27.5282 H         1 UNK         0.0000 
     53 H53        -0.8959   52.8977   29.2178 H         1 UNK         0.0000 
     54 H54         1.3887   54.8148   30.0640 H         1 UNK         0.0000 
     55 H55         0.7523   53.3982   30.8856 H         1 UNK         0.0000 
     56 H56         2.4608   53.5031   30.5421 H         1 UNK         0.0000 
     57 H57         6.8215   53.8059   22.8447 H         1 UNK         0.0000 
     58 H58         8.0725   54.8481   23.4976 H         1 UNK         0.0000 
     59 H59         1.0077   53.4345   15.8325 H         1 UNK         0.0000 
     60 H60         3.2737   52.3951   15.5215 H         1 UNK         0.0000 
     61 H61         3.2785   51.9703   17.2289 H         1 UNK         0.0000 
     62 H62         2.0506   51.3153   16.1711 H         1 UNK         0.0000 
     63 H63         0.1823   54.0640   18.0830 H         1 UNK         0.0000 
     64 H64         0.2577   52.3183   17.8689 H         1 UNK         0.0000 
     65 H65         1.4819   53.1378   18.8259 H         1 UNK         0.0000 
@<TRIPOS>BOND
     1    1    2 1    
     2    1   33 1    
     3    1   34 1    
     4    1   35 1    
     5    2    7 ar   
     6    2    3 ar   
     7    3    4 ar   
     8    3   36 1    
     9    4    5 ar   
    10    4   37 1    
    11    5    6 ar   
    12    5   30 1    
    13    6    7 ar   
    14    6    8 1    
    15    7   38 1    
    16    8    9 1    
    17    9   10 1    
    18    9   39 1    
    19    9   40 1    
    20   10   11 2    
    21   10   12 am   BACKBONE|DICT|INTERRES
    22   12   13 am   BACKBONE|DICT|INTERRES
    23   12   41 1    
    24   13   17 1    
    25   13   14 2    
    26   14   15 1    
    27   14   27 1    
    28   15   22 1    
    29   15   16 2    
    30   16   17 1    
    31   16   18 1    
    32   18   19 1    
    33   18   42 1    
    34   18   43 1    
    35   19   20 1    
    36   19   21 1    
    37   19   23 1    
    38   21   22 1    
    39   21   44 1    
    40   21   45 1    
    41   22   46 1    
    42   22   47 1    
    43   23   24 1    
    44   23   25 1    
    45   23   26 1    
    46   24   48 1    
    47   24   49 1    
    48   24   50 1    
    49   25   51 1    
    50   25   52 1    
    51   25   53 1    
    52   26   54 1    
    53   26   55 1    
    54   26   56 1    
    55   27   28 2    
    56   27   29 am   BACKBONE|DICT|INTERRES
    57   29   57 1    
    58   29   58 1    
    59   30   31 1    
    60   30   32 1    
    61   30   59 1    
    62   31   60 1    
    63   31   61 1    
    64   31   62 1    
    65   32   63 1    
    66   32   64 1    
    67   32   65 1    
@<TRIPOS>SUBSTRUCTURE
     1 UNK         1 GROUP             0       ****    0 ROOT    
