ZINC39656983_3675
                    3D
 Schrodinger Suite 2024-2.
 62 65  0  0  1  0            999 V2000
    5.9153   54.4323   26.6445 C   0  0  0  0  0  0
    5.5286   54.3398   25.1761 C   0  0  0  0  0  0
    6.5043   54.4744   24.1915 C   0  0  0  0  0  0
    6.1609   54.3726   22.8478 C   0  0  0  0  0  0
    4.8408   54.1292   22.4721 C   0  0  0  0  0  0
    3.8417   53.9688   23.4490 C   0  0  0  0  0  0
    4.2007   54.0994   24.8038 C   0  0  0  0  0  0
    3.2687   53.9889   25.7772 F   0  0  0  0  0  0
    2.3909   53.7716   23.0662 C   0  0  0  0  0  0
    1.5395   54.4958   23.5835 O   0  0  0  0  0  0
    2.0532   52.8192   22.1605 N   0  0  0  0  0  0
    0.6721   52.6806   21.6720 C   0  0  0  0  0  0
    0.5805   51.2118   21.2194 C   0  0  1  0  0  0
   -0.1717   51.1288   20.4366 H   0  0  0  0  0  0
    2.0201   50.9408   20.6984 C   0  0  0  0  0  0
    2.8904   51.6892   21.7292 C   0  0  0  0  0  0
    2.4674   49.4744   20.5088 C   0  0  0  0  0  0
    1.6696   48.7408   19.4182 C   0  0  0  0  0  0
    1.9044   49.4792   18.0821 N   0  3  0  0  0  0
    1.5447   50.9791   18.1489 C   0  0  0  0  0  0
    2.3277   51.6116   19.3157 C   0  0  0  0  0  0
    0.1354   50.2684   22.3810 C   0  0  0  0  0  0
   -0.3074   49.1542   22.1073 O   0  0  0  0  0  0
    0.2060   50.7378   23.6440 N   0  0  0  0  0  0
   -0.2974   50.1225   24.8770 C   0  0  1  0  0  0
   -1.3605   49.9380   24.7016 H   0  0  0  0  0  0
    0.3737   48.7752   25.2052 C   0  0  0  0  0  0
   -0.2154   51.0636   26.0903 C   0  0  0  0  0  0
   -1.1300   50.8968   27.1341 C   0  0  0  0  0  0
   -1.0639   51.6966   28.2721 C   0  0  0  0  0  0
   -0.0923   52.6869   28.3652 C   0  0  0  0  0  0
    0.8054   52.8886   27.3225 C   0  0  0  0  0  0
    0.7420   52.0838   26.1855 C   0  0  0  0  0  0
    0.0037   53.7735   29.9252 Br  0  0  0  0  0  0
    4.5456   54.1160   21.1504 F   0  0  0  0  0  0
    6.9939   54.5022   26.7894 H   0  0  0  0  0  0
    5.4417   55.2963   27.1105 H   0  0  0  0  0  0
    5.5690   53.5449   27.1763 H   0  0  0  0  0  0
    7.5286   54.6655   24.4654 H   0  0  0  0  0  0
    6.9202   54.5031   22.0913 H   0  0  0  0  0  0
    0.5268   53.2966   20.7863 H   0  0  0  0  0  0
   -0.1103   52.8967   22.4007 H   0  0  0  0  0  0
    3.0281   51.0293   22.5854 H   0  0  0  0  0  0
    3.8925   51.9087   21.3643 H   0  0  0  0  0  0
    3.5040   49.4839   20.2155 H   0  0  0  0  0  0
    2.4189   48.9140   21.4442 H   0  0  0  0  0  0
    2.0197   47.7186   19.2652 H   0  0  0  0  0  0
    0.5939   48.7323   19.6011 H   0  0  0  0  0  0
    2.8814   49.3882   17.7865 H   0  0  0  0  0  0
    1.8355   51.4004   17.1847 H   0  0  0  0  0  0
    0.4618   51.0462   18.2566 H   0  0  0  0  0  0
    2.1130   52.6813   19.3408 H   0  0  0  0  0  0
    3.3976   51.5672   19.0933 H   0  0  0  0  0  0
    0.5237   51.6888   23.7510 H   0  0  0  0  0  0
   -0.0944   48.3176   26.0774 H   0  0  0  0  0  0
    0.2875   48.0604   24.3879 H   0  0  0  0  0  0
    1.4340   48.8963   25.4276 H   0  0  0  0  0  0
   -1.8736   50.1132   27.0868 H   0  0  0  0  0  0
   -1.7532   51.5267   29.0870 H   0  0  0  0  0  0
    1.5495   53.6652   27.4053 H   0  0  0  0  0  0
    1.4649   52.2361   25.3994 H   0  0  0  0  0  0
    1.3733   49.0371   17.3445 H   0  0  0  0  0  0
  1  2  1  0  0  0
  1 36  1  0  0  0
  1 37  1  0  0  0
  1 38  1  0  0  0
  2  7  2  0  0  0
  2  3  1  0  0  0
  3  4  2  0  0  0
  3 39  1  0  0  0
  4  5  1  0  0  0
  4 40  1  0  0  0
  5  6  2  0  0  0
  5 35  1  0  0  0
  6  7  1  0  0  0
  6  9  1  0  0  0
  7  8  1  0  0  0
  9 10  2  0  0  0
  9 11  1  0  0  0
 11 16  1  0  0  0
 11 12  1  0  0  0
 12 13  1  0  0  0
 12 41  1  0  0  0
 12 42  1  0  0  0
 13 14  1  0  0  0
 13 15  1  0  0  0
 13 22  1  0  0  0
 15 21  1  0  0  0
 15 16  1  0  0  0
 15 17  1  0  0  0
 16 43  1  0  0  0
 16 44  1  0  0  0
 17 18  1  0  0  0
 17 45  1  0  0  0
 17 46  1  0  0  0
 18 19  1  0  0  0
 18 47  1  0  0  0
 18 48  1  0  0  0
 19 20  1  0  0  0
 19 49  1  0  0  0
 19 62  1  0  0  0
 20 21  1  0  0  0
 20 50  1  0  0  0
 20 51  1  0  0  0
 21 52  1  0  0  0
 21 53  1  0  0  0
 22 23  2  0  0  0
 22 24  1  0  0  0
 24 25  1  0  0  0
 24 54  1  0  0  0
 25 26  1  0  0  0
 25 27  1  0  0  0
 25 28  1  0  0  0
 27 55  1  0  0  0
 27 56  1  0  0  0
 27 57  1  0  0  0
 28 33  2  0  0  0
 28 29  1  0  0  0
 29 30  2  0  0  0
 29 58  1  0  0  0
 30 31  1  0  0  0
 30 59  1  0  0  0
 31 32  2  0  0  0
 31 34  1  0  0  0
 32 33  1  0  0  0
 32 60  1  0  0  0
 33 61  1  0  0  0
M  CHG  1  19   1
M  END
> <i_i_glide_confnum>
149

> <i_i_glide_lignum>
3676

> <i_i_glide_posenum>
245

> <i_i_glide_rotatable_bonds>
6

> <i_m_Source_File_Index>
2426

> <b_m_subgroup_collapsed>
0

> <r_i_docking_score>
-5.84008

> <r_i_glide_ecoul>
-5.42677

> <r_i_glide_eff_state_penalty>
0

> <r_i_glide_einternal>
7.2874

> <r_i_glide_emodel>
-58.9725

> <r_i_glide_energy>
-44.6352

> <r_i_glide_erotb>
0.378066

> <r_i_glide_esite>
-0.1

> <r_i_glide_evdw>
-39.2084

> <r_i_glide_gscore>
-5.84008

> <r_i_glide_hbond>
-0.2

> <r_i_glide_ligand_efficiency>
-0.176972

> <r_i_glide_ligand_efficiency_ln>
-1.2988

> <r_i_glide_ligand_efficiency_sa>
-0.567644

> <r_i_glide_lipo>
-2.23519

> <r_i_glide_metal>
0

> <r_i_glide_rewards>
-0.90852

> <s_i_glide_gridfile>
wee1_glide-grid

> <s_m_Source_File>
wee1_decoys_glide_SP.sdf

> <s_m_Source_Path>
/Users/zhangxujun/Desktop

> <s_m_entry_id>
2701

> <s_m_entry_name>
wee1_decoys_glide_SP.2426

> <s_m_subgroup_title>
wee1_decoys_glide_SP

> <s_m_subgroupid>
wee1_decoys_glide_SP


$$$$
