@<TRIPOS>MOLECULE
ZINC20058658_2548
53   55    1
SMALL
USER_CHARGES


@<TRIPOS>ATOM
      1 C1          6.9706   55.1838   24.4652 C.3       1 UNK         0.0000 
      2 C2          6.1169   54.7413   25.6341 C.ar      1 UNK         0.0000 
      3 C3          6.7014   54.4418   26.8668 C.ar      1 UNK         0.0000 
      4 C4          5.9004   54.0593   27.9402 C.ar      1 UNK         0.0000 
      5 C5          4.5118   53.9571   27.7847 C.ar      1 UNK         0.0000 
      6 C6          3.9400   54.2691   26.5433 C.ar      1 UNK         0.0000 
      7 C7          4.7366   54.6549   25.4737 C.ar      1 UNK         0.0000 
      8 C8          3.6463   53.5378   28.9475 C.2       1 UNK         0.0000 
      9 O9          3.9044   53.9364   30.0817 O.2       1 UNK         0.0000 
     10 N10         2.6279   52.7088   28.6141 N.am      1 UNK         0.0000 
     11 C11         1.4955   52.2876   29.2740 C.2       1 UNK         0.0000 
     12 S12         1.1106   52.5005   30.8817 S.2       1 UNK         0.0000 
     13 N13         0.5960   51.5980   28.5088 N.pl3     1 UNK         0.0000 
     14 C14         0.5110   51.5714   27.1071 C.ar      1 UNK         0.0000 
     15 C15         0.2360   50.3779   26.4349 C.ar      1 UNK         0.0000 
     16 C16         0.2453   50.3506   25.0395 C.ar      1 UNK         0.0000 
     17 C17         0.5211   51.5191   24.3177 C.ar      1 UNK         0.0000 
     18 C18         0.7083   52.7253   25.0043 C.ar      1 UNK         0.0000 
     19 C19         0.7025   52.7480   26.3848 C.ar      1 UNK         0.0000 
     20 C20         0.6378   51.4957   22.8178 C.2       1 UNK         0.0000 
     21 O21        -0.0571   50.7635   22.1137 O.2       1 UNK         0.0000 
     22 N22         1.5713   52.3444   22.3600 N.am      1 UNK         0.0000 
     23 C23         1.8756   52.7548   20.9971 C.3       1 UNK         0.0000 
     24 C24         3.1055   53.6961   21.0365 C.3       1 UNK         0.0000 
     25 C25         4.3808   52.9892   21.5302 C.3       1 UNK         0.0000 
     26 C26         4.6870   51.7550   20.6630 C.3       1 UNK         0.0000 
     27 C27         3.4717   50.8207   20.4676 C.3       1 UNK         0.0000 
     28 C28         2.2149   51.5967   20.0282 C.3       1 UNK         0.0000 
     29 H29         7.6934   55.9334   24.7840 H         1 UNK         0.0000 
     30 H30         7.5044   54.3304   24.0503 H         1 UNK         0.0000 
     31 H31         6.3743   55.6411   23.6751 H         1 UNK         0.0000 
     32 H32         7.7694   54.4963   27.0059 H         1 UNK         0.0000 
     33 H33         6.3716   53.8358   28.8864 H         1 UNK         0.0000 
     34 H34         2.8752   54.2389   26.3924 H         1 UNK         0.0000 
     35 H35         4.2757   54.8920   24.5253 H         1 UNK         0.0000 
     36 H36         2.6498   52.4331   27.6438 H         1 UNK         0.0000 
     37 H37        -0.1660   51.1461   28.9966 H         1 UNK         0.0000 
     38 H38         0.0376   49.4630   26.9740 H         1 UNK         0.0000 
     39 H39         0.0731   49.4127   24.5292 H         1 UNK         0.0000 
     40 H40         0.8691   53.6576   24.4794 H         1 UNK         0.0000 
     41 H41         0.8417   53.6934   26.8940 H         1 UNK         0.0000 
     42 H42         2.0719   52.8624   23.0644 H         1 UNK         0.0000 
     43 H43         0.9958   53.2897   20.6331 H         1 UNK         0.0000 
     44 H44         3.2967   54.0961   20.0396 H         1 UNK         0.0000 
     45 H45         2.9044   54.5520   21.6826 H         1 UNK         0.0000 
     46 H46         5.2261   53.6778   21.5055 H         1 UNK         0.0000 
     47 H47         4.2631   52.6954   22.5717 H         1 UNK         0.0000 
     48 H48         5.0406   52.0959   19.6884 H         1 UNK         0.0000 
     49 H49         5.5042   51.2005   21.1110 H         1 UNK         0.0000 
     50 H50         3.6995   50.0709   19.7092 H         1 UNK         0.0000 
     51 H51         3.2677   50.2765   21.3902 H         1 UNK         0.0000 
     52 H52         1.3711   50.9126   19.9369 H         1 UNK         0.0000 
     53 H53         2.3689   51.9955   19.0239 H         1 UNK         0.0000 
@<TRIPOS>BOND
     1    1    2 1    
     2    1   29 1    
     3    1   30 1    
     4    1   31 1    
     5    2    7 ar   
     6    2    3 ar   
     7    3    4 ar   
     8    3   32 1    
     9    4    5 ar   
    10    4   33 1    
    11    5    6 ar   
    12    5    8 1    
    13    6    7 ar   
    14    6   34 1    
    15    7   35 1    
    16    8    9 2    
    17    8   10 am   BACKBONE|DICT|INTERRES
    18   10   11 am   BACKBONE|DICT|INTERRES
    19   10   36 1    
    20   11   12 2    
    21   11   13 1    
    22   13   14 1    
    23   13   37 1    
    24   14   19 ar   
    25   14   15 ar   
    26   15   16 ar   
    27   15   38 1    
    28   16   17 ar   
    29   16   39 1    
    30   17   18 ar   
    31   17   20 1    
    32   18   19 ar   
    33   18   40 1    
    34   19   41 1    
    35   20   21 2    
    36   20   22 am   BACKBONE|DICT|INTERRES
    37   22   23 1    
    38   22   42 1    
    39   23   28 1    
    40   23   24 1    
    41   23   43 1    
    42   24   25 1    
    43   24   44 1    
    44   24   45 1    
    45   25   26 1    
    46   25   46 1    
    47   25   47 1    
    48   26   27 1    
    49   26   48 1    
    50   26   49 1    
    51   27   28 1    
    52   27   50 1    
    53   27   51 1    
    54   28   52 1    
    55   28   53 1    
@<TRIPOS>SUBSTRUCTURE
     1 UNK         1 GROUP             0       ****    0 ROOT    
