@<TRIPOS>MOLECULE
ZINC39679239_1960
51   54    1
SMALL
USER_CHARGES


@<TRIPOS>ATOM
      1 C1         -2.0299   50.3828   24.5521 C.ar      1 UNK         0.0000 
      2 C2         -2.0906   50.5459   25.9361 C.ar      1 UNK         0.0000 
      3 C3         -1.1906   51.3858   26.5962 C.ar      1 UNK         0.0000 
      4 C4         -0.1822   52.0365   25.8538 C.ar      1 UNK         0.0000 
      5 C5         -0.1528   51.8985   24.4644 C.ar      1 UNK         0.0000 
      6 C6         -1.0718   51.0774   23.8110 C.ar      1 UNK         0.0000 
      7 S7         -0.9779   50.8907   22.0336 S.o2      1 UNK         0.0000 
      8 O8         -2.3230   50.5299   21.5696 O.2       1 UNK         0.0000 
      9 O9         -0.3175   52.0897   21.5044 O.2       1 UNK         0.0000 
     10 N10         0.0766   49.4734   21.7852 N.pl3     1 UNK         0.0000 
     11 C11        -0.0113   48.8558   20.4386 C.3       1 UNK         0.0000 
     12 C12         0.7115   49.7233   19.3848 C.3       1 UNK         0.0000 
     13 C13         2.1819   49.9925   19.7954 C.3       1 UNK         0.0000 
     14 C14         2.3395   50.4560   21.2673 C.3       1 UNK         0.0000 
     15 C15         1.4930   49.5940   22.2327 C.3       1 UNK         0.0000 
     16 N16         0.7840   52.8961   26.3946 N.am      1 UNK         0.0000 
     17 C17         1.6322   52.6166   27.3989 C.2       1 UNK         0.0000 
     18 O18         1.6100   51.5470   28.0115 O.2       1 UNK         0.0000 
     19 C19         2.7854   53.6464   27.5881 C.3       1 UNK         0.0000 
     20 H20         2.9107   54.1408   26.6225 H         1 UNK         0.0000 
     21 C21         4.1592   52.9775   27.9230 C.3       1 UNK         0.0000 
     22 H22         4.6546   52.4968   27.0846 H         1 UNK         0.0000 
     23 C23         4.9776   54.1404   28.4161 C.3       1 UNK         0.0000 
     24 C24         3.9787   54.4812   29.4994 C.3       1 UNK         0.0000 
     25 H25         4.3601   55.2967   30.0818 H         1 UNK         0.0000 
     26 C26         2.6537   54.7325   28.7274 C.3       1 UNK         0.0000 
     27 H27         2.7789   55.6973   28.2338 H         1 UNK         0.0000 
     28 C28         1.3979   54.9230   29.6100 C.2       1 UNK         0.0000 
     29 O29         0.7879   53.9164   30.0247 O.co2     1 UNK         0.0000 
     30 O30         1.1047   56.1008   29.9124 O.co2     1 UNK         0.0000 
     31 C31         3.9042   53.1306   30.2057 C.2       1 UNK         0.0000 
     32 C32         4.0771   52.2133   29.2458 C.2       1 UNK         0.0000 
     33 Cl33       -1.4127   51.6256   28.2978 Cl        1 UNK         0.0000 
     34 H34        -2.7349   49.7283   24.0594 H         1 UNK         0.0000 
     35 H35        -2.8441   50.0199   26.5060 H         1 UNK         0.0000 
     36 H36         0.6003   52.4146   23.8845 H         1 UNK         0.0000 
     37 H37         0.5297   47.9093   20.4797 H         1 UNK         0.0000 
     38 H38        -1.0452   48.5861   20.2191 H         1 UNK         0.0000 
     39 H39         0.6881   49.2272   18.4137 H         1 UNK         0.0000 
     40 H40         0.1806   50.6663   19.2499 H         1 UNK         0.0000 
     41 H41         2.6364   50.7202   19.1197 H         1 UNK         0.0000 
     42 H42         2.7506   49.0712   19.6565 H         1 UNK         0.0000 
     43 H43         2.0743   51.5082   21.3607 H         1 UNK         0.0000 
     44 H44         3.3901   50.4034   21.5554 H         1 UNK         0.0000 
     45 H45         1.5376   49.8571   23.2899 H         1 UNK         0.0000 
     46 H46         1.9206   48.5895   22.1859 H         1 UNK         0.0000 
     47 H47         1.0393   53.6807   25.8167 H         1 UNK         0.0000 
     48 H48         5.9718   53.8724   28.7873 H         1 UNK         0.0000 
     49 H49         5.1000   54.9328   27.6744 H         1 UNK         0.0000 
     50 H50         3.7436   52.9676   31.2602 H         1 UNK         0.0000 
     51 H51         4.0662   51.1414   29.3243 H         1 UNK         0.0000 
@<TRIPOS>BOND
     1    1    6 ar   
     2    1    2 ar   
     3    1   34 1    
     4    2    3 ar   
     5    2   35 1    
     6    3    4 ar   
     7    3   33 1    
     8    4    5 ar   
     9    4   16 1    
    10    5    6 ar   
    11    5   36 1    
    12    6    7 1    
    13    7    8 2    
    14    7    9 2    
    15    7   10 1    
    16   10   15 1    
    17   10   11 1    
    18   11   12 1    
    19   11   37 1    
    20   11   38 1    
    21   12   13 1    
    22   12   39 1    
    23   12   40 1    
    24   13   14 1    
    25   13   41 1    
    26   13   42 1    
    27   14   15 1    
    28   14   43 1    
    29   14   44 1    
    30   15   45 1    
    31   15   46 1    
    32   16   17 am   BACKBONE|DICT|INTERRES
    33   16   47 1    
    34   17   18 2    
    35   17   19 1    
    36   19   20 1    
    37   19   26 1    
    38   19   21 1    
    39   21   22 1    
    40   21   32 1    
    41   21   23 1    
    42   23   24 1    
    43   23   48 1    
    44   23   49 1    
    45   24   25 1    
    46   24   26 1    
    47   24   31 1    
    48   26   27 1    
    49   26   28 1    
    50   28   29 2    
    51   28   30 1    
    52   31   32 2    
    53   31   50 1    
    54   32   51 1    
@<TRIPOS>SUBSTRUCTURE
     1 UNK         1 GROUP             0       ****    0 ROOT    
