@<TRIPOS>MOLECULE
ZINC00422114_3759
42   44    1
SMALL
USER_CHARGES


@<TRIPOS>ATOM
      1 C1          6.9899   54.1724   26.9871 C.3       1 UNK         0.0000 
      2 C2          5.4785   54.1537   26.8478 C.ar      1 UNK         0.0000 
      3 C3          4.7137   54.1443   28.0198 C.ar      1 UNK         0.0000 
      4 C4          3.3220   54.1101   27.9443 C.ar      1 UNK         0.0000 
      5 N5          2.6316   54.0958   26.7772 N.ar      1 UNK         0.0000 
      6 C6          3.3632   54.1010   25.6609 C.ar      1 UNK         0.0000 
      7 C7          4.7926   54.1216   25.6057 C.ar      1 UNK         0.0000 
      8 C8          5.2465   54.0967   24.2390 C.2       1 UNK         0.0000 
      9 C9          4.2038   53.9544   23.3158 C.2       1 UNK         0.0000 
     10 S10         2.6263   54.0943   24.0670 S.3       1 UNK         0.0000 
     11 C11         4.3122   53.7959   21.8787 C.2       1 UNK         0.0000 
     12 O12         5.0177   54.6042   21.2706 O.2       1 UNK         0.0000 
     13 N13         3.6932   52.7414   21.2653 N.am      1 UNK         0.0000 
     14 C14         2.9736   51.6471   21.9604 C.3       1 UNK         0.0000 
     15 C15         1.5874   51.4881   21.3034 C.3       1 UNK         0.0000 
     16 C16         1.7056   51.2361   19.7950 C.3       1 UNK         0.0000 
     17 C17         2.5031   52.3728   19.1352 C.3       1 UNK         0.0000 
     18 H18         1.9480   53.2916   19.3059 H         1 UNK         0.0000 
     19 C19         3.8902   52.5419   19.8087 C.3       1 UNK         0.0000 
     20 C20         2.6247   52.1908   17.6147 C.3       1 UNK         0.0000 
     21 N21         6.5702   54.1430   23.8656 N.pl3     1 UNK         0.0000 
     22 C22         2.4749   54.0871   29.2015 C.3       1 UNK         0.0000 
     23 H23         7.3146   54.3119   28.0213 H         1 UNK         0.0000 
     24 H24         7.4029   53.2309   26.6174 H         1 UNK         0.0000 
     25 H25         7.4119   54.9860   26.3977 H         1 UNK         0.0000 
     26 H26         5.1993   54.1592   28.9873 H         1 UNK         0.0000 
     27 H27         2.8364   51.8013   23.0247 H         1 UNK         0.0000 
     28 H28         3.5438   50.7270   21.8231 H         1 UNK         0.0000 
     29 H29         0.9911   52.3812   21.4950 H         1 UNK         0.0000 
     30 H30         1.0543   50.6632   21.7760 H         1 UNK         0.0000 
     31 H31         0.7180   51.1434   19.3401 H         1 UNK         0.0000 
     32 H32         2.1978   50.2804   19.6018 H         1 UNK         0.0000 
     33 H33         4.4937   51.6455   19.6770 H         1 UNK         0.0000 
     34 H34         4.4079   53.3742   19.3297 H         1 UNK         0.0000 
     35 H35         3.1063   51.2497   17.3577 H         1 UNK         0.0000 
     36 H36         3.2056   52.9962   17.1638 H         1 UNK         0.0000 
     37 H37         1.6447   52.1950   17.1380 H         1 UNK         0.0000 
     38 H38         7.3267   54.2524   24.5270 H         1 UNK         0.0000 
     39 H39         6.8161   54.2104   22.8855 H         1 UNK         0.0000 
     40 H40         3.0487   53.7391   30.0612 H         1 UNK         0.0000 
     41 H41         2.1003   55.0868   29.4205 H         1 UNK         0.0000 
     42 H42         1.6181   53.4204   29.0836 H         1 UNK         0.0000 
@<TRIPOS>BOND
     1    1    2 1    
     2    1   23 1    
     3    1   24 1    
     4    1   25 1    
     5    2    7 ar   
     6    2    3 ar   
     7    3    4 ar   
     8    3   26 1    
     9    4    5 ar   
    10    4   22 1    
    11    5    6 ar   
    12    6   10 1    
    13    6    7 ar   
    14    7    8 1    
    15    8    9 2    
    16    8   21 1    
    17    9   10 1    
    18    9   11 1    
    19   11   12 2    
    20   11   13 am   BACKBONE|DICT|INTERRES
    21   13   19 1    
    22   13   14 1    
    23   14   15 1    
    24   14   27 1    
    25   14   28 1    
    26   15   16 1    
    27   15   29 1    
    28   15   30 1    
    29   16   17 1    
    30   16   31 1    
    31   16   32 1    
    32   17   18 1    
    33   17   19 1    
    34   17   20 1    
    35   19   33 1    
    36   19   34 1    
    37   20   35 1    
    38   20   36 1    
    39   20   37 1    
    40   21   38 1    
    41   21   39 1    
    42   22   40 1    
    43   22   41 1    
    44   22   42 1    
@<TRIPOS>SUBSTRUCTURE
     1 UNK         1 GROUP             0       ****    0 ROOT    
