@<TRIPOS>MOLECULE
ZINC15946648_160
64   67    1
SMALL
USER_CHARGES


@<TRIPOS>ATOM
      1 C1          6.1653   53.4707   17.2680 C.3       1 UNK         0.0000 
      2 C2          4.6151   53.5013   17.2739 C.3       1 UNK         0.0000 
      3 H3          4.2265   54.5154   17.1415 H         1 UNK         0.0000 
      4 C4          4.0754   52.5759   16.1511 C.3       1 UNK         0.0000 
      5 C5          2.6164   52.1086   16.2946 C.3       1 UNK         0.0000 
      6 C6          2.3301   51.5819   17.7037 C.3       1 UNK         0.0000 
      7 C7          2.6311   52.6607   18.7436 C.3       1 UNK         0.0000 
      8 C8          4.4074   54.1241   19.7668 C.3       1 UNK         0.0000 
      9 C9          4.7023   53.5495   21.1653 C.2       1 UNK         0.0000 
     10 O10         4.6288   52.3430   21.4083 O.2       1 UNK         0.0000 
     11 N11         5.0297   54.4968   22.0636 N.am      1 UNK         0.0000 
     12 C12         5.1315   54.3319   23.4328 C.2       1 UNK         0.0000 
     13 C13         4.1394   54.0427   24.4021 C.2       1 UNK         0.0000 
     14 C14         4.7239   54.0898   25.6975 C.2       1 UNK         0.0000 
     15 C15         6.0723   54.3728   25.6948 C.2       1 UNK         0.0000 
     16 S16         6.7027   54.6272   24.1141 S.3       1 UNK         0.0000 
     17 C17         6.6886   54.3836   27.0678 C.3       1 UNK         0.0000 
     18 C18         5.4508   54.3089   27.9736 C.3       1 UNK         0.0000 
     19 C19         4.2598   53.8405   27.1198 C.3       1 UNK         0.0000 
     20 C20         2.7276   53.8082   24.1185 C.2       1 UNK         0.0000 
     21 O21         2.2287   54.1317   23.0386 O.2       1 UNK         0.0000 
     22 N22         2.0610   53.1824   25.1136 N.am      1 UNK         0.0000 
     23 C23         0.7754   52.6064   25.1354 C.ar      1 UNK         0.0000 
     24 C24        -0.0412   52.4787   24.0000 C.ar      1 UNK         0.0000 
     25 C25        -1.2780   51.8496   24.0931 C.ar      1 UNK         0.0000 
     26 C26        -1.7175   51.3104   25.2977 C.ar      1 UNK         0.0000 
     27 C27        -0.9117   51.4503   26.4367 C.ar      1 UNK         0.0000 
     28 C28         0.3284   52.1072   26.3736 C.ar      1 UNK         0.0000 
     29 O29         1.1542   52.2853   27.4750 O.3       1 UNK         0.0000 
     30 C30         0.6714   51.9588   28.7743 C.3       1 UNK         0.0000 
     31 O31        -2.9355   50.6623   25.2744 O.3       1 UNK         0.0000 
     32 C32        -3.2710   49.7999   26.3569 C.3       1 UNK         0.0000 
     33 H33         6.5499   53.6568   16.2618 H         1 UNK         0.0000 
     34 H34         6.5511   52.4948   17.5805 H         1 UNK         0.0000 
     35 H35         6.6187   54.2271   17.9086 H         1 UNK         0.0000 
     36 H36         4.1887   53.0774   15.1878 H         1 UNK         0.0000 
     37 H37         4.7140   51.6967   16.0822 H         1 UNK         0.0000 
     38 H38         1.9390   52.9335   16.0606 H         1 UNK         0.0000 
     39 H39         2.4100   51.3261   15.5618 H         1 UNK         0.0000 
     40 H40         1.2876   51.2691   17.7798 H         1 UNK         0.0000 
     41 H41         2.9298   50.6928   17.9095 H         1 UNK         0.0000 
     42 H42         2.0491   53.5667   18.5672 H         1 UNK         0.0000 
     43 H43         2.4377   52.2768   19.7488 H         1 UNK         0.0000 
     44 H44         5.2195   54.7679   19.4396 H         1 UNK         0.0000 
     45 H45         3.5122   54.7493   19.8096 H         1 UNK         0.0000 
     46 H46         5.2543   55.4162   21.7117 H         1 UNK         0.0000 
     47 H47         7.3527   53.5332   27.2285 H         1 UNK         0.0000 
     48 H48         7.2508   55.2931   27.2800 H         1 UNK         0.0000 
     49 H49         5.6168   53.6578   28.8339 H         1 UNK         0.0000 
     50 H50         5.2358   55.2965   28.3814 H         1 UNK         0.0000 
     51 H51         3.3535   54.3846   27.3879 H         1 UNK         0.0000 
     52 H52         4.0775   52.7805   27.3004 H         1 UNK         0.0000 
     53 H53         2.5755   53.0328   25.9704 H         1 UNK         0.0000 
     54 H54         0.2644   52.8380   23.0306 H         1 UNK         0.0000 
     55 H55        -1.8885   51.7504   23.2099 H         1 UNK         0.0000 
     56 H56        -1.2524   51.0406   27.3728 H         1 UNK         0.0000 
     57 H57         1.4315   52.2082   29.5122 H         1 UNK         0.0000 
     58 H58        -0.2273   52.5254   29.0187 H         1 UNK         0.0000 
     59 H59         0.4572   50.8965   28.8688 H         1 UNK         0.0000 
     60 H60        -4.2173   49.3035   26.1444 H         1 UNK         0.0000 
     61 H61        -2.5146   49.0243   26.4815 H         1 UNK         0.0000 
     62 H62        -3.3891   50.3439   27.2948 H         1 UNK         0.0000 
     63 N63         4.1364   53.0318   18.6850 N.4       1 UNK         0.0000 
     64 H64         4.6511   52.1774   18.8882 H         1 UNK         0.0000 
@<TRIPOS>BOND
     1    1    2 1    
     2    1   33 1    
     3    1   34 1    
     4    1   35 1    
     5    2    3 1    
     6    2    4 1    
     7    2   63 1    
     8    4    5 1    
     9    4   36 1    
    10    4   37 1    
    11    5    6 1    
    12    5   38 1    
    13    5   39 1    
    14    6    7 1    
    15    6   40 1    
    16    6   41 1    
    17    7   42 1    
    18    7   43 1    
    19    7   63 1    
    20    8    9 1    
    21    8   44 1    
    22    8   45 1    
    23    8   63 1    
    24    9   10 2    
    25    9   11 am   BACKBONE|DICT|INTERRES
    26   11   12 am   BACKBONE|DICT|INTERRES
    27   11   46 1    
    28   12   16 1    
    29   12   13 2    
    30   13   14 1    
    31   13   20 1    
    32   14   19 1    
    33   14   15 2    
    34   15   16 1    
    35   15   17 1    
    36   17   18 1    
    37   17   47 1    
    38   17   48 1    
    39   18   19 1    
    40   18   49 1    
    41   18   50 1    
    42   19   51 1    
    43   19   52 1    
    44   20   21 2    
    45   20   22 am   BACKBONE|DICT|INTERRES
    46   22   23 1    
    47   22   53 1    
    48   23   28 ar   
    49   23   24 ar   
    50   24   25 ar   
    51   24   54 1    
    52   25   26 ar   
    53   25   55 1    
    54   26   27 ar   
    55   26   31 1    
    56   27   28 ar   
    57   27   56 1    
    58   28   29 1    
    59   29   30 1    
    60   30   57 1    
    61   30   58 1    
    62   30   59 1    
    63   31   32 1    
    64   32   60 1    
    65   32   61 1    
    66   32   62 1    
    67   63   64 1    
@<TRIPOS>SUBSTRUCTURE
     1 UNK         1 GROUP             0       ****    0 ROOT    
