@<TRIPOS>MOLECULE
ZINC03500101_4571
53   55    1
SMALL
USER_CHARGES


@<TRIPOS>ATOM
      1 C1         -3.3413   47.5046   25.6917 C.3       1 UNK         0.0000 
      2 C2         -2.3599   48.3818   24.9357 C.ar      1 UNK         0.0000 
      3 C3         -2.7841   49.5823   24.3659 C.ar      1 UNK         0.0000 
      4 C4         -1.8694   50.3982   23.7046 C.ar      1 UNK         0.0000 
      5 C5         -0.5215   50.0280   23.6109 C.ar      1 UNK         0.0000 
      6 C6         -0.1046   48.8267   24.1953 C.ar      1 UNK         0.0000 
      7 C7         -1.0204   48.0050   24.8474 C.ar      1 UNK         0.0000 
      8 C8          0.4431   50.9405   22.9054 C.ar      1 UNK         0.0000 
      9 N9          0.2594   52.2360   22.8031 N.2       1 UNK         0.0000 
     10 N10         1.3208   52.7625   22.0823 N.2       1 UNK         0.0000 
     11 C11         2.1219   51.7727   21.7819 C.ar      1 UNK         0.0000 
     12 N12         1.6178   50.5839   22.2646 N.pl3     1 UNK         0.0000 
     13 N13         2.1559   49.3173   22.0809 N.3       1 UNK         0.0000 
     14 S14         3.5784   51.9157   20.7876 S.3       1 UNK         0.0000 
     15 C15         4.1086   53.6221   21.1677 C.3       1 UNK         0.0000 
     16 H16         3.2205   54.2539   21.1739 H         1 UNK         0.0000 
     17 C17         5.0123   54.1833   20.0499 C.3       1 UNK         0.0000 
     18 C18         4.7836   53.6966   22.5481 C.2       1 UNK         0.0000 
     19 O19         5.9024   53.2088   22.6970 O.2       1 UNK         0.0000 
     20 N20         4.0712   54.2663   23.5393 N.am      1 UNK         0.0000 
     21 C21         4.4204   54.3653   24.9007 C.ar      1 UNK         0.0000 
     22 C22         5.6687   54.8480   25.3665 C.ar      1 UNK         0.0000 
     23 C23         5.9134   54.8954   26.7412 C.ar      1 UNK         0.0000 
     24 C24         4.9424   54.4946   27.6567 C.ar      1 UNK         0.0000 
     25 C25         3.7086   54.0442   27.1996 C.ar      1 UNK         0.0000 
     26 C26         3.4351   53.9818   25.8331 C.ar      1 UNK         0.0000 
     27 C27         2.0718   53.4517   25.4024 C.3       1 UNK         0.0000 
     28 C28         5.2513   54.4955   29.1396 C.3       1 UNK         0.0000 
     29 C29         6.7754   55.3647   24.4547 C.3       1 UNK         0.0000 
     30 H30        -4.1737   48.0922   26.0796 H         1 UNK         0.0000 
     31 H31        -3.7258   46.7115   25.0520 H         1 UNK         0.0000 
     32 H32        -2.8548   47.0524   26.5578 H         1 UNK         0.0000 
     33 H33        -3.8174   49.8859   24.4396 H         1 UNK         0.0000 
     34 H34        -2.2149   51.3250   23.2665 H         1 UNK         0.0000 
     35 H35         0.9307   48.5212   24.1720 H         1 UNK         0.0000 
     36 H36        -0.6829   47.0800   25.2835 H         1 UNK         0.0000 
     37 H37         2.3203   49.1234   21.1002 H         1 UNK         0.0000 
     38 H38         2.9779   49.1602   22.6504 H         1 UNK         0.0000 
     39 H39         5.3631   55.1924   20.2751 H         1 UNK         0.0000 
     40 H40         5.8858   53.5539   19.8889 H         1 UNK         0.0000 
     41 H41         4.4709   54.2300   19.1037 H         1 UNK         0.0000 
     42 H42         3.1077   54.4821   23.3263 H         1 UNK         0.0000 
     43 H43         6.8658   55.2475   27.1098 H         1 UNK         0.0000 
     44 H44         2.9638   53.7213   27.9137 H         1 UNK         0.0000 
     45 H45         1.5824   54.1508   24.7249 H         1 UNK         0.0000 
     46 H46         2.2003   52.5075   24.8741 H         1 UNK         0.0000 
     47 H47         1.3975   53.2836   26.2421 H         1 UNK         0.0000 
     48 H48         6.3118   54.2992   29.2815 H         1 UNK         0.0000 
     49 H49         4.7051   53.7046   29.6549 H         1 UNK         0.0000 
     50 H50         5.0094   55.4508   29.5996 H         1 UNK         0.0000 
     51 H51         6.3759   55.8385   23.5605 H         1 UNK         0.0000 
     52 H52         7.3826   56.1171   24.9508 H         1 UNK         0.0000 
     53 H53         7.4401   54.5507   24.1630 H         1 UNK         0.0000 
@<TRIPOS>BOND
     1    1    2 1    
     2    1   30 1    
     3    1   31 1    
     4    1   32 1    
     5    2    7 ar   
     6    2    3 ar   
     7    3    4 ar   
     8    3   33 1    
     9    4    5 ar   
    10    4   34 1    
    11    5    6 ar   
    12    5    8 1    
    13    6    7 ar   
    14    6   35 1    
    15    7   36 1    
    16    8   12 ar   
    17    8    9 ar   
    18    9   10 ar   
    19   10   11 ar   
    20   11   12 ar   
    21   11   14 1    
    22   12   13 1    
    23   13   37 1    
    24   13   38 1    
    25   14   15 1    
    26   15   16 1    
    27   15   17 1    
    28   15   18 1    
    29   17   39 1    
    30   17   40 1    
    31   17   41 1    
    32   18   19 2    
    33   18   20 am   BACKBONE|DICT|INTERRES
    34   20   21 1    
    35   20   42 1    
    36   21   26 ar   
    37   21   22 ar   
    38   22   23 ar   
    39   22   29 1    
    40   23   24 ar   
    41   23   43 1    
    42   24   25 ar   
    43   24   28 1    
    44   25   26 ar   
    45   25   44 1    
    46   26   27 1    
    47   27   45 1    
    48   27   46 1    
    49   27   47 1    
    50   28   48 1    
    51   28   49 1    
    52   28   50 1    
    53   29   51 1    
    54   29   52 1    
    55   29   53 1    
@<TRIPOS>SUBSTRUCTURE
     1 UNK         1 GROUP             0       ****    0 ROOT    
