@<TRIPOS>MOLECULE
ZINC39642036_5108
69   71    1
SMALL
USER_CHARGES


@<TRIPOS>ATOM
      1 C1          6.7057   53.3145   27.9933 C.3       1 UNK         0.0000 
      2 C2          5.1746   53.1262   27.9877 C.3       1 UNK         0.0000 
      3 C3          4.6139   52.8737   29.4076 C.3       1 UNK         0.0000 
      4 C4          4.4249   54.2479   27.1970 C.3       1 UNK         0.0000 
      5 H5          4.7062   55.2357   27.5699 H         1 UNK         0.0000 
      6 C6          2.9079   54.1345   27.3480 C.2       1 UNK         0.0000 
      7 O7          2.2657   54.8954   28.0768 O.2       1 UNK         0.0000 
      8 O8          2.3888   53.0335   26.7365 O.3       1 UNK         0.0000 
      9 C9          1.0331   52.6443   26.9516 C.3       1 UNK         0.0000 
     10 C10         0.5290   51.6748   25.8848 C.2       1 UNK         0.0000 
     11 C11        -0.1141   50.4264   26.3020 C.2       1 UNK         0.0000 
     12 C12        -0.5111   49.5084   25.3940 C.2       1 UNK         0.0000 
     13 O13        -1.1713   48.3568   25.6818 O.3       1 UNK         0.0000 
     14 O14        -0.3164   49.6762   24.0564 O.3       1 UNK         0.0000 
     15 C15         0.2778   50.8210   23.6172 C.ar      1 UNK         0.0000 
     16 C16         0.6952   51.8715   24.5473 C.ar      1 UNK         0.0000 
     17 C17         1.2803   53.0404   23.9010 C.ar      1 UNK         0.0000 
     18 C18         1.4558   53.1018   22.5551 C.ar      1 UNK         0.0000 
     19 C19         1.0881   52.0485   21.6993 C.ar      1 UNK         0.0000 
     20 C20         0.4742   50.9143   22.2789 C.ar      1 UNK         0.0000 
     21 N21         1.3572   52.2079   20.3950 N.pl3     1 UNK         0.0000 
     22 C22         1.0745   51.3109   19.3271 C.2       1 UNK         0.0000 
     23 O23         0.1796   50.4665   19.3186 O.2       1 UNK         0.0000 
     24 C24         1.9983   51.5279   18.1310 C.3       1 UNK         0.0000 
     25 N25         4.6985   54.1885   25.7478 N.am      1 UNK         0.0000 
     26 C26         5.7263   54.7698   25.0935 C.2       1 UNK         0.0000 
     27 O27         6.5895   55.4379   25.6700 O.2       1 UNK         0.0000 
     28 C28         5.7492   54.6105   23.5849 C.ar      1 UNK         0.0000 
     29 C29         6.7046   55.3034   22.8341 C.ar      1 UNK         0.0000 
     30 C30         6.6740   55.2962   21.4423 C.ar      1 UNK         0.0000 
     31 C31         5.7000   54.5597   20.7521 C.ar      1 UNK         0.0000 
     32 C32         4.7638   53.8388   21.5045 C.ar      1 UNK         0.0000 
     33 C33         4.7898   53.8575   22.8962 C.ar      1 UNK         0.0000 
     34 C34         5.6548   54.5010   19.2022 C.3       1 UNK         0.0000 
     35 C35         5.5212   53.0340   18.7272 C.3       1 UNK         0.0000 
     36 C36         6.9329   55.0759   18.5340 C.3       1 UNK         0.0000 
     37 C37         4.4410   55.3012   18.6786 C.3       1 UNK         0.0000 
     38 H38         6.9951   54.2426   28.4844 H         1 UNK         0.0000 
     39 H39         7.2296   52.4972   28.4751 H         1 UNK         0.0000 
     40 H40         7.1077   53.3278   26.9843 H         1 UNK         0.0000 
     41 H41         5.0007   52.1988   27.4521 H         1 UNK         0.0000 
     42 H42         4.7034   53.7682   30.0229 H         1 UNK         0.0000 
     43 H43         3.5611   52.5913   29.3923 H         1 UNK         0.0000 
     44 H44         5.1045   52.0474   29.9111 H         1 UNK         0.0000 
     45 H45         0.9752   52.1590   27.9273 H         1 UNK         0.0000 
     46 H46         0.3685   53.5023   27.0049 H         1 UNK         0.0000 
     47 H47        -0.3171   50.2415   27.3476 H         1 UNK         0.0000 
     48 H48         1.5579   53.9027   24.4914 H         1 UNK         0.0000 
     49 H49         1.8731   54.0032   22.1238 H         1 UNK         0.0000 
     50 H50         0.1566   50.0908   21.6605 H         1 UNK         0.0000 
     51 H51         1.8241   53.0653   20.1089 H         1 UNK         0.0000 
     52 H52         2.2455   52.5783   17.9802 H         1 UNK         0.0000 
     53 H53         2.9250   50.9657   18.2651 H         1 UNK         0.0000 
     54 H54         1.5248   51.1631   17.2191 H         1 UNK         0.0000 
     55 H55         4.0338   53.6564   25.2100 H         1 UNK         0.0000 
     56 H56         7.4730   55.8872   23.3236 H         1 UNK         0.0000 
     57 H57         7.4326   55.8587   20.9222 H         1 UNK         0.0000 
     58 H58         4.0021   53.2567   21.0134 H         1 UNK         0.0000 
     59 H59         4.0366   53.2956   23.4235 H         1 UNK         0.0000 
     60 H60         5.5832   52.9458   17.6418 H         1 UNK         0.0000 
     61 H61         4.5717   52.5849   19.0139 H         1 UNK         0.0000 
     62 H62         6.3045   52.4069   19.1487 H         1 UNK         0.0000 
     63 H63         7.0479   56.1431   18.7248 H         1 UNK         0.0000 
     64 H64         7.8342   54.5718   18.8848 H         1 UNK         0.0000 
     65 H65         6.9047   54.9630   17.4495 H         1 UNK         0.0000 
     66 H66         4.5413   56.3678   18.8824 H         1 UNK         0.0000 
     67 H67         4.3350   55.1992   17.5973 H         1 UNK         0.0000 
     68 H68         3.5054   54.9609   19.1239 H         1 UNK         0.0000 
     69 H69        -1.2952   48.2856   26.6474 H         1 UNK         0.0000 
@<TRIPOS>BOND
     1    1    2 1    
     2    1   38 1    
     3    1   39 1    
     4    1   40 1    
     5    2    3 1    
     6    2    4 1    
     7    2   41 1    
     8    3   42 1    
     9    3   43 1    
    10    3   44 1    
    11    4    5 1    
    12    4    6 1    
    13    4   25 1    
    14    6    7 2    
    15    6    8 1    
    16    8    9 1    
    17    9   10 1    
    18    9   45 1    
    19    9   46 1    
    20   10   16 2    
    21   10   11 1    
    22   11   12 2    
    23   11   47 1    
    24   12   13 1    
    25   12   14 1    
    26   13   69 1    
    27   14   15 1    
    28   15   20 ar   
    29   15   16 ar   
    30   16   17 ar   
    31   17   18 ar   
    32   17   48 1    
    33   18   19 ar   
    34   18   49 1    
    35   19   20 ar   
    36   19   21 2    
    37   20   50 1    
    38   21   22 1    
    39   21   51 1    
    40   22   23 2    
    41   22   24 1    
    42   24   52 1    
    43   24   53 1    
    44   24   54 1    
    45   25   26 am   BACKBONE|DICT|INTERRES
    46   25   55 1    
    47   26   27 2    
    48   26   28 1    
    49   28   33 ar   
    50   28   29 ar   
    51   29   30 ar   
    52   29   56 1    
    53   30   31 ar   
    54   30   57 1    
    55   31   32 ar   
    56   31   34 1    
    57   32   33 ar   
    58   32   58 1    
    59   33   59 1    
    60   34   35 1    
    61   34   36 1    
    62   34   37 1    
    63   35   60 1    
    64   35   61 1    
    65   35   62 1    
    66   36   63 1    
    67   36   64 1    
    68   36   65 1    
    69   37   66 1    
    70   37   67 1    
    71   37   68 1    
@<TRIPOS>SUBSTRUCTURE
     1 UNK         1 GROUP             0       ****    0 ROOT    
