@<TRIPOS>MOLECULE
ZINC41006611_3545
75   78    1
SMALL
USER_CHARGES


@<TRIPOS>ATOM
      1 C1          0.7046   49.1670   24.9768 C.3       1 UNK         0.0000 
      2 C2         -0.2441   50.3561   25.0610 C.ar      1 UNK         0.0000 
      3 C3         -0.7926   50.6751   26.3073 C.ar      1 UNK         0.0000 
      4 C4         -1.6931   51.7285   26.4361 C.ar      1 UNK         0.0000 
      5 C5         -2.0443   52.4821   25.3199 C.ar      1 UNK         0.0000 
      6 C6         -1.4842   52.1923   24.0757 C.ar      1 UNK         0.0000 
      7 C7         -0.5792   51.1250   23.9276 C.ar      1 UNK         0.0000 
      8 N8          0.0369   50.7833   22.7044 N.am      1 UNK         0.0000 
      9 C9         -0.2000   51.2237   21.4496 C.2       1 UNK         0.0000 
     10 O10        -1.0829   52.0305   21.1423 O.2       1 UNK         0.0000 
     11 C11         0.7492   50.6666   20.3505 C.3       1 UNK         0.0000 
     12 H12         1.4026   49.9335   20.8255 H         1 UNK         0.0000 
     13 C13         1.6281   51.8405   19.7729 C.3       1 UNK         0.0000 
     14 H14         0.9729   52.7058   19.6355 H         1 UNK         0.0000 
     15 C15         2.2404   51.5772   18.3404 C.3       1 UNK         0.0000 
     16 H16         3.0546   50.8595   18.4322 H         1 UNK         0.0000 
     17 C17         1.2340   50.9217   17.3366 C.3       1 UNK         0.0000 
     18 C18         0.7089   49.6216   17.9769 C.3       1 UNK         0.0000 
     19 C19        -0.0416   49.8633   19.2867 C.2       1 UNK         0.0000 
     20 O20        -1.1713   49.4034   19.4588 O.2       1 UNK         0.0000 
     21 C21         0.0695   51.8238   16.8536 C.3       1 UNK         0.0000 
     22 O22         1.9044   50.4986   16.1640 O.3       1 UNK         0.0000 
     23 C23         2.9045   52.8808   17.8009 C.2       1 UNK         0.0000 
     24 O24         2.2093   53.8482   17.4865 O.2       1 UNK         0.0000 
     25 N25         4.2540   52.8967   17.7796 N.am      1 UNK         0.0000 
     26 C26         5.0610   54.0090   17.5159 C.ar      1 UNK         0.0000 
     27 C27         5.9366   54.3935   18.5359 C.ar      1 UNK         0.0000 
     28 C28         6.7763   55.4934   18.3682 C.ar      1 UNK         0.0000 
     29 C29         6.7519   56.2097   17.1731 C.ar      1 UNK         0.0000 
     30 C30         5.8952   55.8218   16.1431 C.ar      1 UNK         0.0000 
     31 C31         5.0471   54.7186   16.2960 C.ar      1 UNK         0.0000 
     32 C32         4.1890   54.2961   15.1090 C.3       1 UNK         0.0000 
     33 C33         2.6695   52.3146   20.8164 C.ar      1 UNK         0.0000 
     34 C34         3.9649   51.7961   20.8173 C.ar      1 UNK         0.0000 
     35 C35         4.9175   52.3081   21.6819 C.ar      1 UNK         0.0000 
     36 C36         4.5991   53.2968   22.6087 C.ar      1 UNK         0.0000 
     37 C37         3.2831   53.7742   22.6596 C.ar      1 UNK         0.0000 
     38 C38         2.3331   53.2847   21.7684 C.ar      1 UNK         0.0000 
     39 O39         5.6305   53.6971   23.4404 O.3       1 UNK         0.0000 
     40 C40         5.3801   54.5187   24.5800 C.3       1 UNK         0.0000 
     41 C41         4.8075   53.7056   25.7536 C.3       1 UNK         0.0000 
     42 C42         6.7044   55.2049   24.9426 C.3       1 UNK         0.0000 
     43 H43         0.9709   48.7738   25.9602 H         1 UNK         0.0000 
     44 H44         0.2522   48.3616   24.3991 H         1 UNK         0.0000 
     45 H45         1.6304   49.4533   24.4789 H         1 UNK         0.0000 
     46 H46        -0.5316   50.0965   27.1835 H         1 UNK         0.0000 
     47 H47        -2.1206   51.9533   27.4025 H         1 UNK         0.0000 
     48 H48        -2.7451   53.2961   25.4210 H         1 UNK         0.0000 
     49 H49        -1.7680   52.8201   23.2475 H         1 UNK         0.0000 
     50 H50         0.7570   50.0848   22.7990 H         1 UNK         0.0000 
     51 H51         0.0394   49.1041   17.2892 H         1 UNK         0.0000 
     52 H52         1.5343   48.9406   18.1881 H         1 UNK         0.0000 
     53 H53        -0.4539   52.2930   17.6863 H         1 UNK         0.0000 
     54 H54         0.4139   52.6214   16.1940 H         1 UNK         0.0000 
     55 H55        -0.6661   51.2521   16.2866 H         1 UNK         0.0000 
     56 H56         2.6855   49.9731   16.4085 H         1 UNK         0.0000 
     57 H57         4.7275   52.0443   18.0810 H         1 UNK         0.0000 
     58 H58         5.9592   53.8492   19.4690 H         1 UNK         0.0000 
     59 H59         7.4454   55.7890   19.1629 H         1 UNK         0.0000 
     60 H60         7.4020   57.0611   17.0390 H         1 UNK         0.0000 
     61 H61         5.9013   56.3775   15.2157 H         1 UNK         0.0000 
     62 H62         4.0681   53.2133   15.0771 H         1 UNK         0.0000 
     63 H63         3.2029   54.7571   15.1630 H         1 UNK         0.0000 
     64 H64         4.6563   54.5770   14.1649 H         1 UNK         0.0000 
     65 H65         4.2665   51.0149   20.1371 H         1 UNK         0.0000 
     66 H66         5.9049   51.8942   21.6646 H         1 UNK         0.0000 
     67 H67         2.9708   54.5256   23.3665 H         1 UNK         0.0000 
     68 H68         1.3342   53.6950   21.7970 H         1 UNK         0.0000 
     69 H69         4.6711   55.2969   24.3317 H         1 UNK         0.0000 
     70 H70         4.6030   54.3480   26.6105 H         1 UNK         0.0000 
     71 H71         3.8671   53.2260   25.4828 H         1 UNK         0.0000 
     72 H72         5.5047   52.9357   26.0827 H         1 UNK         0.0000 
     73 H73         6.5868   55.8655   25.8023 H         1 UNK         0.0000 
     74 H74         7.4768   54.4739   25.1791 H         1 UNK         0.0000 
     75 H75         7.0714   55.8088   24.1127 H         1 UNK         0.0000 
@<TRIPOS>BOND
     1    1    2 1    
     2    1   43 1    
     3    1   44 1    
     4    1   45 1    
     5    2    7 ar   
     6    2    3 ar   
     7    3    4 ar   
     8    3   46 1    
     9    4    5 ar   
    10    4   47 1    
    11    5    6 ar   
    12    5   48 1    
    13    6    7 ar   
    14    6   49 1    
    15    7    8 1    
    16    8    9 am   BACKBONE|DICT|INTERRES
    17    8   50 1    
    18    9   10 2    
    19    9   11 1    
    20   11   12 1    
    21   11   19 1    
    22   11   13 1    
    23   13   14 1    
    24   13   15 1    
    25   13   33 1    
    26   15   16 1    
    27   15   17 1    
    28   15   23 1    
    29   17   18 1    
    30   17   21 1    
    31   17   22 1    
    32   18   19 1    
    33   18   51 1    
    34   18   52 1    
    35   19   20 2    
    36   21   53 1    
    37   21   54 1    
    38   21   55 1    
    39   22   56 1    
    40   23   24 2    
    41   23   25 am   BACKBONE|DICT|INTERRES
    42   25   26 1    
    43   25   57 1    
    44   26   31 ar   
    45   26   27 ar   
    46   27   28 ar   
    47   27   58 1    
    48   28   29 ar   
    49   28   59 1    
    50   29   30 ar   
    51   29   60 1    
    52   30   31 ar   
    53   30   61 1    
    54   31   32 1    
    55   32   62 1    
    56   32   63 1    
    57   32   64 1    
    58   33   38 ar   
    59   33   34 ar   
    60   34   35 ar   
    61   34   65 1    
    62   35   36 ar   
    63   35   66 1    
    64   36   37 ar   
    65   36   39 1    
    66   37   38 ar   
    67   37   67 1    
    68   38   68 1    
    69   39   40 1    
    70   40   41 1    
    71   40   42 1    
    72   40   69 1    
    73   41   70 1    
    74   41   71 1    
    75   41   72 1    
    76   42   73 1    
    77   42   74 1    
    78   42   75 1    
@<TRIPOS>SUBSTRUCTURE
     1 UNK         1 GROUP             0       ****    0 ROOT    
