ZINC01305059_2867
                    3D
 Schrodinger Suite 2024-2.
 65 68  0  0  1  0            999 V2000
    0.7982   42.4933   16.9882 C   0  0  0  0  0  0
    1.0862   43.9827   16.9436 C   0  0  0  0  0  0
    1.9063   44.5092   15.9461 C   0  0  0  0  0  0
    2.1810   45.8754   15.9119 C   0  0  0  0  0  0
    1.6245   46.7321   16.8656 C   0  0  0  0  0  0
    0.8264   46.2027   17.9045 C   0  0  0  0  0  0
    0.5602   44.8289   17.9238 C   0  0  0  0  0  0
    0.2911   47.0589   19.0494 C   0  0  0  0  0  0
    1.9036   48.0968   16.7102 N   0  0  0  0  0  0
    0.9745   49.0689   16.5680 C   0  0  0  0  0  0
   -0.2422   48.8686   16.5897 O   0  0  0  0  0  0
    1.5053   50.4831   16.2841 C   0  0  0  0  0  0
    0.4636   51.8413   16.9204 S   0  0  0  0  0  0
    0.8162   51.8749   18.6719 C   0  0  0  0  0  0
   -0.0984   51.9652   19.6610 C   0  0  0  0  0  0
    0.3146   51.9284   21.1449 C   0  0  2  0  0  0
   -0.2113   52.7517   21.6297 H   0  0  0  0  0  0
    1.8385   52.2077   21.3001 C   0  0  0  0  0  0
    2.6695   52.1991   20.2125 C   0  0  0  0  0  0
    2.1620   51.9475   18.9540 N   0  0  0  0  0  0
    4.1811   52.4204   20.2097 C   0  0  0  0  0  0
    2.2950   52.5032   22.6541 C   0  0  0  0  0  0
    1.9047   51.8441   23.6150 O   0  0  0  0  0  0
    3.1460   53.5473   22.7500 N   0  0  0  0  0  0
    3.9698   53.9091   23.8335 C   0  0  0  0  0  0
    5.3138   54.1166   23.4975 C   0  0  0  0  0  0
    6.2428   54.4966   24.4638 C   0  0  0  0  0  0
    5.8378   54.6751   25.7829 C   0  0  0  0  0  0
    4.5036   54.4763   26.1338 C   0  0  0  0  0  0
    3.5560   54.0903   25.1758 C   0  0  0  0  0  0
    2.1203   53.9059   25.6469 C   0  0  0  0  0  0
   -0.1859   50.6478   21.8027 C   0  0  0  0  0  0
    0.4045   49.4625   22.2266 C   0  0  0  0  0  0
   -0.6039   48.6852   22.8024 C   0  0  0  0  0  0
   -1.7710   49.4165   22.6853 C   0  0  0  0  0  0
   -1.5171   50.6048   22.0822 O   0  0  0  0  0  0
   -1.4932   52.0081   19.3540 C   0  0  0  0  0  0
   -2.6293   52.0971   19.1513 N   0  0  0  0  0  0
    1.5398   41.9249   16.4249 H   0  0  0  0  0  0
   -0.1933   42.2817   16.5873 H   0  0  0  0  0  0
    0.8384   42.1338   18.0155 H   0  0  0  0  0  0
    2.3261   43.8612   15.1919 H   0  0  0  0  0  0
    2.8133   46.2675   15.1287 H   0  0  0  0  0  0
   -0.0506   44.4142   18.7113 H   0  0  0  0  0  0
   -0.6950   47.4566   18.8111 H   0  0  0  0  0  0
    0.2127   46.4835   19.9721 H   0  0  0  0  0  0
    0.9593   47.8925   19.2714 H   0  0  0  0  0  0
    2.8822   48.3782   16.5602 H   0  0  0  0  0  0
    2.5262   50.6135   16.6392 H   0  0  0  0  0  0
    1.5396   50.5821   15.2000 H   0  0  0  0  0  0
    2.8164   51.8777   18.1881 H   0  0  0  0  0  0
    4.6592   51.8879   21.0325 H   0  0  0  0  0  0
    4.6540   52.0969   19.2843 H   0  0  0  0  0  0
    4.4049   53.4841   20.2972 H   0  0  0  0  0  0
    3.3873   53.9745   21.8688 H   0  0  0  0  0  0
    5.6535   53.9834   22.4796 H   0  0  0  0  0  0
    7.2773   54.6487   24.1889 H   0  0  0  0  0  0
    6.5569   54.9584   26.5375 H   0  0  0  0  0  0
    4.2117   54.6166   27.1645 H   0  0  0  0  0  0
    1.9136   54.4935   26.5409 H   0  0  0  0  0  0
    1.4091   54.2263   24.8858 H   0  0  0  0  0  0
    1.9302   52.8638   25.9018 H   0  0  0  0  0  0
    1.4520   49.2079   22.1471 H   0  0  0  0  0  0
   -0.4957   47.7101   23.2550 H   0  0  0  0  0  0
   -2.7955   49.2402   22.9776 H   0  0  0  0  0  0
  1  2  1  0  0  0
  1 39  1  0  0  0
  1 40  1  0  0  0
  1 41  1  0  0  0
  2  7  2  0  0  0
  2  3  1  0  0  0
  3  4  2  0  0  0
  3 42  1  0  0  0
  4  5  1  0  0  0
  4 43  1  0  0  0
  5  6  2  0  0  0
  5  9  1  0  0  0
  6  7  1  0  0  0
  6  8  1  0  0  0
  7 44  1  0  0  0
  8 45  1  0  0  0
  8 46  1  0  0  0
  8 47  1  0  0  0
  9 10  1  0  0  0
  9 48  1  0  0  0
 10 11  2  0  0  0
 10 12  1  0  0  0
 12 13  1  0  0  0
 12 49  1  0  0  0
 12 50  1  0  0  0
 13 14  1  0  0  0
 14 20  1  0  0  0
 14 15  2  0  0  0
 15 16  1  0  0  0
 15 37  1  0  0  0
 16 17  1  0  0  0
 16 18  1  0  0  0
 16 32  1  0  0  0
 18 19  2  0  0  0
 18 22  1  0  0  0
 19 20  1  0  0  0
 19 21  1  0  0  0
 20 51  1  0  0  0
 21 52  1  0  0  0
 21 53  1  0  0  0
 21 54  1  0  0  0
 22 23  2  0  0  0
 22 24  1  0  0  0
 24 25  1  0  0  0
 24 55  1  0  0  0
 25 30  2  0  0  0
 25 26  1  0  0  0
 26 27  2  0  0  0
 26 56  1  0  0  0
 27 28  1  0  0  0
 27 57  1  0  0  0
 28 29  2  0  0  0
 28 58  1  0  0  0
 29 30  1  0  0  0
 29 59  1  0  0  0
 30 31  1  0  0  0
 31 60  1  0  0  0
 31 61  1  0  0  0
 31 62  1  0  0  0
 32 36  1  0  0  0
 32 33  2  0  0  0
 33 34  1  0  0  0
 33 63  1  0  0  0
 34 35  2  0  0  0
 34 64  1  0  0  0
 35 36  1  0  0  0
 35 65  1  0  0  0
 37 38  3  0  0  0
M  END
> <i_i_glide_confnum>
333

> <i_i_glide_lignum>
2868

> <i_i_glide_posenum>
150

> <i_i_glide_rotatable_bonds>
10

> <i_m_Source_File_Index>
3520

> <b_m_subgroup_collapsed>
0

> <r_i_docking_score>
-5.08776

> <r_i_glide_ecoul>
-9.50382

> <r_i_glide_eff_state_penalty>
0

> <r_i_glide_einternal>
14.4528

> <r_i_glide_emodel>
-53.7814

> <r_i_glide_energy>
-42.9404

> <r_i_glide_erotb>
0.702128

> <r_i_glide_esite>
-0.230351

> <r_i_glide_evdw>
-33.4366

> <r_i_glide_gscore>
-5.08776

> <r_i_glide_hbond>
-0.401322

> <r_i_glide_ligand_efficiency>
-0.137507

> <r_i_glide_ligand_efficiency_ln>
-1.10342

> <r_i_glide_ligand_efficiency_sa>
-0.458204

> <r_i_glide_lipo>
-1.95446

> <r_i_glide_metal>
0

> <r_i_glide_rewards>
-0.106349

> <s_i_glide_gridfile>
wee1_glide-grid

> <s_m_Source_File>
wee1_decoys_glide_SP.sdf

> <s_m_Source_Path>
/Users/zhangxujun/Desktop

> <s_m_entry_id>
3795

> <s_m_entry_name>
wee1_decoys_glide_SP.3520

> <s_m_subgroup_title>
wee1_decoys_glide_SP

> <s_m_subgroupid>
wee1_decoys_glide_SP


$$$$
