ZINC00092501_1722
                    3D
 Schrodinger Suite 2024-2.
 39 40  0  0  1  0            999 V2000
    6.6687   55.5437   25.9075 C   0  0  0  0  0  0
    5.8854   54.2205   25.8092 C   0  0  0  0  0  0
    5.2094   54.1391   24.4246 C   0  0  0  0  0  0
    4.9025   53.9449   26.9889 C   0  0  2  0  0  0
    4.7307   52.8728   26.8857 H   0  0  0  0  0  0
    3.5316   54.5851   26.9027 C   0  0  0  0  0  0
    3.0633   54.5929   28.3573 C   0  0  2  0  0  0
    4.2992   54.8562   29.0246 O   0  0  0  0  0  0
    5.3946   54.1881   28.3389 N   0  0  0  0  0  0
    2.3718   53.2878   28.9272 C   0  0  0  0  0  0
    2.1936   53.2774   30.4811 C   0  0  0  0  0  0
    1.1425   52.3269   31.0895 C   0  0  0  0  0  0
   -0.1760   52.3476   30.3149 C   0  0  0  0  0  0
    0.0678   51.9492   28.8578 C   0  0  0  0  0  0
    1.0723   52.8835   28.1467 C   0  0  0  0  0  0
    3.1050   52.0842   28.7863 O   0  0  0  0  0  0
    2.2171   55.6953   28.6172 O   0  0  0  0  0  0
    6.0300   56.3953   25.6812 H   0  0  0  0  0  0
    7.4809   55.5624   25.1796 H   0  0  0  0  0  0
    7.1030   55.6926   26.8948 H   0  0  0  0  0  0
    6.6304   53.4231   25.8519 H   0  0  0  0  0  0
    4.6097   55.0256   24.2204 H   0  0  0  0  0  0
    5.9473   54.0515   23.6263 H   0  0  0  0  0  0
    4.5325   53.2951   24.3480 H   0  0  0  0  0  0
    3.5941   55.5782   26.4596 H   0  0  0  0  0  0
    2.8465   54.0015   26.2886 H   0  0  0  0  0  0
    6.1166   54.8948   28.2899 H   0  0  0  0  0  0
    3.1594   53.1240   30.9676 H   0  0  0  0  0  0
    1.8919   54.2820   30.7719 H   0  0  0  0  0  0
    1.5384   51.3102   31.0998 H   0  0  0  0  0  0
    0.9625   52.5842   32.1346 H   0  0  0  0  0  0
   -0.8910   51.6651   30.7785 H   0  0  0  0  0  0
   -0.6179   53.3422   30.3621 H   0  0  0  0  0  0
    0.4416   50.9236   28.8262 H   0  0  0  0  0  0
   -0.8772   51.9334   28.3128 H   0  0  0  0  0  0
    0.5313   53.8039   27.9251 H   0  0  0  0  0  0
    1.3016   52.4846   27.1564 H   0  0  0  0  0  0
    3.1890   51.8841   27.8513 H   0  0  0  0  0  0
    2.5267   56.1125   29.4241 H   0  0  0  0  0  0
  1  2  1  0  0  0
  1 18  1  0  0  0
  1 19  1  0  0  0
  1 20  1  0  0  0
  2  3  1  0  0  0
  2  4  1  0  0  0
  2 21  1  0  0  0
  3 22  1  0  0  0
  3 23  1  0  0  0
  3 24  1  0  0  0
  4  5  1  0  0  0
  4  9  1  0  0  0
  4  6  1  0  0  0
  6  7  1  0  0  0
  6 25  1  0  0  0
  6 26  1  0  0  0
  7  8  1  0  0  0
  7 10  1  0  0  0
  7 17  1  0  0  0
  8  9  1  0  0  0
  9 27  1  0  0  0
 10 15  1  0  0  0
 10 11  1  0  0  0
 10 16  1  0  0  0
 11 12  1  0  0  0
 11 28  1  0  0  0
 11 29  1  0  0  0
 12 13  1  0  0  0
 12 30  1  0  0  0
 12 31  1  0  0  0
 13 14  1  0  0  0
 13 32  1  0  0  0
 13 33  1  0  0  0
 14 15  1  0  0  0
 14 34  1  0  0  0
 14 35  1  0  0  0
 15 36  1  0  0  0
 15 37  1  0  0  0
 16 38  1  0  0  0
 17 39  1  0  0  0
M  END
> <i_i_glide_confnum>
4

> <i_i_glide_lignum>
1723

> <i_i_glide_posenum>
228

> <i_i_glide_rotatable_bonds>
4

> <i_m_Source_File_Index>
4928

> <b_m_subgroup_collapsed>
0

> <r_i_docking_score>
-4.84737

> <r_i_glide_ecoul>
-1.56057

> <r_i_glide_eff_state_penalty>
0

> <r_i_glide_einternal>
3.70523

> <r_i_glide_emodel>
-31.2995

> <r_i_glide_energy>
-25.4213

> <r_i_glide_erotb>
0.324429

> <r_i_glide_esite>
0

> <r_i_glide_evdw>
-23.8607

> <r_i_glide_gscore>
-4.84737

> <r_i_glide_hbond>
0

> <r_i_glide_ligand_efficiency>
-0.302961

> <r_i_glide_ligand_efficiency_ln>
-1.28489

> <r_i_glide_ligand_efficiency_sa>
-0.763413

> <r_i_glide_lipo>
-1.5446

> <r_i_glide_metal>
0

> <r_i_glide_rewards>
-2.20007

> <s_i_glide_gridfile>
wee1_glide-grid

> <s_m_Source_File>
wee1_decoys_glide_SP.sdf

> <s_m_Source_Path>
/Users/zhangxujun/Desktop

> <s_m_entry_id>
5203

> <s_m_entry_name>
wee1_decoys_glide_SP.4928

> <s_m_subgroup_title>
wee1_decoys_glide_SP

> <s_m_subgroupid>
wee1_decoys_glide_SP


$$$$
