@<TRIPOS>MOLECULE
ZINC39624113_282
62   65    1
SMALL
USER_CHARGES


@<TRIPOS>ATOM
      1 C1          6.8290   55.2490   24.1219 C.3       1 UNK         0.0000 
      2 C2          6.6132   54.8785   22.6453 C.3       1 UNK         0.0000 
      3 C3          5.6549   53.6877   22.4837 C.3       1 UNK         0.0000 
      4 C4          5.0935   53.5250   21.0537 C.3       1 UNK         0.0000 
      5 N5          4.3266   52.2953   20.8592 N.am      1 UNK         0.0000 
      6 C6          3.1402   52.0454   21.4393 C.2       1 UNK         0.0000 
      7 O7          2.6112   52.8335   22.2248 O.2       1 UNK         0.0000 
      8 C8          2.4944   50.6617   21.1610 C.3       1 UNK         0.0000 
      9 H9          3.2301   50.0410   20.6557 H         1 UNK         0.0000 
     10 C10         2.0197   49.9986   22.4672 C.3       1 UNK         0.0000 
     11 N11         0.6508   50.5096   22.6478 N.am      1 UNK         0.0000 
     12 C12         0.1329   51.1005   21.4061 C.3       1 UNK         0.0000 
     13 C13         1.1842   50.7732   20.3217 C.3       1 UNK         0.0000 
     14 C14         1.1360   51.7737   19.1319 C.3       1 UNK         0.0000 
     15 C15         2.1970   51.4236   18.0649 C.3       1 UNK         0.0000 
     16 N16         1.9044   50.0063   17.5248 N.4       1 UNK         0.0000 
     17 C17         1.7718   48.9225   18.6163 C.3       1 UNK         0.0000 
     18 C18         0.7658   49.4116   19.6837 C.3       1 UNK         0.0000 
     19 C19         0.0790   50.5158   23.8840 C.2       1 UNK         0.0000 
     20 O20         0.6346   49.9836   24.8479 O.2       1 UNK         0.0000 
     21 C21        -1.2148   51.1512   24.0893 C.2       1 UNK         0.0000 
     22 C22        -2.0257   52.0181   23.3506 C.2       1 UNK         0.0000 
     23 C23        -3.1456   52.3017   24.1344 C.2       1 UNK         0.0000 
     24 C24        -2.9839   51.6293   25.3381 C.2       1 UNK         0.0000 
     25 O25        -1.8037   50.9553   25.3035 O.3       1 UNK         0.0000 
     26 C26        -3.8129   51.5047   26.5748 C.ar      1 UNK         0.0000 
     27 C27        -3.2946   50.8956   27.7246 C.ar      1 UNK         0.0000 
     28 C28        -4.0789   50.7752   28.8693 C.ar      1 UNK         0.0000 
     29 C29        -5.3808   51.2694   28.8680 C.ar      1 UNK         0.0000 
     30 C30        -5.9085   51.8717   27.7280 C.ar      1 UNK         0.0000 
     31 C31        -5.1244   51.9926   26.5832 C.ar      1 UNK         0.0000 
     32 F32        -6.1323   51.1776   29.9875 F         1 UNK         0.0000 
     33 H33         7.5048   56.0975   24.2132 H         1 UNK         0.0000 
     34 H34         7.2665   54.4171   24.6755 H         1 UNK         0.0000 
     35 H35         5.8903   55.5213   24.6088 H         1 UNK         0.0000 
     36 H36         6.2343   55.7452   22.1008 H         1 UNK         0.0000 
     37 H37         7.5759   54.6464   22.1845 H         1 UNK         0.0000 
     38 H38         6.1615   52.7732   22.7956 H         1 UNK         0.0000 
     39 H39         4.8175   53.8156   23.1702 H         1 UNK         0.0000 
     40 H40         4.4922   54.3985   20.7875 H         1 UNK         0.0000 
     41 H41         5.9050   53.5330   20.3296 H         1 UNK         0.0000 
     42 H42         4.7038   51.6277   20.2009 H         1 UNK         0.0000 
     43 H43         2.0093   48.9176   22.3232 H         1 UNK         0.0000 
     44 H44         2.7039   50.2266   23.2869 H         1 UNK         0.0000 
     45 H45         0.1337   52.1837   21.5405 H         1 UNK         0.0000 
     46 H46        -0.8778   50.8084   21.1180 H         1 UNK         0.0000 
     47 H47         0.1403   51.8100   18.6876 H         1 UNK         0.0000 
     48 H48         1.3193   52.7915   19.4843 H         1 UNK         0.0000 
     49 H49         2.1697   52.0939   17.2039 H         1 UNK         0.0000 
     50 H50         3.2163   51.3926   18.4515 H         1 UNK         0.0000 
     51 H51         1.0663   50.0274   16.9600 H         1 UNK         0.0000 
     52 H52         1.4355   48.0177   18.1057 H         1 UNK         0.0000 
     53 H53         2.7827   48.7415   18.9899 H         1 UNK         0.0000 
     54 H54         0.6861   48.6389   20.4512 H         1 UNK         0.0000 
     55 H55        -0.2375   49.4716   19.2531 H         1 UNK         0.0000 
     56 H56        -1.8553   52.4175   22.3663 H         1 UNK         0.0000 
     57 H57        -3.9793   52.9314   23.8607 H         1 UNK         0.0000 
     58 H58        -2.2885   50.4967   27.7352 H         1 UNK         0.0000 
     59 H59        -3.6699   50.2942   29.7473 H         1 UNK         0.0000 
     60 H60        -6.9237   52.2420   27.7376 H         1 UNK         0.0000 
     61 H61        -5.5444   52.4579   25.7048 H         1 UNK         0.0000 
     62 H62         2.6706   49.7146   16.9071 H         1 UNK         0.0000 
@<TRIPOS>BOND
     1    1    2 1    
     2    1   33 1    
     3    1   34 1    
     4    1   35 1    
     5    2    3 1    
     6    2   36 1    
     7    2   37 1    
     8    3    4 1    
     9    3   38 1    
    10    3   39 1    
    11    4    5 1    
    12    4   40 1    
    13    4   41 1    
    14    5    6 am   BACKBONE|DICT|INTERRES
    15    5   42 1    
    16    6    7 2    
    17    6    8 1    
    18    8    9 1    
    19    8   13 1    
    20    8   10 1    
    21   10   11 1    
    22   10   43 1    
    23   10   44 1    
    24   11   12 1    
    25   11   19 am   BACKBONE|DICT|INTERRES
    26   12   13 1    
    27   12   45 1    
    28   12   46 1    
    29   13   18 1    
    30   13   14 1    
    31   14   15 1    
    32   14   47 1    
    33   14   48 1    
    34   15   16 1    
    35   15   49 1    
    36   15   50 1    
    37   16   17 1    
    38   16   51 1    
    39   16   62 1    
    40   17   18 1    
    41   17   52 1    
    42   17   53 1    
    43   18   54 1    
    44   18   55 1    
    45   19   20 2    
    46   19   21 1    
    47   21   25 1    
    48   21   22 2    
    49   22   23 1    
    50   22   56 1    
    51   23   24 2    
    52   23   57 1    
    53   24   25 1    
    54   24   26 1    
    55   26   31 ar   
    56   26   27 ar   
    57   27   28 ar   
    58   27   58 1    
    59   28   29 ar   
    60   28   59 1    
    61   29   30 ar   
    62   29   32 1    
    63   30   31 ar   
    64   30   60 1    
    65   31   61 1    
@<TRIPOS>SUBSTRUCTURE
     1 UNK         1 GROUP             0       ****    0 ROOT    
