@<TRIPOS>MOLECULE
ZINC35697237_5956
59   62    1
SMALL
USER_CHARGES


@<TRIPOS>ATOM
      1 C1         -5.7031   53.0132   25.2774 C.3       1 UNK         0.0000 
      2 C2         -4.3884   52.3139   24.9838 C.ar      1 UNK         0.0000 
      3 C3         -3.4825   52.8755   24.0817 C.ar      1 UNK         0.0000 
      4 C4         -2.2891   52.2236   23.7967 C.ar      1 UNK         0.0000 
      5 C5         -1.9714   51.0226   24.4432 C.ar      1 UNK         0.0000 
      6 C6         -2.8817   50.4629   25.3491 C.ar      1 UNK         0.0000 
      7 C7         -4.0899   51.1015   25.6089 C.ar      1 UNK         0.0000 
      8 C8         -0.6020   50.3552   24.2300 C.3       1 UNK         0.0000 
      9 H9         -0.4264   49.7067   25.0941 H         1 UNK         0.0000 
     10 C10        -0.4871   49.5124   22.9203 C.2       1 UNK         0.0000 
     11 C11         0.3554   49.9173   21.9182 C.2       1 UNK         0.0000 
     12 N12         1.1302   51.0402   22.0020 N.2       1 UNK         0.0000 
     13 C13         1.2216   51.6348   23.1277 C.2       1 UNK         0.0000 
     14 N14         0.5066   51.3412   24.2830 N.pl3     1 UNK         0.0000 
     15 C15         0.7983   52.1234   25.3819 C.2       1 UNK         0.0000 
     16 C16         1.7115   53.0696   25.0990 C.2       1 UNK         0.0000 
     17 S17         2.2487   53.0492   23.4217 S.3       1 UNK         0.0000 
     18 C18         0.1340   52.0405   26.6689 C.2       1 UNK         0.0000 
     19 C19         0.7059   51.6876   27.8299 C.2       1 UNK         0.0000 
     20 O20         1.9036   51.2953   28.0821 O.co2     1 UNK         0.0000 
     21 N21        -0.0020   51.7825   29.0016 N.pl3     1 UNK         0.0000 
     22 C22         0.4180   52.5111   30.2032 C.3       1 UNK         0.0000 
     23 C23         0.8229   53.9778   29.9826 C.ar      1 UNK         0.0000 
     24 C24         1.4606   54.4481   28.8221 C.ar      1 UNK         0.0000 
     25 C25         1.8517   55.7740   28.7428 C.ar      1 UNK         0.0000 
     26 N26         1.6911   56.6539   29.7528 N.ar      1 UNK         0.0000 
     27 C27         1.1046   56.1960   30.8812 C.ar      1 UNK         0.0000 
     28 C28         0.6466   54.8846   31.0282 C.ar      1 UNK         0.0000 
     29 C29         0.6754   49.1795   20.6196 C.3       1 UNK         0.0000 
     30 C30        -1.2973   48.2808   22.8504 C.2       1 UNK         0.0000 
     31 O31        -1.6269   47.7232   21.8014 O.2       1 UNK         0.0000 
     32 O32        -1.6378   47.8216   24.0742 O.3       1 UNK         0.0000 
     33 C33        -2.3888   46.6343   24.2419 C.3       1 UNK         0.0000 
     34 C34        -2.5766   46.3665   25.7193 C.2       1 UNK         0.0000 
     35 C35        -3.7454   46.0542   26.3009 C.2       1 UNK         0.0000 
     36 H36        -5.9862   53.6836   24.4662 H         1 UNK         0.0000 
     37 H37        -6.5098   52.2863   25.3826 H         1 UNK         0.0000 
     38 H38        -5.6345   53.5862   26.2026 H         1 UNK         0.0000 
     39 H39        -3.7033   53.8167   23.6009 H         1 UNK         0.0000 
     40 H40        -1.5932   52.6719   23.1013 H         1 UNK         0.0000 
     41 H41        -2.6409   49.5462   25.8726 H         1 UNK         0.0000 
     42 H42        -4.7813   50.6543   26.3103 H         1 UNK         0.0000 
     43 H43         2.0830   53.8175   25.7797 H         1 UNK         0.0000 
     44 H44        -0.9099   52.3218   26.6931 H         1 UNK         0.0000 
     45 H45        -0.4965   50.9349   29.2439 H         1 UNK         0.0000 
     46 H46        -0.4206   52.4851   30.9026 H         1 UNK         0.0000 
     47 H47         1.2434   51.9813   30.6818 H         1 UNK         0.0000 
     48 H48         1.6985   53.8356   27.9792 H         1 UNK         0.0000 
     49 H49         2.3043   56.1283   27.8339 H         1 UNK         0.0000 
     50 H50         1.1038   56.8924   31.7040 H         1 UNK         0.0000 
     51 H51         0.2141   54.5620   31.9656 H         1 UNK         0.0000 
     52 H52         0.5583   48.1016   20.7110 H         1 UNK         0.0000 
     53 H53         0.0227   49.5383   19.8181 H         1 UNK         0.0000 
     54 H54         1.7133   49.3404   20.3054 H         1 UNK         0.0000 
     55 H55        -1.8513   45.7980   23.7916 H         1 UNK         0.0000 
     56 H56        -3.3540   46.7236   23.7426 H         1 UNK         0.0000 
     57 H57        -1.6935   46.4546   26.3401 H         1 UNK         0.0000 
     58 H58        -4.6634   45.9670   25.7377 H         1 UNK         0.0000 
     59 H59        -3.7905   45.8852   27.3689 H         1 UNK         0.0000 
@<TRIPOS>BOND
     1    1    2 1    
     2    1   36 1    
     3    1   37 1    
     4    1   38 1    
     5    2    7 ar   
     6    2    3 ar   
     7    3    4 ar   
     8    3   39 1    
     9    4    5 ar   
    10    4   40 1    
    11    5    6 ar   
    12    5    8 1    
    13    6    7 ar   
    14    6   41 1    
    15    7   42 1    
    16    8    9 1    
    17    8   14 1    
    18    8   10 1    
    19   10   11 2    
    20   10   30 1    
    21   11   12 1    
    22   11   29 1    
    23   12   13 2    
    24   13   17 1    
    25   13   14 1    
    26   14   15 1    
    27   15   16 2    
    28   15   18 1    
    29   16   17 1    
    30   16   43 1    
    31   18   19 2    
    32   18   44 1    
    33   19   20 1    
    34   19   21 1    
    35   21   22 1    
    36   21   45 1    
    37   22   23 1    
    38   22   46 1    
    39   22   47 1    
    40   23   28 ar   
    41   23   24 ar   
    42   24   25 ar   
    43   24   48 1    
    44   25   26 ar   
    45   25   49 1    
    46   26   27 ar   
    47   27   28 ar   
    48   27   50 1    
    49   28   51 1    
    50   29   52 1    
    51   29   53 1    
    52   29   54 1    
    53   30   31 2    
    54   30   32 1    
    55   32   33 1    
    56   33   34 1    
    57   33   55 1    
    58   33   56 1    
    59   34   35 2    
    60   34   57 1    
    61   35   58 1    
    62   35   59 1    
@<TRIPOS>SUBSTRUCTURE
     1 UNK         1 GROUP             0       ****    0 ROOT    
