@<TRIPOS>MOLECULE
ZINC16130447_2457
54   57    1
SMALL
USER_CHARGES


@<TRIPOS>ATOM
      1 C1          5.5508   58.6699   16.0801 C.3       1 UNK         0.0000 
      2 C2          5.2288   57.3960   16.8382 C.ar      1 UNK         0.0000 
      3 C3          3.9056   56.9654   16.9512 C.ar      1 UNK         0.0000 
      4 C4          3.6108   55.8172   17.6818 C.ar      1 UNK         0.0000 
      5 C5          4.6301   55.1005   18.3174 C.ar      1 UNK         0.0000 
      6 C6          5.9569   55.5152   18.1640 C.ar      1 UNK         0.0000 
      7 C7          6.2552   56.6651   17.4363 C.ar      1 UNK         0.0000 
      8 C8          4.2701   53.9061   19.1512 C.2       1 UNK         0.0000 
      9 C9          3.3815   52.9261   18.6666 C.2       1 UNK         0.0000 
     10 C10         3.1195   51.9006   19.5556 C.2       1 UNK         0.0000 
     11 S11         4.0013   52.0962   21.0219 S.3       1 UNK         0.0000 
     12 C12         4.6787   53.6160   20.4749 C.2       1 UNK         0.0000 
     13 C13         5.5043   54.4184   21.3958 C.2       1 UNK         0.0000 
     14 O14         6.0722   55.4619   21.0709 O.2       1 UNK         0.0000 
     15 O15         5.5329   53.9091   22.6673 O.3       1 UNK         0.0000 
     16 C16         6.1659   54.6271   23.7319 C.3       1 UNK         0.0000 
     17 C17         5.4941   54.4807   25.1253 C.2       1 UNK         0.0000 
     18 O18         6.2533   54.7442   26.0612 O.2       1 UNK         0.0000 
     19 N19         4.1902   54.0972   25.3466 N.am      1 UNK         0.0000 
     20 C20         3.5751   53.9450   26.6194 C.ar      1 UNK         0.0000 
     21 C21         4.0116   54.3308   27.8968 C.ar      1 UNK         0.0000 
     22 C22         3.2120   54.0925   29.0135 C.ar      1 UNK         0.0000 
     23 C23         1.9601   53.4885   28.8716 C.ar      1 UNK         0.0000 
     24 C24         1.5074   53.1316   27.5985 C.ar      1 UNK         0.0000 
     25 C25         2.3062   53.3826   26.4807 C.ar      1 UNK         0.0000 
     26 C26         2.0463   53.0449   25.0500 C.3       1 UNK         0.0000 
     27 C27         3.2115   53.6986   24.3046 C.3       1 UNK         0.0000 
     28 H28         3.6328   52.9405   23.6483 H         1 UNK         0.0000 
     29 C29         2.7094   54.8877   23.4678 C.3       1 UNK         0.0000 
     30 S30         0.9651   53.1983   30.3309 S.o2      1 UNK         0.0000 
     31 O31         0.3317   54.4742   30.6757 O.2       1 UNK         0.0000 
     32 O32         1.8337   52.4965   31.2815 O.2       1 UNK         0.0000 
     33 N33        -0.3046   52.0964   29.8797 N.pl3     1 UNK         0.0000 
     34 H34         4.6676   59.2951   15.9362 H         1 UNK         0.0000 
     35 H35         6.2712   59.2718   16.6374 H         1 UNK         0.0000 
     36 H36         5.9869   58.4376   15.1085 H         1 UNK         0.0000 
     37 H37         3.1057   57.5294   16.4908 H         1 UNK         0.0000 
     38 H38         2.5799   55.5077   17.7812 H         1 UNK         0.0000 
     39 H39         6.7597   54.9562   18.6222 H         1 UNK         0.0000 
     40 H40         7.2801   56.9902   17.3450 H         1 UNK         0.0000 
     41 H41         2.9485   52.9618   17.6779 H         1 UNK         0.0000 
     42 H42         2.5007   51.0297   19.3989 H         1 UNK         0.0000 
     43 H43         6.3028   55.6917   23.5302 H         1 UNK         0.0000 
     44 H44         7.1701   54.2116   23.8151 H         1 UNK         0.0000 
     45 H45         4.9667   54.8056   28.0603 H         1 UNK         0.0000 
     46 H46         3.5726   54.3805   29.9887 H         1 UNK         0.0000 
     47 H47         0.5431   52.6602   27.4762 H         1 UNK         0.0000 
     48 H48         2.0877   51.9661   24.9067 H         1 UNK         0.0000 
     49 H49         1.0698   53.3803   24.6985 H         1 UNK         0.0000 
     50 H50         1.9260   54.5651   22.7806 H         1 UNK         0.0000 
     51 H51         2.2860   55.6753   24.0818 H         1 UNK         0.0000 
     52 H52         3.4920   55.2967   22.8453 H         1 UNK         0.0000 
     53 H53        -0.5184   51.4153   30.6162 H         1 UNK         0.0000 
     54 H54        -1.1552   52.5768   29.5838 H         1 UNK         0.0000 
@<TRIPOS>BOND
     1    1    2 1    
     2    1   34 1    
     3    1   35 1    
     4    1   36 1    
     5    2    7 ar   
     6    2    3 ar   
     7    3    4 ar   
     8    3   37 1    
     9    4    5 ar   
    10    4   38 1    
    11    5    6 ar   
    12    5    8 1    
    13    6    7 ar   
    14    6   39 1    
    15    7   40 1    
    16    8   12 2    
    17    8    9 1    
    18    9   10 2    
    19    9   41 1    
    20   10   11 1    
    21   10   42 1    
    22   11   12 1    
    23   12   13 1    
    24   13   14 2    
    25   13   15 1    
    26   15   16 1    
    27   16   17 1    
    28   16   43 1    
    29   16   44 1    
    30   17   18 2    
    31   17   19 am   BACKBONE|DICT|INTERRES
    32   19   27 1    
    33   19   20 1    
    34   20   25 ar   
    35   20   21 ar   
    36   21   22 ar   
    37   21   45 1    
    38   22   23 ar   
    39   22   46 1    
    40   23   24 ar   
    41   23   30 1    
    42   24   25 ar   
    43   24   47 1    
    44   25   26 1    
    45   26   27 1    
    46   26   48 1    
    47   26   49 1    
    48   27   28 1    
    49   27   29 1    
    50   29   50 1    
    51   29   51 1    
    52   29   52 1    
    53   30   31 2    
    54   30   32 2    
    55   30   33 1    
    56   33   53 1    
    57   33   54 1    
@<TRIPOS>SUBSTRUCTURE
     1 UNK         1 GROUP             0       ****    0 ROOT    
