@<TRIPOS>MOLECULE
ZINC24785013_3221
53   57    1
SMALL
USER_CHARGES


@<TRIPOS>ATOM
      1 C1          9.6064   50.5462   15.2873 C.3       1 UNK         0.0000 
      2 C2          9.3467   51.8044   16.0975 C.ar      1 UNK         0.0000 
      3 C3         10.3950   52.6703   16.4128 C.ar      1 UNK         0.0000 
      4 C4         10.1511   53.8106   17.1757 C.ar      1 UNK         0.0000 
      5 C5          8.8598   54.0924   17.6256 C.ar      1 UNK         0.0000 
      6 C6          7.8085   53.2367   17.2817 C.ar      1 UNK         0.0000 
      7 C7          8.0508   52.0965   16.5219 C.ar      1 UNK         0.0000 
      8 N8          8.6679   55.2072   18.4543 N.pl3     1 UNK         0.0000 
      9 S9          7.1662   56.1505   18.5159 S.o2      1 UNK         0.0000 
     10 O10         7.5040   57.3976   19.2093 O.2       1 UNK         0.0000 
     11 O11         6.5817   56.1553   17.1705 O.2       1 UNK         0.0000 
     12 C12         6.0704   55.2559   19.6080 C.ar      1 UNK         0.0000 
     13 C13         4.9329   54.6184   19.1068 C.ar      1 UNK         0.0000 
     14 C14         4.1080   53.8945   19.9637 C.ar      1 UNK         0.0000 
     15 C15         4.4050   53.8155   21.3233 C.ar      1 UNK         0.0000 
     16 C16         5.5446   54.4531   21.8373 C.ar      1 UNK         0.0000 
     17 C17         6.3705   55.1785   20.9695 C.ar      1 UNK         0.0000 
     18 C18         5.9318   54.3093   23.2827 C.2       1 UNK         0.0000 
     19 O19         7.1044   54.1019   23.5807 O.2       1 UNK         0.0000 
     20 N20         4.9155   54.3959   24.1618 N.am      1 UNK         0.0000 
     21 C21         4.9945   54.3126   25.5430 C.2       1 UNK         0.0000 
     22 N22         3.9157   54.1004   26.2409 N.2       1 UNK         0.0000 
     23 C23         4.1406   53.9899   27.5399 C.2       1 UNK         0.0000 
     24 C24         5.4795   54.1672   27.9052 C.2       1 UNK         0.0000 
     25 S25         6.4477   54.4666   26.4943 S.3       1 UNK         0.0000 
     26 C26         2.9939   53.6859   28.4469 C.ar      1 UNK         0.0000 
     27 C27         1.6778   54.0142   28.0526 C.ar      1 UNK         0.0000 
     28 C28         0.5767   53.7049   28.8548 C.ar      1 UNK         0.0000 
     29 C29         0.8312   53.0698   30.0588 C.ar      1 UNK         0.0000 
     30 C30         2.0961   52.7439   30.4576 C.ar      1 UNK         0.0000 
     31 C31         3.2087   53.0368   29.6763 C.ar      1 UNK         0.0000 
     32 O32         2.0368   52.0967   31.6498 O.3       1 UNK         0.0000 
     33 C33         0.7071   52.2349   32.0814 C.3       1 UNK         0.0000 
     34 O34        -0.0601   52.6454   30.9822 O.3       1 UNK         0.0000 
     35 H35         8.8720   50.4537   14.4868 H         1 UNK         0.0000 
     36 H36         9.5190   49.6612   15.9184 H         1 UNK         0.0000 
     37 H37        10.5932   50.5542   14.8231 H         1 UNK         0.0000 
     38 H38        11.3997   52.4566   16.0796 H         1 UNK         0.0000 
     39 H39        10.9735   54.4682   17.4156 H         1 UNK         0.0000 
     40 H40         6.8033   53.4210   17.6195 H         1 UNK         0.0000 
     41 H41         7.2312   51.4352   16.2817 H         1 UNK         0.0000 
     42 H42         9.4754   55.6220   18.8938 H         1 UNK         0.0000 
     43 H43         4.6892   54.6711   18.0551 H         1 UNK         0.0000 
     44 H44         3.2316   53.3975   19.5722 H         1 UNK         0.0000 
     45 H45         3.7553   53.2297   21.9582 H         1 UNK         0.0000 
     46 H46         7.2645   55.6604   21.3446 H         1 UNK         0.0000 
     47 H47         3.9847   54.4234   23.7761 H         1 UNK         0.0000 
     48 H48         5.9311   54.1469   28.8859 H         1 UNK         0.0000 
     49 H49         1.5024   54.4985   27.1051 H         1 UNK         0.0000 
     50 H50        -0.4267   53.9452   28.5383 H         1 UNK         0.0000 
     51 H51         4.2017   52.7538   29.9918 H         1 UNK         0.0000 
     52 H52         0.6491   52.9909   32.8664 H         1 UNK         0.0000 
     53 H53         0.3229   51.2964   32.4803 H         1 UNK         0.0000 
@<TRIPOS>BOND
     1    1    2 1    
     2    1   35 1    
     3    1   36 1    
     4    1   37 1    
     5    2    7 ar   
     6    2    3 ar   
     7    3    4 ar   
     8    3   38 1    
     9    4    5 ar   
    10    4   39 1    
    11    5    6 ar   
    12    5    8 1    
    13    6    7 ar   
    14    6   40 1    
    15    7   41 1    
    16    8    9 1    
    17    8   42 1    
    18    9   10 2    
    19    9   11 2    
    20    9   12 1    
    21   12   17 ar   
    22   12   13 ar   
    23   13   14 ar   
    24   13   43 1    
    25   14   15 ar   
    26   14   44 1    
    27   15   16 ar   
    28   15   45 1    
    29   16   17 ar   
    30   16   18 1    
    31   17   46 1    
    32   18   19 2    
    33   18   20 am   BACKBONE|DICT|INTERRES
    34   20   21 am   BACKBONE|DICT|INTERRES
    35   20   47 1    
    36   21   25 1    
    37   21   22 2    
    38   22   23 1    
    39   23   24 2    
    40   23   26 1    
    41   24   25 1    
    42   24   48 1    
    43   26   31 ar   
    44   26   27 ar   
    45   27   28 ar   
    46   27   49 1    
    47   28   29 ar   
    48   28   50 1    
    49   29   34 1    
    50   29   30 ar   
    51   30   31 ar   
    52   30   32 1    
    53   31   51 1    
    54   32   33 1    
    55   33   34 1    
    56   33   52 1    
    57   33   53 1    
@<TRIPOS>SUBSTRUCTURE
     1 UNK         1 GROUP             0       ****    0 ROOT    
