@<TRIPOS>MOLECULE
ZINC35056988_536
59   62    1
SMALL
USER_CHARGES


@<TRIPOS>ATOM
      1 C1         -4.7454   51.3172   25.5528 C.3       1 UNK         0.0000 
      2 C2         -4.0527   50.2518   24.6820 C.3       1 UNK         0.0000 
      3 H3         -4.0776   49.3068   25.2223 H         1 UNK         0.0000 
      4 C4         -4.8071   50.0773   23.3341 C.2       1 UNK         0.0000 
      5 O5         -5.9201   49.5033   23.3837 O.co2     1 UNK         0.0000 
      6 O6         -4.2800   50.4962   22.2759 O.co2     1 UNK         0.0000 
      7 O7         -2.6968   50.6873   24.4914 O.3       1 UNK         0.0000 
      8 C8         -1.7509   49.7732   23.9158 C.3       1 UNK         0.0000 
      9 H9         -2.2535   49.1435   23.1807 H         1 UNK         0.0000 
     10 C10        -1.0416   48.8706   24.9646 C.3       1 UNK         0.0000 
     11 H11        -0.3531   48.2245   24.4118 H         1 UNK         0.0000 
     12 C12        -0.0993   49.6952   25.8883 C.3       1 UNK         0.0000 
     13 H13         0.5323   49.0251   26.4790 H         1 UNK         0.0000 
     14 O14         0.7888   50.4576   25.1168 O.3       1 UNK         0.0000 
     15 C15         0.1706   51.3486   24.1972 C.3       1 UNK         0.0000 
     16 H16        -0.4796   52.0697   24.6974 H         1 UNK         0.0000 
     17 C17        -0.6623   50.5656   23.1869 C.3       1 UNK         0.0000 
     18 H18        -0.0210   49.8324   22.6953 H         1 UNK         0.0000 
     19 O19        -1.1929   51.4925   22.2335 O.3       1 UNK         0.0000 
     20 C20        -0.1688   52.1587   21.5271 C.3       1 UNK         0.0000 
     21 H21        -0.6611   52.8885   20.8883 H         1 UNK         0.0000 
     22 O22         0.6620   52.8966   22.4057 O.3       1 UNK         0.0000 
     23 C23         1.2602   52.1044   23.4347 C.3       1 UNK         0.0000 
     24 C24         0.6289   51.2211   20.5891 C.ar      1 UNK         0.0000 
     25 C25         1.9500   51.5372   20.2678 C.ar      1 UNK         0.0000 
     26 C26         2.7038   50.6573   19.5086 C.ar      1 UNK         0.0000 
     27 C27         2.1354   49.4721   19.0528 C.ar      1 UNK         0.0000 
     28 C28         0.8044   49.1714   19.3191 C.ar      1 UNK         0.0000 
     29 C29         0.0455   50.0542   20.0808 C.ar      1 UNK         0.0000 
     30 O30        -0.8406   50.5009   26.7694 O.3       1 UNK         0.0000 
     31 C31        -0.2093   51.1644   27.8171 C.ar      1 UNK         0.0000 
     32 C32         1.1826   51.2974   27.9693 C.ar      1 UNK         0.0000 
     33 C33         1.7267   51.9782   29.0556 C.ar      1 UNK         0.0000 
     34 C34         0.8838   52.4962   30.0305 C.ar      1 UNK         0.0000 
     35 C35        -0.4921   52.3374   29.9201 C.ar      1 UNK         0.0000 
     36 C36        -1.0348   51.6967   28.8080 C.ar      1 UNK         0.0000 
     37 N37        -1.8982   47.9380   25.6817 N.am      1 UNK         0.0000 
     38 C38        -2.4101   46.7824   25.2419 C.2       1 UNK         0.0000 
     39 O39        -2.2218   46.3239   24.1153 O.2       1 UNK         0.0000 
     40 C40        -3.2522   46.0095   26.2494 C.3       1 UNK         0.0000 
     41 H41        -5.7836   51.0554   25.7643 H         1 UNK         0.0000 
     42 H42        -4.2336   51.4232   26.5102 H         1 UNK         0.0000 
     43 H43        -4.7377   52.2968   25.0712 H         1 UNK         0.0000 
     44 H44         1.8069   52.7594   24.1132 H         1 UNK         0.0000 
     45 H45         2.0025   51.4282   23.0089 H         1 UNK         0.0000 
     46 H46         2.4016   52.4495   20.6265 H         1 UNK         0.0000 
     47 H47         3.7263   50.9021   19.2819 H         1 UNK         0.0000 
     48 H48         2.7402   48.7858   18.4812 H         1 UNK         0.0000 
     49 H49         0.3670   48.2569   18.9485 H         1 UNK         0.0000 
     50 H50        -0.9840   49.8143   20.3059 H         1 UNK         0.0000 
     51 H51         1.8793   50.8622   27.2818 H         1 UNK         0.0000 
     52 H52         2.7973   52.0780   29.1481 H         1 UNK         0.0000 
     53 H53         1.2978   52.9948   30.8937 H         1 UNK         0.0000 
     54 H54        -1.1216   52.6928   30.7162 H         1 UNK         0.0000 
     55 H55        -2.1039   51.5633   28.7313 H         1 UNK         0.0000 
     56 H56        -1.9536   48.1073   26.6879 H         1 UNK         0.0000 
     57 H57        -2.6726   45.1953   26.6875 H         1 UNK         0.0000 
     58 H58        -3.5823   46.6596   27.0631 H         1 UNK         0.0000 
     59 H59        -4.1419   45.5991   25.7714 H         1 UNK         0.0000 
@<TRIPOS>BOND
     1    1    2 1    
     2    1   41 1    
     3    1   42 1    
     4    1   43 1    
     5    2    3 1    
     6    2    4 1    
     7    2    7 1    
     8    4    5 2    
     9    4    6 1    
    10    7    8 1    
    11    8    9 1    
    12    8   17 1    
    13    8   10 1    
    14   10   11 1    
    15   10   12 1    
    16   10   37 1    
    17   12   13 1    
    18   12   14 1    
    19   12   30 1    
    20   14   15 1    
    21   15   16 1    
    22   15   23 1    
    23   15   17 1    
    24   17   18 1    
    25   17   19 1    
    26   19   20 1    
    27   20   21 1    
    28   20   22 1    
    29   20   24 1    
    30   22   23 1    
    31   23   44 1    
    32   23   45 1    
    33   24   29 ar   
    34   24   25 ar   
    35   25   26 ar   
    36   25   46 1    
    37   26   27 ar   
    38   26   47 1    
    39   27   28 ar   
    40   27   48 1    
    41   28   29 ar   
    42   28   49 1    
    43   29   50 1    
    44   30   31 1    
    45   31   36 ar   
    46   31   32 ar   
    47   32   33 ar   
    48   32   51 1    
    49   33   34 ar   
    50   33   52 1    
    51   34   35 ar   
    52   34   53 1    
    53   35   36 ar   
    54   35   54 1    
    55   36   55 1    
    56   37   38 am   BACKBONE|DICT|INTERRES
    57   37   56 1    
    58   38   39 2    
    59   38   40 1    
    60   40   57 1    
    61   40   58 1    
    62   40   59 1    
@<TRIPOS>SUBSTRUCTURE
     1 UNK         1 GROUP             0       ****    0 ROOT    
