@<TRIPOS>MOLECULE
ZINC45606769_653
51   52    1
SMALL
USER_CHARGES


@<TRIPOS>ATOM
      1 C1          4.2672   53.0839   21.9188 C.3       1 UNK         0.0000 
      2 C2          4.7812   54.3289   22.6621 C.3       1 UNK         0.0000 
      3 H3          3.9919   55.0813   22.6700 H         1 UNK         0.0000 
      4 C4          5.9925   54.8946   21.8588 C.2       1 UNK         0.0000 
      5 O5          7.1059   54.8968   22.3622 O.2       1 UNK         0.0000 
      6 N6          5.7438   55.3324   20.6026 N.am      1 UNK         0.0000 
      7 C7          6.6264   55.8676   19.6374 C.ar      1 UNK         0.0000 
      8 C8          8.0264   55.9209   19.7848 C.ar      1 UNK         0.0000 
      9 C9          8.8284   56.4888   18.7964 C.ar      1 UNK         0.0000 
     10 C10         8.2479   57.0117   17.6431 C.ar      1 UNK         0.0000 
     11 C11         6.8676   56.9502   17.4720 C.ar      1 UNK         0.0000 
     12 C12         6.0587   56.3758   18.4545 C.ar      1 UNK         0.0000 
     13 Br13        4.1804   56.2946   18.1175 Br        1 UNK         0.0000 
     14 Br14        9.3434   57.7991   16.3014 Br        1 UNK         0.0000 
     15 N15         5.1178   54.0951   24.1852 N.4       1 UNK         0.0000 
     16 C16         3.8339   53.6965   24.9577 C.3       1 UNK         0.0000 
     17 C17         4.2069   53.2996   26.3990 C.3       1 UNK         0.0000 
     18 N18         4.7334   54.4603   27.1296 N.3       1 UNK         0.0000 
     19 C19         5.9891   54.8570   26.4666 C.3       1 UNK         0.0000 
     20 C20         5.7681   55.2624   24.9860 C.3       1 UNK         0.0000 
     21 C21         5.0340   54.0808   28.5301 C.3       1 UNK         0.0000 
     22 C22         3.7757   53.8402   29.3979 C.2       1 UNK         0.0000 
     23 O23         3.9036   53.2774   30.4825 O.2       1 UNK         0.0000 
     24 N24         2.5747   54.2432   28.9434 N.am      1 UNK         0.0000 
     25 C25         1.3103   54.0844   29.6600 C.3       1 UNK         0.0000 
     26 C26         0.9014   55.2957   30.4802 C.2       1 UNK         0.0000 
     27 C27         1.5041   56.4976   30.4814 C.2       1 UNK         0.0000 
     28 H28         4.1113   53.2678   20.8537 H         1 UNK         0.0000 
     29 H29         4.9761   52.2581   22.0223 H         1 UNK         0.0000 
     30 H30         3.3032   52.7606   22.3117 H         1 UNK         0.0000 
     31 H31         4.7877   55.2786   20.2815 H         1 UNK         0.0000 
     32 H32         8.5363   55.5295   20.6499 H         1 UNK         0.0000 
     33 H33         9.9020   56.5222   18.9256 H         1 UNK         0.0000 
     34 H34         6.4189   57.3489   16.5727 H         1 UNK         0.0000 
     35 H35         3.1395   54.5382   24.9159 H         1 UNK         0.0000 
     36 H36         3.3700   52.8504   24.4622 H         1 UNK         0.0000 
     37 H37         4.9468   52.4991   26.4421 H         1 UNK         0.0000 
     38 H38         3.3008   52.9178   26.8694 H         1 UNK         0.0000 
     39 H39         6.4366   55.6971   26.9991 H         1 UNK         0.0000 
     40 H40         6.6863   54.0165   26.5031 H         1 UNK         0.0000 
     41 H41         5.1051   56.1052   24.8884 H         1 UNK         0.0000 
     42 H42         6.7392   55.5089   24.5657 H         1 UNK         0.0000 
     43 H43         5.6419   54.8549   29.0069 H         1 UNK         0.0000 
     44 H44         5.6607   53.1842   28.5596 H         1 UNK         0.0000 
     45 H45         2.5543   54.7198   28.0548 H         1 UNK         0.0000 
     46 H46         1.3342   53.2111   30.3167 H         1 UNK         0.0000 
     47 H47         0.5165   53.8708   28.9421 H         1 UNK         0.0000 
     48 H48         0.0424   55.1468   31.1195 H         1 UNK         0.0000 
     49 H49         2.3637   56.7128   29.8618 H         1 UNK         0.0000 
     50 H50         1.1380   57.2948   31.1088 H         1 UNK         0.0000 
     51 H51         5.7668   53.3188   24.2226 H         1 UNK         0.0000 
@<TRIPOS>BOND
     1    1    2 1    
     2    1   28 1    
     3    1   29 1    
     4    1   30 1    
     5    2    3 1    
     6    2    4 1    
     7    2   15 1    
     8    4    5 2    
     9    4    6 am   BACKBONE|DICT|INTERRES
    10    6    7 1    
    11    6   31 1    
    12    7   12 ar   
    13    7    8 ar   
    14    8    9 ar   
    15    8   32 1    
    16    9   10 ar   
    17    9   33 1    
    18   10   11 ar   
    19   10   14 1    
    20   11   12 ar   
    21   11   34 1    
    22   12   13 1    
    23   15   20 1    
    24   15   16 1    
    25   15   51 1    
    26   16   17 1    
    27   16   35 1    
    28   16   36 1    
    29   17   18 1    
    30   17   37 1    
    31   17   38 1    
    32   18   19 1    
    33   18   21 1    
    34   19   20 1    
    35   19   39 1    
    36   19   40 1    
    37   20   41 1    
    38   20   42 1    
    39   21   22 1    
    40   21   43 1    
    41   21   44 1    
    42   22   23 2    
    43   22   24 am   BACKBONE|DICT|INTERRES
    44   24   25 1    
    45   24   45 1    
    46   25   26 1    
    47   25   46 1    
    48   25   47 1    
    49   26   27 2    
    50   26   48 1    
    51   27   49 1    
    52   27   50 1    
@<TRIPOS>SUBSTRUCTURE
     1 UNK         1 GROUP             0       ****    0 ROOT    
