@<TRIPOS>MOLECULE
ZINC39266804_4852
66   69    1
SMALL
USER_CHARGES


@<TRIPOS>ATOM
      1 C1         -6.7184   46.2390   25.5672 C.3       1 UNK         0.0000 
      2 C2         -5.9731   47.5120   25.9313 C.ar      1 UNK         0.0000 
      3 C3         -6.2143   48.6877   25.2154 C.ar      1 UNK         0.0000 
      4 C4         -5.5436   49.8590   25.5576 C.ar      1 UNK         0.0000 
      5 C5         -4.6429   49.8570   26.6256 C.ar      1 UNK         0.0000 
      6 C6         -4.4022   48.6811   27.3410 C.ar      1 UNK         0.0000 
      7 C7         -5.0668   47.5101   26.9928 C.ar      1 UNK         0.0000 
      8 S8         -3.7637   51.3571   27.0688 S.o2      1 UNK         0.0000 
      9 O9         -3.5154   51.2967   28.5127 O.2       1 UNK         0.0000 
     10 O10        -4.5091   52.4756   26.4797 O.2       1 UNK         0.0000 
     11 N11        -2.2119   51.2568   26.2100 N.pl3     1 UNK         0.0000 
     12 C12        -1.0123   50.8124   26.9796 C.3       1 UNK         0.0000 
     13 C13         0.0669   51.9160   27.1127 C.3       1 UNK         0.0000 
     14 C14         0.1673   52.5886   28.4682 C.2       1 UNK         0.0000 
     15 C15        -0.2995   52.1952   29.7246 C.2       1 UNK         0.0000 
     16 C16         0.0187   53.0742   30.7615 C.2       1 UNK         0.0000 
     17 C17         0.7186   54.1824   30.3233 C.2       1 UNK         0.0000 
     18 S18         1.0355   54.0963   28.6247 S.3       1 UNK         0.0000 
     19 C19        -2.2610   50.9788   24.7636 C.3       1 UNK         0.0000 
     20 C20        -1.0610   51.5654   24.0052 C.2       1 UNK         0.0000 
     21 O21        -1.1218   52.7008   23.5340 O.2       1 UNK         0.0000 
     22 N22         0.0301   50.7841   23.9137 N.am      1 UNK         0.0000 
     23 C23         1.3394   51.1302   23.3466 C.3       1 UNK         0.0000 
     24 H24         2.0243   50.2846   23.4549 H         1 UNK         0.0000 
     25 C25         1.2837   51.5128   21.8520 C.3       1 UNK         0.0000 
     26 C26         1.8652   52.9242   21.7309 C.3       1 UNK         0.0000 
     27 N27         2.7803   53.0570   22.9555 N.4       1 UNK         0.0000 
     28 C28         2.0029   52.3248   24.0600 C.3       1 UNK         0.0000 
     29 C29         3.1954   54.4876   23.3463 C.3       1 UNK         0.0000 
     30 C30         4.2679   54.4912   24.4296 C.ar      1 UNK         0.0000 
     31 C31         3.9036   54.4991   25.7801 C.ar      1 UNK         0.0000 
     32 C32         4.8858   54.4962   26.7662 C.ar      1 UNK         0.0000 
     33 C33         6.2301   54.4986   26.4012 C.ar      1 UNK         0.0000 
     34 C34         6.5994   54.5009   25.0580 C.ar      1 UNK         0.0000 
     35 C35         5.6177   54.4965   24.0700 C.ar      1 UNK         0.0000 
     36 H36        -7.7219   46.4656   25.2030 H         1 UNK         0.0000 
     37 H37        -6.1843   45.6870   24.7928 H         1 UNK         0.0000 
     38 H38        -6.8439   45.5937   26.4384 H         1 UNK         0.0000 
     39 H39        -6.9152   48.6954   24.3941 H         1 UNK         0.0000 
     40 H40        -5.7305   50.7647   24.9974 H         1 UNK         0.0000 
     41 H41        -3.6971   48.6739   28.1607 H         1 UNK         0.0000 
     42 H42        -4.8686   46.6049   27.5487 H         1 UNK         0.0000 
     43 H43        -0.6001   49.9195   26.5059 H         1 UNK         0.0000 
     44 H44        -1.3255   50.4963   27.9708 H         1 UNK         0.0000 
     45 H45        -0.0761   52.6766   26.3469 H         1 UNK         0.0000 
     46 H46         1.0344   51.4670   26.8873 H         1 UNK         0.0000 
     47 H47        -0.8640   51.2901   29.8995 H         1 UNK         0.0000 
     48 H48        -0.2659   52.9044   31.7892 H         1 UNK         0.0000 
     49 H49         1.0742   55.0212   30.9035 H         1 UNK         0.0000 
     50 H50        -2.3078   49.9020   24.5928 H         1 UNK         0.0000 
     51 H51        -3.1734   51.3824   24.3245 H         1 UNK         0.0000 
     52 H52        -0.0298   49.8673   24.3345 H         1 UNK         0.0000 
     53 H53         1.8878   50.8269   21.2567 H         1 UNK         0.0000 
     54 H54         0.2727   51.4937   21.4442 H         1 UNK         0.0000 
     55 H55         2.4444   53.1291   20.8273 H         1 UNK         0.0000 
     56 H56         1.1049   53.6972   21.8435 H         1 UNK         0.0000 
     57 H57         1.2885   53.0497   24.4562 H         1 UNK         0.0000 
     58 H58         2.7018   52.0949   24.8665 H         1 UNK         0.0000 
     59 H59         3.5458   54.9430   22.4165 H         1 UNK         0.0000 
     60 H60         2.2822   54.9949   23.6661 H         1 UNK         0.0000 
     61 H61         2.8616   54.4963   26.0682 H         1 UNK         0.0000 
     62 H62         4.6058   54.4967   27.8098 H         1 UNK         0.0000 
     63 H63         6.9901   54.4986   27.1702 H         1 UNK         0.0000 
     64 H64         7.6401   54.4969   24.7742 H         1 UNK         0.0000 
     65 H65         5.9118   54.4945   23.0303 H         1 UNK         0.0000 
     66 H66         3.6406   52.5587   22.7672 H         1 UNK         0.0000 
@<TRIPOS>BOND
     1    1    2 1    
     2    1   36 1    
     3    1   37 1    
     4    1   38 1    
     5    2    7 ar   
     6    2    3 ar   
     7    3    4 ar   
     8    3   39 1    
     9    4    5 ar   
    10    4   40 1    
    11    5    6 ar   
    12    5    8 1    
    13    6    7 ar   
    14    6   41 1    
    15    7   42 1    
    16    8    9 2    
    17    8   10 2    
    18    8   11 1    
    19   11   12 1    
    20   11   19 1    
    21   12   13 1    
    22   12   43 1    
    23   12   44 1    
    24   13   14 1    
    25   13   45 1    
    26   13   46 1    
    27   14   18 1    
    28   14   15 2    
    29   15   16 1    
    30   15   47 1    
    31   16   17 2    
    32   16   48 1    
    33   17   18 1    
    34   17   49 1    
    35   19   20 1    
    36   19   50 1    
    37   19   51 1    
    38   20   21 2    
    39   20   22 am   BACKBONE|DICT|INTERRES
    40   22   23 1    
    41   22   52 1    
    42   23   24 1    
    43   23   28 1    
    44   23   25 1    
    45   25   26 1    
    46   25   53 1    
    47   25   54 1    
    48   26   27 1    
    49   26   55 1    
    50   26   56 1    
    51   27   28 1    
    52   27   29 1    
    53   27   66 1    
    54   28   57 1    
    55   28   58 1    
    56   29   30 1    
    57   29   59 1    
    58   29   60 1    
    59   30   35 ar   
    60   30   31 ar   
    61   31   32 ar   
    62   31   61 1    
    63   32   33 ar   
    64   32   62 1    
    65   33   34 ar   
    66   33   63 1    
    67   34   35 ar   
    68   34   64 1    
    69   35   65 1    
@<TRIPOS>SUBSTRUCTURE
     1 UNK         1 GROUP             0       ****    0 ROOT    
