@<TRIPOS>MOLECULE
ZINC09459295_4521
61   65    1
SMALL
USER_CHARGES


@<TRIPOS>ATOM
      1 C1          7.0820   53.7990   28.1891 C.3       1 UNK         0.0000 
      2 C2          5.8029   54.5845   27.8477 C.3       1 UNK         0.0000 
      3 H3          6.0164   55.6473   27.9823 H         1 UNK         0.0000 
      4 C4          4.6568   54.2063   28.8099 C.3       1 UNK         0.0000 
      5 C5          3.2759   54.8285   28.4848 C.3       1 UNK         0.0000 
      6 C6          2.1260   54.1043   29.1632 C.ar      1 UNK         0.0000 
      7 C7          1.3253   54.7829   30.0819 C.ar      1 UNK         0.0000 
      8 C8          0.3045   54.1044   30.7406 C.ar      1 UNK         0.0000 
      9 C9          0.0549   52.7688   30.4412 C.ar      1 UNK         0.0000 
     10 C10         0.8255   52.0968   29.4986 C.ar      1 UNK         0.0000 
     11 C11         1.8679   52.7632   28.8596 C.ar      1 UNK         0.0000 
     12 N12         5.4000   54.3674   26.4612 N.am      1 UNK         0.0000 
     13 C13         6.0305   54.7787   25.3514 C.2       1 UNK         0.0000 
     14 O14         7.0980   55.3921   25.3588 O.2       1 UNK         0.0000 
     15 C15         5.3335   54.4236   24.1309 C.ar      1 UNK         0.0000 
     16 C16         3.9924   53.9525   23.9330 C.ar      1 UNK         0.0000 
     17 C17         3.7914   53.7137   22.5511 C.ar      1 UNK         0.0000 
     18 N18         2.6490   53.2031   22.0798 N.ar      1 UNK         0.0000 
     19 C19         1.6595   52.8987   22.9571 C.ar      1 UNK         0.0000 
     20 C20         0.4546   52.3143   22.4977 C.ar      1 UNK         0.0000 
     21 C21        -0.5506   51.9955   23.4108 C.ar      1 UNK         0.0000 
     22 C22        -0.3804   52.2437   24.7711 C.ar      1 UNK         0.0000 
     23 C23         0.7991   52.8169   25.2484 C.ar      1 UNK         0.0000 
     24 C24         1.8365   53.1534   24.3465 C.ar      1 UNK         0.0000 
     25 N25         3.0015   53.6976   24.7970 N.ar      1 UNK         0.0000 
     26 N26         4.9436   54.0962   21.8545 N.pl3     1 UNK         0.0000 
     27 C27         5.8564   54.5132   22.8361 C.ar      1 UNK         0.0000 
     28 N28         7.1040   54.9599   22.4694 N.pl3     1 UNK         0.0000 
     29 N29         5.2854   54.1207   20.4919 N.2       1 UNK         0.0000 
     30 C30         4.4729   53.7127   19.5953 C.2       1 UNK         0.0000 
     31 C31         4.7754   53.6959   18.1598 C.ar      1 UNK         0.0000 
     32 C32         5.8593   54.4030   17.6167 C.ar      1 UNK         0.0000 
     33 C33         6.1129   54.3630   16.2487 C.ar      1 UNK         0.0000 
     34 C34         5.2889   53.6133   15.4128 C.ar      1 UNK         0.0000 
     35 C35         4.2160   52.8995   15.9355 C.ar      1 UNK         0.0000 
     36 C36         3.9585   52.9445   17.3033 C.ar      1 UNK         0.0000 
     37 F37         5.5340   53.5779   14.0825 F         1 UNK         0.0000 
     38 H38         7.3760   53.9567   29.2272 H         1 UNK         0.0000 
     39 H39         6.9451   52.7251   28.0583 H         1 UNK         0.0000 
     40 H40         7.9047   54.1290   27.5647 H         1 UNK         0.0000 
     41 H41         4.9284   54.4958   29.8260 H         1 UNK         0.0000 
     42 H42         4.5753   53.1171   28.8174 H         1 UNK         0.0000 
     43 H43         3.0611   54.8209   27.4175 H         1 UNK         0.0000 
     44 H44         3.2708   55.8757   28.7840 H         1 UNK         0.0000 
     45 H45         1.5071   55.8217   30.3149 H         1 UNK         0.0000 
     46 H46        -0.2955   54.6164   31.4809 H         1 UNK         0.0000 
     47 H47        -0.7424   52.2424   30.9473 H         1 UNK         0.0000 
     48 H48         0.6198   51.0594   29.2747 H         1 UNK         0.0000 
     49 H49         2.4725   52.2355   28.1358 H         1 UNK         0.0000 
     50 H50         4.5339   53.8677   26.3312 H         1 UNK         0.0000 
     51 H51         0.3228   52.1179   21.4431 H         1 UNK         0.0000 
     52 H52        -1.4724   51.5461   23.0631 H         1 UNK         0.0000 
     53 H53        -1.1682   51.9848   25.4665 H         1 UNK         0.0000 
     54 H54         0.9246   53.0069   26.3046 H         1 UNK         0.0000 
     55 H55         7.7965   55.2185   23.1702 H         1 UNK         0.0000 
     56 H56         7.3947   54.9904   21.5032 H         1 UNK         0.0000 
     57 H57         3.4814   53.3382   19.8221 H         1 UNK         0.0000 
     58 H58         6.5118   54.9870   18.2501 H         1 UNK         0.0000 
     59 H59         6.9460   54.9100   15.8305 H         1 UNK         0.0000 
     60 H60         3.5921   52.3045   15.2869 H         1 UNK         0.0000 
     61 H61         3.1322   52.3661   17.6907 H         1 UNK         0.0000 
@<TRIPOS>BOND
     1    1    2 1    
     2    1   38 1    
     3    1   39 1    
     4    1   40 1    
     5    2    3 1    
     6    2    4 1    
     7    2   12 1    
     8    4    5 1    
     9    4   41 1    
    10    4   42 1    
    11    5    6 1    
    12    5   43 1    
    13    5   44 1    
    14    6   11 ar   
    15    6    7 ar   
    16    7    8 ar   
    17    7   45 1    
    18    8    9 ar   
    19    8   46 1    
    20    9   10 ar   
    21    9   47 1    
    22   10   11 ar   
    23   10   48 1    
    24   11   49 1    
    25   12   13 am   BACKBONE|DICT|INTERRES
    26   12   50 1    
    27   13   14 2    
    28   13   15 1    
    29   15   27 ar   
    30   15   16 ar   
    31   16   25 ar   
    32   16   17 ar   
    33   17   18 ar   
    34   17   26 ar   
    35   18   19 ar   
    36   19   24 ar   
    37   19   20 ar   
    38   20   21 ar   
    39   20   51 1    
    40   21   22 ar   
    41   21   52 1    
    42   22   23 ar   
    43   22   53 1    
    44   23   24 ar   
    45   23   54 1    
    46   24   25 ar   
    47   26   27 ar   
    48   26   29 1    
    49   27   28 1    
    50   28   55 1    
    51   28   56 1    
    52   29   30 2    
    53   30   31 1    
    54   30   57 1    
    55   31   36 ar   
    56   31   32 ar   
    57   32   33 ar   
    58   32   58 1    
    59   33   34 ar   
    60   33   59 1    
    61   34   35 ar   
    62   34   37 1    
    63   35   36 ar   
    64   35   60 1    
    65   36   61 1    
@<TRIPOS>SUBSTRUCTURE
     1 UNK         1 GROUP             0       ****    0 ROOT    
