@<TRIPOS>MOLECULE
ZINC39684733_1326
65   67    1
SMALL
USER_CHARGES


@<TRIPOS>ATOM
      1 C1         -0.3081   51.8096   29.6840 C.3       1 UNK         0.0000 
      2 C2         -0.0802   53.1161   28.8872 C.3       1 UNK         0.0000 
      3 H3         -0.8955   53.7866   29.1450 H         1 UNK         0.0000 
      4 C4          1.2181   53.9115   29.2846 C.3       1 UNK         0.0000 
      5 C5          1.5528   55.0261   28.2565 C.3       1 UNK         0.0000 
      6 C6          2.4510   52.9768   29.3716 C.3       1 UNK         0.0000 
      7 C7          1.0015   54.6085   30.6498 C.3       1 UNK         0.0000 
      8 N8         -0.2013   52.8960   27.4422 N.am      1 UNK         0.0000 
      9 C9         -1.2636   52.4192   26.7508 C.2       1 UNK         0.0000 
     10 O10        -2.3215   52.0967   27.2817 O.2       1 UNK         0.0000 
     11 C11        -1.1628   52.2234   25.2140 C.3       1 UNK         0.0000 
     12 H12        -2.0780   52.6266   24.7773 H         1 UNK         0.0000 
     13 C13        -0.0137   53.0393   24.6069 C.3       1 UNK         0.0000 
     14 N14         0.4440   52.2717   23.4557 N.am      1 UNK         0.0000 
     15 C15        -0.2523   50.9793   23.3745 C.3       1 UNK         0.0000 
     16 C16        -0.8701   50.7666   24.7805 C.3       1 UNK         0.0000 
     17 C17        -2.1708   49.9188   24.8157 C.3       1 UNK         0.0000 
     18 C18        -1.9492   48.4751   24.3446 C.3       1 UNK         0.0000 
     19 N19        -0.8962   47.8555   25.2817 N.4       1 UNK         0.0000 
     20 C20         0.4473   48.6107   25.2487 C.3       1 UNK         0.0000 
     21 C21         0.1624   50.0443   25.7104 C.3       1 UNK         0.0000 
     22 C22         1.6578   52.5017   22.8854 C.2       1 UNK         0.0000 
     23 O23         2.2615   51.6011   22.2980 O.2       1 UNK         0.0000 
     24 C24         2.2209   53.9642   22.8536 C.3       1 UNK         0.0000 
     25 C25         2.6997   54.5079   24.2213 C.3       1 UNK         0.0000 
     26 C26         4.0456   53.9486   24.7001 C.3       1 UNK         0.0000 
     27 O27         5.0499   54.1321   23.7001 O.3       1 UNK         0.0000 
     28 C28         4.7602   53.5752   22.4164 C.3       1 UNK         0.0000 
     29 C29         3.4182   54.1115   21.8790 C.3       1 UNK         0.0000 
     30 H30        -0.0913   51.9386   30.7445 H         1 UNK         0.0000 
     31 H31        -1.3469   51.4824   29.6362 H         1 UNK         0.0000 
     32 H32         0.3221   51.0018   29.3091 H         1 UNK         0.0000 
     33 H33         0.7044   55.6881   28.0830 H         1 UNK         0.0000 
     34 H34         2.3808   55.6530   28.5882 H         1 UNK         0.0000 
     35 H35         1.8481   54.6130   27.2949 H         1 UNK         0.0000 
     36 H36         2.3535   52.2450   30.1752 H         1 UNK         0.0000 
     37 H37         2.6001   52.4217   28.4434 H         1 UNK         0.0000 
     38 H38         3.3686   53.5341   29.5660 H         1 UNK         0.0000 
     39 H39         0.9148   53.8919   31.4673 H         1 UNK         0.0000 
     40 H40         1.8187   55.2903   30.8814 H         1 UNK         0.0000 
     41 H41         0.0936   55.2101   30.6568 H         1 UNK         0.0000 
     42 H42         0.6259   53.1309   26.9201 H         1 UNK         0.0000 
     43 H43        -0.2460   54.0874   24.3963 H         1 UNK         0.0000 
     44 H44         0.8222   52.9405   25.2933 H         1 UNK         0.0000 
     45 H45         0.3144   50.1292   22.9962 H         1 UNK         0.0000 
     46 H46        -1.1173   51.1372   22.7275 H         1 UNK         0.0000 
     47 H47        -2.9279   50.3787   24.1781 H         1 UNK         0.0000 
     48 H48        -2.6060   49.9194   25.8182 H         1 UNK         0.0000 
     49 H49        -1.5661   48.4034   23.3253 H         1 UNK         0.0000 
     50 H50        -2.8482   47.8655   24.4427 H         1 UNK         0.0000 
     51 H51        -0.7393   46.8832   25.0714 H         1 UNK         0.0000 
     52 H52         0.8499   48.5252   24.2409 H         1 UNK         0.0000 
     53 H53         1.1246   48.0993   25.9303 H         1 UNK         0.0000 
     54 H54        -0.1780   50.0066   26.7479 H         1 UNK         0.0000 
     55 H55         1.1025   50.5988   25.7378 H         1 UNK         0.0000 
     56 H56         1.3723   54.5372   22.4821 H         1 UNK         0.0000 
     57 H57         2.7460   55.5860   24.1094 H         1 UNK         0.0000 
     58 H58         1.9566   54.4967   25.0014 H         1 UNK         0.0000 
     59 H59         4.3641   54.4461   25.6168 H         1 UNK         0.0000 
     60 H60         3.9079   52.8968   24.9356 H         1 UNK         0.0000 
     61 H61         5.5688   53.8286   21.7308 H         1 UNK         0.0000 
     62 H62         4.7277   52.4916   22.4814 H         1 UNK         0.0000 
     63 H63         3.1679   53.7394   20.8843 H         1 UNK         0.0000 
     64 H64         3.5205   55.1754   21.6812 H         1 UNK         0.0000 
     65 H65        -1.2325   47.8815   26.2426 H         1 UNK         0.0000 
@<TRIPOS>BOND
     1    1    2 1    
     2    1   30 1    
     3    1   31 1    
     4    1   32 1    
     5    2    3 1    
     6    2    4 1    
     7    2    8 1    
     8    4    5 1    
     9    4    6 1    
    10    4    7 1    
    11    5   33 1    
    12    5   34 1    
    13    5   35 1    
    14    6   36 1    
    15    6   37 1    
    16    6   38 1    
    17    7   39 1    
    18    7   40 1    
    19    7   41 1    
    20    8    9 am   BACKBONE|DICT|INTERRES
    21    8   42 1    
    22    9   10 2    
    23    9   11 1    
    24   11   12 1    
    25   11   16 1    
    26   11   13 1    
    27   13   14 1    
    28   13   43 1    
    29   13   44 1    
    30   14   15 1    
    31   14   22 am   BACKBONE|DICT|INTERRES
    32   15   16 1    
    33   15   45 1    
    34   15   46 1    
    35   16   21 1    
    36   16   17 1    
    37   17   18 1    
    38   17   47 1    
    39   17   48 1    
    40   18   19 1    
    41   18   49 1    
    42   18   50 1    
    43   19   20 1    
    44   19   51 1    
    45   19   65 1    
    46   20   21 1    
    47   20   52 1    
    48   20   53 1    
    49   21   54 1    
    50   21   55 1    
    51   22   23 2    
    52   22   24 1    
    53   24   29 1    
    54   24   25 1    
    55   24   56 1    
    56   25   26 1    
    57   25   57 1    
    58   25   58 1    
    59   26   27 1    
    60   26   59 1    
    61   26   60 1    
    62   27   28 1    
    63   28   29 1    
    64   28   61 1    
    65   28   62 1    
    66   29   63 1    
    67   29   64 1    
@<TRIPOS>SUBSTRUCTURE
     1 UNK         1 GROUP             0       ****    0 ROOT    
