@<TRIPOS>MOLECULE
ZINC15093087_3257
54   57    1
SMALL
USER_CHARGES


@<TRIPOS>ATOM
      1 C1          5.5134   54.3284   27.2533 C.3       1 UNK         0.0000 
      2 C2          4.2320   54.0961   28.0650 C.2       1 UNK         0.0000 
      3 O3          4.3760   54.1644   29.2902 O.2       1 UNK         0.0000 
      4 N4          3.0156   53.8132   27.4726 N.am      1 UNK         0.0000 
      5 C5          1.9383   53.4866   28.3410 C.ar      1 UNK         0.0000 
      6 C6          1.4881   52.1607   28.4200 C.ar      1 UNK         0.0000 
      7 C7          0.4497   51.8219   29.2815 C.ar      1 UNK         0.0000 
      8 C8         -0.0960   52.7788   30.1327 C.ar      1 UNK         0.0000 
      9 C9          0.3560   54.0965   30.0797 C.ar      1 UNK         0.0000 
     10 C10         1.3564   54.4594   29.1767 C.ar      1 UNK         0.0000 
     11 F11         1.7569   55.7524   29.1234 F         1 UNK         0.0000 
     12 C12         2.8085   53.6937   26.0664 C.2       1 UNK         0.0000 
     13 N13         3.6344   54.0966   25.1270 N.2       1 UNK         0.0000 
     14 C14         3.2234   53.8529   23.8933 C.2       1 UNK         0.0000 
     15 C15         1.9642   53.2808   23.7929 C.2       1 UNK         0.0000 
     16 S16         1.3503   52.9884   25.3867 S.3       1 UNK         0.0000 
     17 C17         4.1188   54.1803   22.7966 C.2       1 UNK         0.0000 
     18 C18         5.4034   54.5837   22.9165 C.2       1 UNK         0.0000 
     19 C19         6.3058   54.8970   21.8378 C.2       1 UNK         0.0000 
     20 O20         7.5024   55.0547   22.0817 O.2       1 UNK         0.0000 
     21 N21         5.7927   54.9552   20.5836 N.am      1 UNK         0.0000 
     22 N22         6.6431   55.2430   19.5048 N.am      1 UNK         0.0000 
     23 C23         7.1152   56.4971   19.3224 C.2       1 UNK         0.0000 
     24 O24         6.7044   57.4974   19.9137 O.2       1 UNK         0.0000 
     25 C25         8.1751   56.6054   18.3614 C.ar      1 UNK         0.0000 
     26 C26         9.1315   55.6282   18.1123 C.ar      1 UNK         0.0000 
     27 N27        10.0823   56.0744   17.2272 N.pl3     1 UNK         0.0000 
     28 C28         9.7988   57.3868   16.8944 C.ar      1 UNK         0.0000 
     29 C29         8.6105   57.7507   17.6047 C.ar      1 UNK         0.0000 
     30 C30         8.1137   59.0559   17.4507 C.ar      1 UNK         0.0000 
     31 C31         8.7753   59.9461   16.6095 C.ar      1 UNK         0.0000 
     32 C32         9.9284   59.5673   15.9288 C.ar      1 UNK         0.0000 
     33 C33        10.4697   58.2877   16.0542 C.ar      1 UNK         0.0000 
     34 C34        11.2317   55.3047   16.7791 C.3       1 UNK         0.0000 
     35 H35         5.4407   55.2388   26.6592 H         1 UNK         0.0000 
     36 H36         6.3669   54.4465   27.9223 H         1 UNK         0.0000 
     37 H37         5.7267   53.4775   26.6053 H         1 UNK         0.0000 
     38 H38         1.9258   51.3935   27.7971 H         1 UNK         0.0000 
     39 H39         0.0704   50.8125   29.2876 H         1 UNK         0.0000 
     40 H40        -0.8805   52.4968   30.8230 H         1 UNK         0.0000 
     41 H41        -0.0774   54.8412   30.7309 H         1 UNK         0.0000 
     42 H42         1.4122   52.9941   22.9099 H         1 UNK         0.0000 
     43 H43         3.6629   54.0588   21.8231 H         1 UNK         0.0000 
     44 H44         5.8532   54.6865   23.8942 H         1 UNK         0.0000 
     45 H45         4.8116   54.9957   20.3513 H         1 UNK         0.0000 
     46 H46         7.0313   54.4201   19.0682 H         1 UNK         0.0000 
     47 H47         9.2304   54.6321   18.5225 H         1 UNK         0.0000 
     48 H48         7.2120   59.3676   17.9606 H         1 UNK         0.0000 
     49 H49         8.3742   60.9421   16.4801 H         1 UNK         0.0000 
     50 H50        10.4136   60.2843   15.2822 H         1 UNK         0.0000 
     51 H51        11.3660   58.0102   15.5195 H         1 UNK         0.0000 
     52 H52        11.2903   55.3407   15.6911 H         1 UNK         0.0000 
     53 H53        12.1385   55.7337   17.2055 H         1 UNK         0.0000 
     54 H54        11.1419   54.2647   17.0961 H         1 UNK         0.0000 
@<TRIPOS>BOND
     1    1    2 1    
     2    1   35 1    
     3    1   36 1    
     4    1   37 1    
     5    2    3 2    
     6    2    4 am   BACKBONE|DICT|INTERRES
     7    4    5 1    
     8    4   12 am   BACKBONE|DICT|INTERRES
     9    5   10 ar   
    10    5    6 ar   
    11    6    7 ar   
    12    6   38 1    
    13    7    8 ar   
    14    7   39 1    
    15    8    9 ar   
    16    8   40 1    
    17    9   10 ar   
    18    9   41 1    
    19   10   11 1    
    20   12   16 1    
    21   12   13 2    
    22   13   14 1    
    23   14   15 2    
    24   14   17 1    
    25   15   16 1    
    26   15   42 1    
    27   17   18 2    
    28   17   43 1    
    29   18   19 1    
    30   18   44 1    
    31   19   20 2    
    32   19   21 am   BACKBONE|DICT|INTERRES
    33   21   22 1    
    34   21   45 1    
    35   22   23 am   BACKBONE|DICT|INTERRES
    36   22   46 1    
    37   23   24 2    
    38   23   25 1    
    39   25   29 ar   
    40   25   26 ar   
    41   26   27 ar   
    42   26   47 1    
    43   27   28 ar   
    44   27   34 1    
    45   28   33 ar   
    46   28   29 ar   
    47   29   30 ar   
    48   30   31 ar   
    49   30   48 1    
    50   31   32 ar   
    51   31   49 1    
    52   32   33 ar   
    53   32   50 1    
    54   33   51 1    
    55   34   52 1    
    56   34   53 1    
    57   34   54 1    
@<TRIPOS>SUBSTRUCTURE
     1 UNK         1 GROUP             0       ****    0 ROOT    
