@<TRIPOS>MOLECULE
ZINC49212153_1856
27   28    1
SMALL
USER_CHARGES


@<TRIPOS>ATOM
      1 C1          4.7485   54.4951   25.7538 C.ar      1 UNK         0.0000 
      2 C2          3.5944   54.2754   25.0029 C.ar      1 UNK         0.0000 
      3 C3          3.6664   54.0966   23.6176 C.ar      1 UNK         0.0000 
      4 C4          4.9254   54.0967   22.9945 C.ar      1 UNK         0.0000 
      5 C5          6.0810   54.3140   23.7504 C.ar      1 UNK         0.0000 
      6 C6          5.9905   54.5240   25.1256 C.ar      1 UNK         0.0000 
      7 F7          7.1044   54.7623   25.8517 F         1 UNK         0.0000 
      8 Br8         5.0984   53.8367   21.1126 Br        1 UNK         0.0000 
      9 N9          2.4838   53.9396   22.8814 N.pl3     1 UNK         0.0000 
     10 N10         1.9789   52.6302   22.7286 N.am      1 UNK         0.0000 
     11 C11         1.1953   52.0576   23.6656 C.2       1 UNK         0.0000 
     12 O12         0.7830   52.6302   24.6799 O.2       1 UNK         0.0000 
     13 N13         0.9111   50.7818   23.3316 N.am      1 UNK         0.0000 
     14 C14         0.1641   49.9001   24.0946 C.ar      1 UNK         0.0000 
     15 C15        -0.1073   49.8996   25.4568 C.ar      1 UNK         0.0000 
     16 N16        -0.8644   48.7824   25.6817 N.pl3     1 UNK         0.0000 
     17 H17        -1.2023   48.4967   26.6048 H         1 UNK         0.0000 
     18 N18        -1.0922   48.0683   24.5752 N.2       1 UNK         0.0000 
     19 C19        -0.4775   48.7425   23.6285 C.ar      1 UNK         0.0000 
     20 H20         4.6813   54.6449   26.8211 H         1 UNK         0.0000 
     21 H21         2.6364   54.2537   25.4992 H         1 UNK         0.0000 
     22 H22         7.0497   54.3315   23.2728 H         1 UNK         0.0000 
     23 H23         2.5335   54.3357   21.9490 H         1 UNK         0.0000 
     24 H24         2.5332   52.0690   22.0978 H         1 UNK         0.0000 
     25 H25         1.2466   50.4328   22.4470 H         1 UNK         0.0000 
     26 H26         0.1674   50.5639   26.2634 H         1 UNK         0.0000 
     27 H27        -0.4956   48.4034   22.6041 H         1 UNK         0.0000 
@<TRIPOS>BOND
     1    1    6 ar   
     2    1    2 ar   
     3    1   20 1    
     4    2    3 ar   
     5    2   21 1    
     6    3    4 ar   
     7    3    9 1    
     8    4    5 ar   
     9    4    8 1    
    10    5    6 ar   
    11    5   22 1    
    12    6    7 1    
    13    9   10 1    
    14    9   23 1    
    15   10   11 am   BACKBONE|DICT|INTERRES
    16   10   24 1    
    17   11   12 2    
    18   11   13 am   BACKBONE|DICT|INTERRES
    19   13   14 1    
    20   13   25 1    
    21   14   19 ar   
    22   14   15 ar   
    23   15   16 ar   
    24   15   26 1    
    25   16   17 1    
    26   16   18 ar   
    27   18   19 ar   
    28   19   27 1    
@<TRIPOS>SUBSTRUCTURE
     1 UNK         1 GROUP             0       ****    0 ROOT    
