ZINC01921408_3315
                    3D
 Schrodinger Suite 2024-2.
 43 46  0  0  1  0            999 V2000
    3.7850   52.7915   28.9091 C   0  0  0  0  0  0
    2.8519   52.5591   29.9147 C   0  0  0  0  0  0
    1.7839   53.4374   30.0815 C   0  0  0  0  0  0
    1.6672   54.5782   29.2937 C   0  0  0  0  0  0
    2.6053   54.8197   28.2978 C   0  0  0  0  0  0
    3.6490   53.9120   28.0822 C   0  0  0  0  0  0
    4.5230   54.0967   26.9761 N   0  0  0  0  0  0
    4.0117   54.0629   25.6767 C   0  0  0  0  0  0
    4.7640   54.4949   24.6312 C   0  0  0  0  0  0
    6.1047   54.9957   24.8924 C   0  0  0  0  0  0
    6.7040   55.4517   23.9241 O   0  0  0  0  0  0
    6.5635   54.9156   26.1373 N   0  5  0  0  0  0
    5.8532   54.4525   27.1730 C   0  0  0  0  0  0
    6.3044   54.3258   28.3088 O   0  0  0  0  0  0
    2.8383   53.3675   25.4947 N   0  0  0  0  0  0
    1.9059   53.4782   24.5297 C   0  0  0  0  0  0
    1.8869   54.3655   23.6758 O   0  0  0  0  0  0
    0.8293   52.3840   24.5797 C   0  0  0  0  0  0
   -0.4413   52.4967   23.2811 S   0  0  0  0  0  0
   -1.4165   51.0701   23.6133 C   0  0  0  0  0  0
   -1.1450   50.1513   24.5016 N   0  0  0  0  0  0
   -2.0885   49.1724   24.5174 C   0  0  0  0  0  0
   -2.0745   48.0473   25.3534 C   0  0  0  0  0  0
   -3.1304   47.1226   25.2828 C   0  0  0  0  0  0
   -4.1716   47.3332   24.3638 C   0  0  0  0  0  0
   -4.2015   48.4339   23.5099 C   0  0  0  0  0  0
   -3.1509   49.3514   23.5967 C   0  0  0  0  0  0
   -2.8817   50.8286   22.6921 S   0  0  0  0  0  0
   -3.1460   45.9263   26.1639 N   0  3  0  0  0  0
   -4.0998   45.1557   26.0818 O   0  0  0  0  0  0
   -2.1760   45.6987   26.8781 O   0  5  0  0  0  0
    0.5934   53.1135   31.2815 Cl  0  0  0  0  0  0
    4.5988   52.0975   28.7555 H   0  0  0  0  0  0
    2.9453   51.6965   30.5544 H   0  0  0  0  0  0
    0.8473   55.2652   29.4444 H   0  0  0  0  0  0
    2.5033   55.6967   27.6807 H   0  0  0  0  0  0
    4.4371   54.4087   23.6058 H   0  0  0  0  0  0
    2.6859   52.6454   26.1816 H   0  0  0  0  0  0
    1.3243   51.4176   24.4851 H   0  0  0  0  0  0
    0.3373   52.4095   25.5520 H   0  0  0  0  0  0
   -1.2802   47.9175   26.0810 H   0  0  0  0  0  0
   -4.9890   46.6272   24.3081 H   0  0  0  0  0  0
   -5.0141   48.5775   22.8113 H   0  0  0  0  0  0
  1  6  2  0  0  0
  1  2  1  0  0  0
  1 33  1  0  0  0
  2  3  2  0  0  0
  2 34  1  0  0  0
  3  4  1  0  0  0
  3 32  1  0  0  0
  4  5  2  0  0  0
  4 35  1  0  0  0
  5  6  1  0  0  0
  5 36  1  0  0  0
  6  7  1  0  0  0
  7 13  1  0  0  0
  7  8  1  0  0  0
  8  9  2  0  0  0
  8 15  1  0  0  0
  9 10  1  0  0  0
  9 37  1  0  0  0
 10 11  2  0  0  0
 10 12  1  0  0  0
 12 13  1  0  0  0
 13 14  2  0  0  0
 15 16  1  0  0  0
 15 38  1  0  0  0
 16 17  2  0  0  0
 16 18  1  0  0  0
 18 19  1  0  0  0
 18 39  1  0  0  0
 18 40  1  0  0  0
 19 20  1  0  0  0
 20 28  1  0  0  0
 20 21  2  0  0  0
 21 22  1  0  0  0
 22 27  2  0  0  0
 22 23  1  0  0  0
 23 24  2  0  0  0
 23 41  1  0  0  0
 24 25  1  0  0  0
 24 29  1  0  0  0
 25 26  2  0  0  0
 25 42  1  0  0  0
 26 27  1  0  0  0
 26 43  1  0  0  0
 27 28  1  0  0  0
 29 30  2  0  0  0
 29 31  1  0  0  0
M  CHG  3  12  -1  29   1  31  -1
M  END
> <i_i_glide_confnum>
27

> <i_i_glide_lignum>
3316

> <i_i_glide_posenum>
266

> <i_i_glide_rotatable_bonds>
7

> <i_m_Source_File_Index>
4359

> <b_m_subgroup_collapsed>
0

> <r_i_docking_score>
-5.67837

> <r_i_glide_ecoul>
-0.514821

> <r_i_glide_eff_state_penalty>
0

> <r_i_glide_einternal>
2.1755

> <r_i_glide_emodel>
-68.9446

> <r_i_glide_energy>
-50.0713

> <r_i_glide_erotb>
0.510559

> <r_i_glide_esite>
-0.3

> <r_i_glide_evdw>
-49.5565

> <r_i_glide_gscore>
-5.67837

> <r_i_glide_hbond>
-0.0787728

> <r_i_glide_ligand_efficiency>
-0.177449

> <r_i_glide_ligand_efficiency_ln>
-1.27154

> <r_i_glide_ligand_efficiency_sa>
-0.563365

> <r_i_glide_lipo>
-2.12238

> <r_i_glide_metal>
0

> <r_i_glide_rewards>
-1.13273

> <s_i_glide_gridfile>
wee1_glide-grid

> <s_m_Source_File>
wee1_decoys_glide_SP.sdf

> <s_m_Source_Path>
/Users/zhangxujun/Desktop

> <s_m_entry_id>
4634

> <s_m_entry_name>
wee1_decoys_glide_SP.4359

> <s_m_subgroup_title>
wee1_decoys_glide_SP

> <s_m_subgroupid>
wee1_decoys_glide_SP


$$$$
