ZINC00076371_1802
                    3D
 Schrodinger Suite 2024-2.
 31 33  0  0  1  0            999 V2000
    5.7723   54.0962   26.9310 C   0  0  0  0  0  0
    5.2826   53.5152   28.0969 C   0  0  0  0  0  0
    3.9128   53.3031   28.2452 C   0  0  0  0  0  0
    3.0264   53.6869   27.2301 C   0  0  0  0  0  0
    3.5360   54.2506   26.0530 C   0  0  0  0  0  0
    4.9044   54.4611   25.9047 C   0  0  0  0  0  0
    1.5078   53.5102   27.3782 C   0  0  2  0  0  0
    1.1049   54.3932   26.8874 H   0  0  0  0  0  0
    0.9574   53.5305   28.8076 C   0  0  0  0  0  0
    0.9661   54.4441   29.8754 C   0  0  0  0  0  0
    0.3445   53.9599   30.9429 N   0  0  0  0  0  0
   -0.0733   52.7343   30.5981 N   0  0  0  0  0  0
   -0.5937   52.1281   31.2270 H   0  0  0  0  0  0
    0.2724   52.4528   29.3106 C   0  0  0  0  0  0
   -0.0635   51.2966   28.6611 O   0  0  0  0  0  0
    0.2615   51.2967   27.3325 C   0  0  0  0  0  0
    0.9356   52.2705   26.6658 C   0  0  0  0  0  0
    1.1051   52.1732   25.2504 C   0  0  0  0  0  0
    1.2193   52.1171   24.1017 N   0  0  0  0  0  0
   -0.2269   50.1409   26.7899 N   0  0  0  0  0  0
    1.6036   55.8158   29.8681 C   0  0  0  0  0  0
    2.9087   55.6979   29.6654 F   0  0  0  0  0  0
    1.1194   56.5552   28.8820 F   0  0  0  0  0  0
    1.4176   56.4965   30.9980 F   0  0  0  0  0  0
    6.8352   54.2531   26.8185 H   0  0  0  0  0  0
    5.9642   53.2274   28.8815 H   0  0  0  0  0  0
    3.5473   52.8492   29.1554 H   0  0  0  0  0  0
    2.8698   54.5313   25.2481 H   0  0  0  0  0  0
    5.2871   54.8996   24.9941 H   0  0  0  0  0  0
   -0.0404   49.8821   25.8328 H   0  0  0  0  0  0
   -0.7225   49.4649   27.3779 H   0  0  0  0  0  0
  1  6  2  0  0  0
  1  2  1  0  0  0
  1 25  1  0  0  0
  2  3  2  0  0  0
  2 26  1  0  0  0
  3  4  1  0  0  0
  3 27  1  0  0  0
  4  5  2  0  0  0
  4  7  1  0  0  0
  5  6  1  0  0  0
  5 28  1  0  0  0
  6 29  1  0  0  0
  7  8  1  0  0  0
  7 17  1  0  0  0
  7  9  1  0  0  0
  9 14  2  0  0  0
  9 10  1  0  0  0
 10 11  2  0  0  0
 10 21  1  0  0  0
 11 12  1  0  0  0
 12 13  1  0  0  0
 12 14  1  0  0  0
 14 15  1  0  0  0
 15 16  1  0  0  0
 16 17  2  0  0  0
 16 20  1  0  0  0
 17 18  1  0  0  0
 18 19  3  0  0  0
 20 30  1  0  0  0
 20 31  1  0  0  0
 21 22  1  0  0  0
 21 23  1  0  0  0
 21 24  1  0  0  0
M  END
> <i_i_glide_confnum>
1

> <i_i_glide_lignum>
1803

> <i_i_glide_posenum>
366

> <i_i_glide_rotatable_bonds>
3

> <i_m_Source_File_Index>
373

> <b_m_subgroup_collapsed>
0

> <r_i_docking_score>
-7.51805

> <r_i_glide_ecoul>
-4.38969

> <r_i_glide_eff_state_penalty>
0

> <r_i_glide_einternal>
1.3389

> <r_i_glide_emodel>
-51.4445

> <r_i_glide_energy>
-35.5395

> <r_i_glide_erotb>
0.196931

> <r_i_glide_esite>
-0.164792

> <r_i_glide_evdw>
-31.1498

> <r_i_glide_gscore>
-7.51805

> <r_i_glide_hbond>
-0.253232

> <r_i_glide_ligand_efficiency>
-0.34173

> <r_i_glide_ligand_efficiency_ln>
-1.83769

> <r_i_glide_ligand_efficiency_sa>
-0.95754

> <r_i_glide_lipo>
-2.65378

> <r_i_glide_metal>
0

> <r_i_glide_rewards>
-2.42723

> <s_i_glide_gridfile>
wee1_glide-grid

> <s_m_Source_File>
wee1_decoys_glide_SP.sdf

> <s_m_Source_Path>
/Users/zhangxujun/Desktop

> <s_m_entry_id>
648

> <s_m_entry_name>
wee1_decoys_glide_SP.373

> <s_m_subgroup_title>
wee1_decoys_glide_SP

> <s_m_subgroupid>
wee1_decoys_glide_SP


$$$$
