@<TRIPOS>MOLECULE
ZINC21710596_2465
65   69    1
SMALL
USER_CHARGES


@<TRIPOS>ATOM
      1 C1          1.1620   53.9011   23.3005 C.ar      1 UNK         0.0000 
      2 C2          2.3908   54.3384   23.7773 C.ar      1 UNK         0.0000 
      3 C3          3.5822   53.7327   23.3598 C.ar      1 UNK         0.0000 
      4 C4          3.5054   52.7908   22.3219 C.ar      1 UNK         0.0000 
      5 C5          2.2776   52.3410   21.8288 C.ar      1 UNK         0.0000 
      6 C6          1.1023   52.8965   22.3419 C.ar      1 UNK         0.0000 
      7 N7          2.2777   51.2972   20.8913 N.pl3     1 UNK         0.0000 
      8 S8          0.8187   50.4633   20.3312 S.o2      1 UNK         0.0000 
      9 O9         -0.1218   51.4729   19.8298 O.2       1 UNK         0.0000 
     10 O10         1.2710   49.3618   19.4769 O.2       1 UNK         0.0000 
     11 C11         0.0746   49.7051   21.7704 C.ar      1 UNK         0.0000 
     12 C12         0.8393   49.3411   22.8779 C.ar      1 UNK         0.0000 
     13 C13         0.2154   48.7848   23.9908 C.ar      1 UNK         0.0000 
     14 C14        -1.1638   48.5555   24.0133 C.ar      1 UNK         0.0000 
     15 C15        -1.9344   48.8829   22.8743 C.ar      1 UNK         0.0000 
     16 C16        -1.2994   49.4687   21.7741 C.ar      1 UNK         0.0000 
     17 C17        -3.4295   48.5654   22.8054 C.3       1 UNK         0.0000 
     18 C18        -4.0665   48.3556   24.1897 C.3       1 UNK         0.0000 
     19 C19        -3.2100   47.4027   25.0341 C.3       1 UNK         0.0000 
     20 C20        -1.8193   48.0132   25.2824 C.3       1 UNK         0.0000 
     21 C21         4.9324   54.0968   23.9517 C.2       1 UNK         0.0000 
     22 O22         5.8971   54.0950   23.1829 O.2       1 UNK         0.0000 
     23 N23         5.0667   54.4319   25.2778 N.am      1 UNK         0.0000 
     24 C24         6.3735   54.9566   25.7421 C.3       1 UNK         0.0000 
     25 C25         6.8673   54.1026   26.9210 C.3       1 UNK         0.0000 
     26 C26         5.8718   54.0998   28.0818 C.3       1 UNK         0.0000 
     27 C27         4.5302   53.5476   27.5614 C.3       1 UNK         0.0000 
     28 H28         4.6827   52.4972   27.3171 H         1 UNK         0.0000 
     29 C29         3.9945   54.2953   26.3066 C.3       1 UNK         0.0000 
     30 C30         3.4602   53.5997   28.6770 C.2       1 UNK         0.0000 
     31 O31         3.4683   54.4964   29.5237 O.2       1 UNK         0.0000 
     32 N32         2.5355   52.6238   28.6680 N.am      1 UNK         0.0000 
     33 C33         1.4716   52.4848   29.6587 C.3       1 UNK         0.0000 
     34 C34         0.3506   53.4992   29.6874 C.3       1 UNK         0.0000 
     35 C35         0.0919   52.0969   29.1825 C.3       1 UNK         0.0000 
     36 H36         0.2550   54.3446   23.6817 H         1 UNK         0.0000 
     37 H37         2.4012   55.1522   24.4812 H         1 UNK         0.0000 
     38 H38         4.4130   52.3419   21.9435 H         1 UNK         0.0000 
     39 H39         0.1307   52.5675   22.0095 H         1 UNK         0.0000 
     40 H40         3.1576   50.8595   20.6657 H         1 UNK         0.0000 
     41 H41         1.9078   49.5031   22.8958 H         1 UNK         0.0000 
     42 H42         0.8126   48.5321   24.8557 H         1 UNK         0.0000 
     43 H43        -1.8828   49.7266   20.9022 H         1 UNK         0.0000 
     44 H44        -3.9625   49.3473   22.2634 H         1 UNK         0.0000 
     45 H45        -3.5477   47.6521   22.2215 H         1 UNK         0.0000 
     46 H46        -5.0774   47.9597   24.0788 H         1 UNK         0.0000 
     47 H47        -4.1656   49.3135   24.7031 H         1 UNK         0.0000 
     48 H48        -3.1122   46.4430   24.5276 H         1 UNK         0.0000 
     49 H49        -3.6974   47.1999   25.9891 H         1 UNK         0.0000 
     50 H50        -1.1703   47.2916   25.7771 H         1 UNK         0.0000 
     51 H51        -1.9213   48.8390   25.9877 H         1 UNK         0.0000 
     52 H52         6.2171   55.9823   26.0766 H         1 UNK         0.0000 
     53 H53         7.1403   54.9749   24.9659 H         1 UNK         0.0000 
     54 H54         7.8196   54.4943   27.2809 H         1 UNK         0.0000 
     55 H55         7.0783   53.0857   26.5858 H         1 UNK         0.0000 
     56 H56         5.7874   55.1388   28.4101 H         1 UNK         0.0000 
     57 H57         6.2919   53.4687   28.8675 H         1 UNK         0.0000 
     58 H58         3.1761   53.6674   25.9544 H         1 UNK         0.0000 
     59 H59         3.6547   55.2964   26.5746 H         1 UNK         0.0000 
     60 H60         2.6805   51.8365   28.0542 H         1 UNK         0.0000 
     61 H61         1.8151   52.1027   30.6207 H         1 UNK         0.0000 
     62 H62         0.3815   54.3282   28.9801 H         1 UNK         0.0000 
     63 H63        -0.0470   53.7976   30.6578 H         1 UNK         0.0000 
     64 H64        -0.4951   51.4091   29.7959 H         1 UNK         0.0000 
     65 H65        -0.0694   51.9333   28.1170 H         1 UNK         0.0000 
@<TRIPOS>BOND
     1    1    6 ar   
     2    1    2 ar   
     3    1   36 1    
     4    2    3 ar   
     5    2   37 1    
     6    3    4 ar   
     7    3   21 1    
     8    4    5 ar   
     9    4   38 1    
    10    5    6 ar   
    11    5    7 1    
    12    6   39 1    
    13    7    8 1    
    14    7   40 1    
    15    8    9 2    
    16    8   10 2    
    17    8   11 1    
    18   11   16 ar   
    19   11   12 ar   
    20   12   13 ar   
    21   12   41 1    
    22   13   14 ar   
    23   13   42 1    
    24   14   20 1    
    25   14   15 ar   
    26   15   16 ar   
    27   15   17 1    
    28   16   43 1    
    29   17   18 1    
    30   17   44 1    
    31   17   45 1    
    32   18   19 1    
    33   18   46 1    
    34   18   47 1    
    35   19   20 1    
    36   19   48 1    
    37   19   49 1    
    38   20   50 1    
    39   20   51 1    
    40   21   22 2    
    41   21   23 am   BACKBONE|DICT|INTERRES
    42   23   29 1    
    43   23   24 1    
    44   24   25 1    
    45   24   52 1    
    46   24   53 1    
    47   25   26 1    
    48   25   54 1    
    49   25   55 1    
    50   26   27 1    
    51   26   56 1    
    52   26   57 1    
    53   27   28 1    
    54   27   29 1    
    55   27   30 1    
    56   29   58 1    
    57   29   59 1    
    58   30   31 2    
    59   30   32 am   BACKBONE|DICT|INTERRES
    60   32   33 1    
    61   32   60 1    
    62   33   35 1    
    63   33   34 1    
    64   33   61 1    
    65   34   35 1    
    66   34   62 1    
    67   34   63 1    
    68   35   64 1    
    69   35   65 1    
@<TRIPOS>SUBSTRUCTURE
     1 UNK         1 GROUP             0       ****    0 ROOT    
