@<TRIPOS>MOLECULE
ZINC65074812_2229
61   64    1
SMALL
USER_CHARGES


@<TRIPOS>ATOM
      1 C1         -0.1005   53.2770   28.3023 C.3       1 UNK         0.0000 
      2 C2         -0.4424   52.2828   27.2083 C.ar      1 UNK         0.0000 
      3 C3         -1.5268   52.4954   26.3579 C.ar      1 UNK         0.0000 
      4 C4         -1.8148   51.5803   25.3475 C.ar      1 UNK         0.0000 
      5 C5         -1.0324   50.4313   25.1660 C.ar      1 UNK         0.0000 
      6 C6          0.0489   50.2068   26.0473 C.ar      1 UNK         0.0000 
      7 C7          0.3392   51.1442   27.0426 C.ar      1 UNK         0.0000 
      8 C8          0.9077   48.9592   26.0136 C.3       1 UNK         0.0000 
      9 S9         -1.5424   49.2871   23.8471 S.o2      1 UNK         0.0000 
     10 O10        -2.9394   49.6128   23.5340 O.2       1 UNK         0.0000 
     11 O11        -1.1842   47.9176   24.2306 O.2       1 UNK         0.0000 
     12 N12        -0.5674   49.7246   22.4298 N.pl3     1 UNK         0.0000 
     13 C13         0.8348   49.2573   22.3194 C.3       1 UNK         0.0000 
     14 C14         1.8506   50.3922   22.5404 C.3       1 UNK         0.0000 
     15 C15         1.5762   51.6340   21.6549 C.3       1 UNK         0.0000 
     16 C16         0.0970   52.0668   21.8864 C.3       1 UNK         0.0000 
     17 C17        -0.9218   50.9347   21.6541 C.3       1 UNK         0.0000 
     18 C18         2.5807   52.7539   21.9883 C.2       1 UNK         0.0000 
     19 N19         3.6841   52.9892   21.2611 N.pl3     1 UNK         0.0000 
     20 C20         3.9876   52.3632   19.9769 C.3       1 UNK         0.0000 
     21 C21         3.1047   51.1265   19.7968 C.3       1 UNK         0.0000 
     22 N22         1.7354   51.4064   20.2085 N.3       1 UNK         0.0000 
     23 N23         2.3221   53.4739   23.0886 N.pl3     1 UNK         0.0000 
     24 C24         3.0284   54.6697   23.5508 C.3       1 UNK         0.0000 
     25 C25         4.1248   54.4099   24.5679 C.ar      1 UNK         0.0000 
     26 C26         3.7894   54.1513   25.8999 C.ar      1 UNK         0.0000 
     27 C27         4.7957   53.9968   26.8497 C.ar      1 UNK         0.0000 
     28 C28         6.1302   54.0983   26.4648 C.ar      1 UNK         0.0000 
     29 C29         6.4695   54.3463   25.1367 C.ar      1 UNK         0.0000 
     30 C30         5.4661   54.4964   24.1845 C.ar      1 UNK         0.0000 
     31 F31         7.1041   53.9573   27.3895 F         1 UNK         0.0000 
     32 H32        -0.4852   52.9323   29.2624 H         1 UNK         0.0000 
     33 H33         0.9791   53.3962   28.3914 H         1 UNK         0.0000 
     34 H34        -0.5126   54.2610   28.0853 H         1 UNK         0.0000 
     35 H35        -2.1576   53.3624   26.4823 H         1 UNK         0.0000 
     36 H36        -2.6654   51.7698   24.7098 H         1 UNK         0.0000 
     37 H37         1.1644   50.9715   27.7185 H         1 UNK         0.0000 
     38 H38         1.5926   48.8937   26.8584 H         1 UNK         0.0000 
     39 H39         0.2573   48.0968   26.0811 H         1 UNK         0.0000 
     40 H40         1.4972   48.8968   25.1053 H         1 UNK         0.0000 
     41 H41         0.9636   48.7668   21.3540 H         1 UNK         0.0000 
     42 H42         0.9998   48.4963   23.0738 H         1 UNK         0.0000 
     43 H43         2.8629   50.0177   22.3954 H         1 UNK         0.0000 
     44 H44         1.8179   50.6945   23.5874 H         1 UNK         0.0000 
     45 H45        -0.0459   52.4370   22.9014 H         1 UNK         0.0000 
     46 H46        -0.1413   52.8964   21.2253 H         1 UNK         0.0000 
     47 H47        -1.0016   50.6575   20.6024 H         1 UNK         0.0000 
     48 H48        -1.9163   51.2676   21.9531 H         1 UNK         0.0000 
     49 H49         3.7761   53.1010   19.2023 H         1 UNK         0.0000 
     50 H50         5.0467   52.1085   19.9242 H         1 UNK         0.0000 
     51 H51         3.1049   50.8157   18.7492 H         1 UNK         0.0000 
     52 H52         3.5041   50.2683   20.3364 H         1 UNK         0.0000 
     53 H53         1.1370   50.6399   19.9329 H         1 UNK         0.0000 
     54 H54         1.5038   53.2027   23.6153 H         1 UNK         0.0000 
     55 H55         2.2669   55.2961   24.0166 H         1 UNK         0.0000 
     56 H56         3.3957   55.2032   22.6743 H         1 UNK         0.0000 
     57 H57         2.7547   54.0865   26.2052 H         1 UNK         0.0000 
     58 H58         4.5475   53.8025   27.8825 H         1 UNK         0.0000 
     59 H59         7.5058   54.4239   24.8445 H         1 UNK         0.0000 
     60 H60         5.7380   54.7051   23.1601 H         1 UNK         0.0000 
     61 H61         4.2737   53.7468   21.5710 H         1 UNK         0.0000 
@<TRIPOS>BOND
     1    1    2 1    
     2    1   32 1    
     3    1   33 1    
     4    1   34 1    
     5    2    7 ar   
     6    2    3 ar   
     7    3    4 ar   
     8    3   35 1    
     9    4    5 ar   
    10    4   36 1    
    11    5    6 ar   
    12    5    9 1    
    13    6    7 ar   
    14    6    8 1    
    15    7   37 1    
    16    8   38 1    
    17    8   39 1    
    18    8   40 1    
    19    9   10 2    
    20    9   11 2    
    21    9   12 1    
    22   12   17 1    
    23   12   13 1    
    24   13   14 1    
    25   13   41 1    
    26   13   42 1    
    27   14   15 1    
    28   14   43 1    
    29   14   44 1    
    30   15   22 1    
    31   15   16 1    
    32   15   18 1    
    33   16   17 1    
    34   16   45 1    
    35   16   46 1    
    36   17   47 1    
    37   17   48 1    
    38   18   19 2    
    39   18   23 1    
    40   19   20 1    
    41   19   61 1    
    42   20   21 1    
    43   20   49 1    
    44   20   50 1    
    45   21   22 1    
    46   21   51 1    
    47   21   52 1    
    48   22   53 1    
    49   23   24 1    
    50   23   54 1    
    51   24   25 1    
    52   24   55 1    
    53   24   56 1    
    54   25   30 ar   
    55   25   26 ar   
    56   26   27 ar   
    57   26   57 1    
    58   27   28 ar   
    59   27   58 1    
    60   28   29 ar   
    61   28   31 1    
    62   29   30 ar   
    63   29   59 1    
    64   30   60 1    
@<TRIPOS>SUBSTRUCTURE
     1 UNK         1 GROUP             0       ****    0 ROOT    
