@<TRIPOS>MOLECULE
ZINC66097164_2891
71   74    1
SMALL
USER_CHARGES


@<TRIPOS>ATOM
      1 C1         -3.8359   46.8041   27.9286 C.3       1 UNK         0.0000 
      2 C2         -4.4371   47.2929   26.5984 C.3       1 UNK         0.0000 
      3 N3         -4.3536   46.3195   25.4891 N.am      1 UNK         0.0000 
      4 C4         -5.1890   45.1823   25.5722 C.ar      1 UNK         0.0000 
      5 C5         -4.8976   44.1568   26.4815 C.ar      1 UNK         0.0000 
      6 C6         -5.7106   43.0286   26.5513 C.ar      1 UNK         0.0000 
      7 C7         -6.8235   42.9328   25.7200 C.ar      1 UNK         0.0000 
      8 C8         -7.1345   43.9538   24.8223 C.ar      1 UNK         0.0000 
      9 C9         -6.3191   45.0801   24.7483 C.ar      1 UNK         0.0000 
     10 C10        -3.5522   46.4922   24.3882 C.2       1 UNK         0.0000 
     11 O11        -3.5364   45.6971   23.4415 O.2       1 UNK         0.0000 
     12 C12        -2.6391   47.6938   24.2938 C.ar      1 UNK         0.0000 
     13 C13        -1.6824   47.9581   25.2814 C.ar      1 UNK         0.0000 
     14 C14        -0.8425   49.0629   25.1678 C.ar      1 UNK         0.0000 
     15 C15        -0.9340   49.9128   24.0618 C.ar      1 UNK         0.0000 
     16 C16        -1.8713   49.6336   23.0554 C.ar      1 UNK         0.0000 
     17 C17        -2.7099   48.5274   23.1713 C.ar      1 UNK         0.0000 
     18 N18        -0.0620   51.0203   24.0626 N.am      1 UNK         0.0000 
     19 C19         0.1037   52.0071   23.1533 C.2       1 UNK         0.0000 
     20 O20        -0.5067   52.0955   22.0856 O.2       1 UNK         0.0000 
     21 C21         1.1258   53.0940   23.5394 C.3       1 UNK         0.0000 
     22 N22         2.0892   53.3233   22.4824 N.pl3     1 UNK         0.0000 
     23 C23         3.3944   53.8121   22.6546 C.ar      1 UNK         0.0000 
     24 C24         4.1885   54.0296   21.5270 C.ar      1 UNK         0.0000 
     25 C25         5.5046   54.4739   21.6616 C.ar      1 UNK         0.0000 
     26 C26         6.0526   54.6818   22.9291 C.ar      1 UNK         0.0000 
     27 C27         5.2657   54.4965   24.0744 C.ar      1 UNK         0.0000 
     28 C28         3.9353   54.0738   23.9174 C.ar      1 UNK         0.0000 
     29 C29         5.8197   54.7964   25.4461 C.2       1 UNK         0.0000 
     30 O30         6.7046   55.6365   25.6213 O.2       1 UNK         0.0000 
     31 N31         5.2559   54.0967   26.4443 N.am      1 UNK         0.0000 
     32 C32         5.5095   54.2416   27.8693 C.3       1 UNK         0.0000 
     33 H33         5.6658   55.2969   28.0943 H         1 UNK         0.0000 
     34 C34         6.8243   53.5363   28.2436 C.3       1 UNK         0.0000 
     35 C35         4.2530   53.8489   28.6649 C.ar      1 UNK         0.0000 
     36 C36         4.2326   52.7855   29.5780 C.ar      1 UNK         0.0000 
     37 C37         3.0734   52.4956   30.2956 C.ar      1 UNK         0.0000 
     38 C38         1.9191   53.2444   30.0826 C.ar      1 UNK         0.0000 
     39 C39         1.9175   54.2930   29.1683 C.ar      1 UNK         0.0000 
     40 C40         3.0806   54.5920   28.4649 C.ar      1 UNK         0.0000 
     41 H41        -3.7026   47.6359   28.6214 H         1 UNK         0.0000 
     42 H42        -4.4896   46.0896   28.4265 H         1 UNK         0.0000 
     43 H43        -2.8610   46.3328   27.7947 H         1 UNK         0.0000 
     44 H44        -4.0149   48.2624   26.3342 H         1 UNK         0.0000 
     45 H45        -5.4940   47.4995   26.7624 H         1 UNK         0.0000 
     46 H46        -4.0499   44.2294   27.1413 H         1 UNK         0.0000 
     47 H47        -5.4740   42.2364   27.2489 H         1 UNK         0.0000 
     48 H48        -7.4573   42.0601   25.7788 H         1 UNK         0.0000 
     49 H49        -8.0048   43.8700   24.1856 H         1 UNK         0.0000 
     50 H50        -6.5599   45.8700   24.0512 H         1 UNK         0.0000 
     51 H51        -1.5769   47.3190   26.1497 H         1 UNK         0.0000 
     52 H52        -0.1265   49.2467   25.9574 H         1 UNK         0.0000 
     53 H53        -1.9765   50.2534   22.1795 H         1 UNK         0.0000 
     54 H54        -3.4235   48.3288   22.3834 H         1 UNK         0.0000 
     55 H55         0.5241   51.0738   24.8811 H         1 UNK         0.0000 
     56 H56         0.5342   53.9919   23.7221 H         1 UNK         0.0000 
     57 H57         1.5649   52.8350   24.5035 H         1 UNK         0.0000 
     58 H58         1.7336   53.3675   21.5334 H         1 UNK         0.0000 
     59 H59         3.7892   53.8530   20.5392 H         1 UNK         0.0000 
     60 H60         6.1089   54.6338   20.7810 H         1 UNK         0.0000 
     61 H61         7.0777   55.0159   23.0151 H         1 UNK         0.0000 
     62 H62         3.3183   53.9512   24.7919 H         1 UNK         0.0000 
     63 H63         4.6786   53.3097   26.1887 H         1 UNK         0.0000 
     64 H64         7.0971   53.7046   29.2815 H         1 UNK         0.0000 
     65 H65         6.7727   52.4661   28.0617 H         1 UNK         0.0000 
     66 H66         7.6477   53.9204   27.6453 H         1 UNK         0.0000 
     67 H67         5.1045   52.1754   29.7434 H         1 UNK         0.0000 
     68 H68         3.0678   51.6974   31.0216 H         1 UNK         0.0000 
     69 H69         1.0195   53.0143   30.6361 H         1 UNK         0.0000 
     70 H70         1.0210   54.8718   29.0066 H         1 UNK         0.0000 
     71 H71         3.0699   55.4031   27.7550 H         1 UNK         0.0000 
@<TRIPOS>BOND
     1    1    2 1    
     2    1   41 1    
     3    1   42 1    
     4    1   43 1    
     5    2    3 1    
     6    2   44 1    
     7    2   45 1    
     8    3    4 1    
     9    3   10 am   BACKBONE|DICT|INTERRES
    10    4    9 ar   
    11    4    5 ar   
    12    5    6 ar   
    13    5   46 1    
    14    6    7 ar   
    15    6   47 1    
    16    7    8 ar   
    17    7   48 1    
    18    8    9 ar   
    19    8   49 1    
    20    9   50 1    
    21   10   11 2    
    22   10   12 1    
    23   12   17 ar   
    24   12   13 ar   
    25   13   14 ar   
    26   13   51 1    
    27   14   15 ar   
    28   14   52 1    
    29   15   16 ar   
    30   15   18 1    
    31   16   17 ar   
    32   16   53 1    
    33   17   54 1    
    34   18   19 am   BACKBONE|DICT|INTERRES
    35   18   55 1    
    36   19   20 2    
    37   19   21 1    
    38   21   22 1    
    39   21   56 1    
    40   21   57 1    
    41   22   23 1    
    42   22   58 1    
    43   23   28 ar   
    44   23   24 ar   
    45   24   25 ar   
    46   24   59 1    
    47   25   26 ar   
    48   25   60 1    
    49   26   27 ar   
    50   26   61 1    
    51   27   28 ar   
    52   27   29 1    
    53   28   62 1    
    54   29   30 2    
    55   29   31 am   BACKBONE|DICT|INTERRES
    56   31   32 1    
    57   31   63 1    
    58   32   33 1    
    59   32   34 1    
    60   32   35 1    
    61   34   64 1    
    62   34   65 1    
    63   34   66 1    
    64   35   40 ar   
    65   35   36 ar   
    66   36   37 ar   
    67   36   67 1    
    68   37   38 ar   
    69   37   68 1    
    70   38   39 ar   
    71   38   69 1    
    72   39   40 ar   
    73   39   70 1    
    74   40   71 1    
@<TRIPOS>SUBSTRUCTURE
     1 UNK         1 GROUP             0       ****    0 ROOT    
