@<TRIPOS>MOLECULE
ZINC38745157_2418
53   58    1
SMALL
USER_CHARGES


@<TRIPOS>ATOM
      1 C1          5.8639   54.4977   21.7961 C.ar      1 UNK         0.0000 
      2 C2          6.7043   54.7615   22.8740 C.ar      1 UNK         0.0000 
      3 C3          6.2356   54.6248   24.1785 C.ar      1 UNK         0.0000 
      4 C4          4.9098   54.2373   24.4143 C.ar      1 UNK         0.0000 
      5 C5          4.0787   53.9817   23.3126 C.ar      1 UNK         0.0000 
      6 C6          4.5502   54.0970   22.0106 C.ar      1 UNK         0.0000 
      7 C7          4.3604   54.1250   25.7903 C.2       1 UNK         0.0000 
      8 C8          3.0673   54.0958   26.1121 C.2       1 UNK         0.0000 
      9 C9          3.0475   53.9102   27.5995 C.3       1 UNK         0.0000 
     10 H10         2.6204   54.7939   28.0782 H         1 UNK         0.0000 
     11 N11         4.4502   53.8497   27.9239 N.2       1 UNK         0.0000 
     12 N12         5.1611   53.9731   26.8695 N.2       1 UNK         0.0000 
     13 C13         2.3017   52.6258   28.0726 C.3       1 UNK         0.0000 
     14 H14         2.9948   51.7870   28.0817 H         1 UNK         0.0000 
     15 N15         1.2254   52.2057   27.1641 N.3       1 UNK         0.0000 
     16 N16         0.1142   51.8894   27.9135 N.pl3     1 UNK         0.0000 
     17 C17        -1.1663   51.4073   27.6823 C.ar      1 UNK         0.0000 
     18 N18        -1.7671   51.3058   28.8532 N.2       1 UNK         0.0000 
     19 N19        -0.8955   51.7381   29.8534 N.2       1 UNK         0.0000 
     20 C20         0.1994   52.0959   29.2519 C.ar      1 UNK         0.0000 
     21 S21         1.7127   52.7449   29.7934 S.3       1 UNK         0.0000 
     22 C22        -1.8216   51.0218   26.3134 C.3       1 UNK         0.0000 
     23 C23        -3.1086   51.8723   26.0306 C.ar      1 UNK         0.0000 
     24 C24        -4.1587   51.8521   26.9689 C.ar      1 UNK         0.0000 
     25 C25        -5.3436   52.5523   26.7570 C.ar      1 UNK         0.0000 
     26 C26        -5.5013   53.2992   25.5953 C.ar      1 UNK         0.0000 
     27 C27        -4.5014   53.3075   24.6319 C.ar      1 UNK         0.0000 
     28 C28        -3.3366   52.5726   24.8320 C.ar      1 UNK         0.0000 
     29 C29        -0.7555   51.0482   25.1678 C.ar      1 UNK         0.0000 
     30 C30        -0.3254   52.2619   24.6006 C.ar      1 UNK         0.0000 
     31 C31         0.6111   52.2884   23.5725 C.ar      1 UNK         0.0000 
     32 C32         1.1720   51.0987   23.1222 C.ar      1 UNK         0.0000 
     33 C33         0.7956   49.8852   23.6887 C.ar      1 UNK         0.0000 
     34 C34        -0.1619   49.8598   24.7011 C.ar      1 UNK         0.0000 
     35 O35        -2.3155   49.6967   26.4811 O.3       1 UNK         0.0000 
     36 H36         6.2321   54.5996   20.7869 H         1 UNK         0.0000 
     37 H37         7.7217   55.0686   22.6855 H         1 UNK         0.0000 
     38 H38         6.9029   54.8335   25.0013 H         1 UNK         0.0000 
     39 H39         3.0560   53.6768   23.4538 H         1 UNK         0.0000 
     40 H40         3.8988   53.8878   21.1739 H         1 UNK         0.0000 
     41 H41         2.1990   54.1795   25.4766 H         1 UNK         0.0000 
     42 H42         0.9549   53.0003   26.6040 H         1 UNK         0.0000 
     43 H43        -4.0776   51.2637   27.8676 H         1 UNK         0.0000 
     44 H44        -6.1343   52.5147   27.4933 H         1 UNK         0.0000 
     45 H45        -6.4174   53.8481   25.4277 H         1 UNK         0.0000 
     46 H46        -4.6411   53.8584   23.7138 H         1 UNK         0.0000 
     47 H47        -2.6461   52.5546   24.0090 H         1 UNK         0.0000 
     48 H48        -0.7342   53.1990   24.9501 H         1 UNK         0.0000 
     49 H49         0.8956   53.2294   23.1254 H         1 UNK         0.0000 
     50 H50         1.9053   51.1168   22.3281 H         1 UNK         0.0000 
     51 H51         1.2441   48.9641   23.3457 H         1 UNK         0.0000 
     52 H52        -0.4313   48.9021   25.1215 H         1 UNK         0.0000 
     53 H53        -1.8232   49.2182   27.1831 H         1 UNK         0.0000 
@<TRIPOS>BOND
     1    1    6 ar   
     2    1    2 ar   
     3    1   36 1    
     4    2    3 ar   
     5    2   37 1    
     6    3    4 ar   
     7    3   38 1    
     8    4    5 ar   
     9    4    7 1    
    10    5    6 ar   
    11    5   39 1    
    12    6   40 1    
    13    7   12 1    
    14    7    8 2    
    15    8    9 1    
    16    8   41 1    
    17    9   10 1    
    18    9   11 1    
    19    9   13 1    
    20   11   12 2    
    21   13   14 1    
    22   13   21 1    
    23   13   15 1    
    24   15   16 1    
    25   15   42 1    
    26   16   20 ar   
    27   16   17 ar   
    28   17   18 ar   
    29   17   22 1    
    30   18   19 ar   
    31   19   20 ar   
    32   20   21 1    
    33   22   23 1    
    34   22   29 1    
    35   22   35 1    
    36   23   28 ar   
    37   23   24 ar   
    38   24   25 ar   
    39   24   43 1    
    40   25   26 ar   
    41   25   44 1    
    42   26   27 ar   
    43   26   45 1    
    44   27   28 ar   
    45   27   46 1    
    46   28   47 1    
    47   29   34 ar   
    48   29   30 ar   
    49   30   31 ar   
    50   30   48 1    
    51   31   32 ar   
    52   31   49 1    
    53   32   33 ar   
    54   32   50 1    
    55   33   34 ar   
    56   33   51 1    
    57   34   52 1    
    58   35   53 1    
@<TRIPOS>SUBSTRUCTURE
     1 UNK         1 GROUP             0       ****    0 ROOT    
