@<TRIPOS>MOLECULE
ZINC35375125_4989
58   60    1
SMALL
USER_CHARGES


@<TRIPOS>ATOM
      1 C1         -6.3439   47.0336   30.3549 C.3       1 UNK         0.0000 
      2 C2         -6.3316   47.8019   29.0201 C.3       1 UNK         0.0000 
      3 C3         -5.7070   47.0532   27.8157 C.3       1 UNK         0.0000 
      4 H4         -5.7483   47.7501   26.9765 H         1 UNK         0.0000 
      5 C5         -6.5391   45.8192   27.4044 C.3       1 UNK         0.0000 
      6 C6         -4.2136   46.7176   28.0452 C.3       1 UNK         0.0000 
      7 N7         -3.5451   46.1305   26.8798 N.am      1 UNK         0.0000 
      8 C8         -2.8958   46.7528   25.8782 C.2       1 UNK         0.0000 
      9 O9         -2.3605   46.0967   24.9893 O.2       1 UNK         0.0000 
     10 C10        -2.7606   48.2831   25.8245 C.3       1 UNK         0.0000 
     11 H11        -3.0983   48.7571   26.7441 H         1 UNK         0.0000 
     12 C12        -3.4095   48.8982   24.5725 C.3       1 UNK         0.0000 
     13 S13        -2.5389   50.4624   24.2894 S.3       1 UNK         0.0000 
     14 C14        -1.1172   50.1145   25.3726 C.3       1 UNK         0.0000 
     15 N15        -1.2695   48.6231   25.6817 N.4       1 UNK         0.0000 
     16 C16         0.2480   50.3547   24.6878 C.3       1 UNK         0.0000 
     17 C17         0.5663   51.8637   24.5365 C.3       1 UNK         0.0000 
     18 N18         0.4469   52.4967   25.8727 N.am      1 UNK         0.0000 
     19 C19        -0.8880   52.3894   26.4962 C.3       1 UNK         0.0000 
     20 C20        -1.1953   50.8967   26.7048 C.3       1 UNK         0.0000 
     21 C21         1.5044   52.8967   26.6343 C.2       1 UNK         0.0000 
     22 O22         1.4404   52.9558   27.8636 O.2       1 UNK         0.0000 
     23 N23         2.5825   53.2967   25.9214 N.am      1 UNK         0.0000 
     24 C24         3.8211   53.8238   26.3451 C.ar      1 UNK         0.0000 
     25 C25         4.2177   53.9378   27.6904 C.ar      1 UNK         0.0000 
     26 C26         5.4665   54.4643   28.0178 C.ar      1 UNK         0.0000 
     27 C27         6.3331   54.8827   27.0127 C.ar      1 UNK         0.0000 
     28 C28         5.9570   54.7722   25.6761 C.ar      1 UNK         0.0000 
     29 C29         4.7092   54.2446   25.3395 C.ar      1 UNK         0.0000 
     30 Br30        4.2618   54.0967   23.4878 Br        1 UNK         0.0000 
     31 H31        -6.8248   47.6274   31.1329 H         1 UNK         0.0000 
     32 H32        -5.3353   46.8112   30.7037 H         1 UNK         0.0000 
     33 H33        -6.8958   46.0968   30.2790 H         1 UNK         0.0000 
     34 H34        -7.3556   48.0860   28.7714 H         1 UNK         0.0000 
     35 H35        -5.8021   48.7447   29.1678 H         1 UNK         0.0000 
     36 H36        -6.5049   45.0340   28.1593 H         1 UNK         0.0000 
     37 H37        -7.5862   46.0825   27.2500 H         1 UNK         0.0000 
     38 H38        -6.1783   45.3888   26.4698 H         1 UNK         0.0000 
     39 H39        -3.6956   47.5914   28.4383 H         1 UNK         0.0000 
     40 H40        -4.1231   45.9808   28.8439 H         1 UNK         0.0000 
     41 H41        -3.5258   45.1209   26.8817 H         1 UNK         0.0000 
     42 H42        -3.2771   48.2872   23.6771 H         1 UNK         0.0000 
     43 H43        -4.4750   49.0903   24.7059 H         1 UNK         0.0000 
     44 H44        -0.8166   48.4000   26.5675 H         1 UNK         0.0000 
     45 H45         1.0506   49.8818   25.2577 H         1 UNK         0.0000 
     46 H46         0.2723   49.8789   23.7061 H         1 UNK         0.0000 
     47 H47         1.5111   52.0627   24.0297 H         1 UNK         0.0000 
     48 H48        -0.1892   52.3329   23.9046 H         1 UNK         0.0000 
     49 H49        -0.9884   52.9954   27.3984 H         1 UNK         0.0000 
     50 H50        -1.6022   52.8220   25.7945 H         1 UNK         0.0000 
     51 H51        -2.1796   50.7984   27.1637 H         1 UNK         0.0000 
     52 H52        -0.4956   50.4943   27.4408 H         1 UNK         0.0000 
     53 H53         2.4950   53.2375   24.9191 H         1 UNK         0.0000 
     54 H54         3.5875   53.6203   28.5044 H         1 UNK         0.0000 
     55 H55         5.7655   54.5522   29.0526 H         1 UNK         0.0000 
     56 H56         7.2942   55.2932   27.2817 H         1 UNK         0.0000 
     57 H57         6.6338   55.0909   24.8962 H         1 UNK         0.0000 
     58 H58        -0.8453   48.0572   24.9619 H         1 UNK         0.0000 
@<TRIPOS>BOND
     1    1    2 1    
     2    1   31 1    
     3    1   32 1    
     4    1   33 1    
     5    2    3 1    
     6    2   34 1    
     7    2   35 1    
     8    3    4 1    
     9    3    5 1    
    10    3    6 1    
    11    5   36 1    
    12    5   37 1    
    13    5   38 1    
    14    6    7 1    
    15    6   39 1    
    16    6   40 1    
    17    7    8 am   BACKBONE|DICT|INTERRES
    18    7   41 1    
    19    8    9 2    
    20    8   10 1    
    21   10   11 1    
    22   10   15 1    
    23   10   12 1    
    24   12   13 1    
    25   12   42 1    
    26   12   43 1    
    27   13   14 1    
    28   14   20 1    
    29   14   15 1    
    30   14   16 1    
    31   15   44 1    
    32   15   58 1    
    33   16   17 1    
    34   16   45 1    
    35   16   46 1    
    36   17   18 1    
    37   17   47 1    
    38   17   48 1    
    39   18   19 1    
    40   18   21 am   BACKBONE|DICT|INTERRES
    41   19   20 1    
    42   19   49 1    
    43   19   50 1    
    44   20   51 1    
    45   20   52 1    
    46   21   22 2    
    47   21   23 am   BACKBONE|DICT|INTERRES
    48   23   24 1    
    49   23   53 1    
    50   24   29 ar   
    51   24   25 ar   
    52   25   26 ar   
    53   25   54 1    
    54   26   27 ar   
    55   26   55 1    
    56   27   28 ar   
    57   27   56 1    
    58   28   29 ar   
    59   28   57 1    
    60   29   30 1    
@<TRIPOS>SUBSTRUCTURE
     1 UNK         1 GROUP             0       ****    0 ROOT    
