@<TRIPOS>MOLECULE
ZINC25339827_436
63   65    1
SMALL
USER_CHARGES


@<TRIPOS>ATOM
      1 C1          2.6466   53.8678   15.8305 C.3       1 UNK         0.0000 
      2 C2          3.2914   53.8253   17.2099 C.ar      1 UNK         0.0000 
      3 C3          3.0594   52.7196   18.0290 C.ar      1 UNK         0.0000 
      4 C4          3.6352   52.6458   19.2923 C.ar      1 UNK         0.0000 
      5 C5          4.4565   53.6746   19.7766 C.ar      1 UNK         0.0000 
      6 C6          4.6712   54.7972   18.9557 C.ar      1 UNK         0.0000 
      7 C7          4.1103   54.8673   17.6762 C.ar      1 UNK         0.0000 
      8 N8          4.3790   55.9704   16.8604 N.pl3     1 UNK         0.0000 
      9 S9          5.7154   55.9563   15.7031 S.o2      1 UNK         0.0000 
     10 O10         5.9830   54.5604   15.3407 O.2       1 UNK         0.0000 
     11 O11         5.3319   56.8839   14.6364 O.2       1 UNK         0.0000 
     12 C12         7.1392   56.6377   16.6293 C.ar      1 UNK         0.0000 
     13 C13         8.0301   55.7852   17.3335 C.ar      1 UNK         0.0000 
     14 C14         9.1152   56.3281   18.0270 C.ar      1 UNK         0.0000 
     15 C15         9.3590   57.6957   18.0247 C.ar      1 UNK         0.0000 
     16 C16         8.5035   58.5372   17.3245 C.ar      1 UNK         0.0000 
     17 C17         7.4079   58.0311   16.6195 C.ar      1 UNK         0.0000 
     18 C18         6.5481   59.0576   15.8859 C.3       1 UNK         0.0000 
     19 C19        10.5380   58.2635   18.7935 C.3       1 UNK         0.0000 
     20 C20         7.8764   54.2689   17.4093 C.3       1 UNK         0.0000 
     21 C21         5.1001   53.5220   21.1373 C.2       1 UNK         0.0000 
     22 O22         5.1056   52.4240   21.6976 O.2       1 UNK         0.0000 
     23 N23         5.6005   54.6288   21.7162 N.am      1 UNK         0.0000 
     24 C24         6.2198   54.6890   23.0507 C.3       1 UNK         0.0000 
     25 C25         5.3101   54.4966   24.2754 C.ar      1 UNK         0.0000 
     26 C26         5.8914   54.4967   25.5484 C.ar      1 UNK         0.0000 
     27 C27         5.1092   54.2978   26.6864 C.ar      1 UNK         0.0000 
     28 C28         3.7263   54.0931   26.5585 C.ar      1 UNK         0.0000 
     29 C29         3.1473   54.0968   25.2898 C.ar      1 UNK         0.0000 
     30 C30         3.9273   54.3062   24.1602 C.ar      1 UNK         0.0000 
     31 N31         2.8481   53.8465   27.6298 N.am      1 UNK         0.0000 
     32 C32         3.0290   54.0232   28.9523 C.2       1 UNK         0.0000 
     33 O33         4.0307   54.4967   29.4866 O.2       1 UNK         0.0000 
     34 C34         1.8555   53.6021   29.8322 C.3       1 UNK         0.0000 
     35 H35         1.9083   53.0750   15.6951 H         1 UNK         0.0000 
     36 H36         2.1377   54.8211   15.6805 H         1 UNK         0.0000 
     37 H37         3.4059   53.7734   15.0536 H         1 UNK         0.0000 
     38 H38         2.4506   51.8987   17.6831 H         1 UNK         0.0000 
     39 H39         3.4537   51.7583   19.8817 H         1 UNK         0.0000 
     40 H40         5.3087   55.6070   19.2789 H         1 UNK         0.0000 
     41 H41         3.8868   56.8388   17.0076 H         1 UNK         0.0000 
     42 H42         9.7890   55.6793   18.5702 H         1 UNK         0.0000 
     43 H43         8.6932   59.6008   17.3224 H         1 UNK         0.0000 
     44 H44         6.8407   60.0888   16.0849 H         1 UNK         0.0000 
     45 H45         6.6265   58.9224   14.8077 H         1 UNK         0.0000 
     46 H46         5.5011   58.9664   16.1752 H         1 UNK         0.0000 
     47 H47        10.3562   59.2948   19.0962 H         1 UNK         0.0000 
     48 H48        10.7037   57.6972   19.7090 H         1 UNK         0.0000 
     49 H49        11.4463   58.2194   18.1924 H         1 UNK         0.0000 
     50 H50         8.4825   53.8308   18.2014 H         1 UNK         0.0000 
     51 H51         6.8514   53.9783   17.6226 H         1 UNK         0.0000 
     52 H52         8.1669   53.8094   16.4660 H         1 UNK         0.0000 
     53 H53         5.4747   55.5074   21.2378 H         1 UNK         0.0000 
     54 H54         6.7054   55.6614   23.1475 H         1 UNK         0.0000 
     55 H55         7.0244   53.9512   23.0981 H         1 UNK         0.0000 
     56 H56         6.9565   54.6311   25.6574 H         1 UNK         0.0000 
     57 H57         5.5946   54.2839   27.6499 H         1 UNK         0.0000 
     58 H58         2.0850   53.9378   25.1652 H         1 UNK         0.0000 
     59 H59         3.4389   54.3096   23.1995 H         1 UNK         0.0000 
     60 H60         1.9416   53.5067   27.3516 H         1 UNK         0.0000 
     61 H61         1.2019   54.4544   30.0225 H         1 UNK         0.0000 
     62 H62         2.2131   53.2231   30.7901 H         1 UNK         0.0000 
     63 H63         1.2674   52.8114   29.3617 H         1 UNK         0.0000 
@<TRIPOS>BOND
     1    1    2 1    
     2    1   35 1    
     3    1   36 1    
     4    1   37 1    
     5    2    7 ar   
     6    2    3 ar   
     7    3    4 ar   
     8    3   38 1    
     9    4    5 ar   
    10    4   39 1    
    11    5    6 ar   
    12    5   21 1    
    13    6    7 ar   
    14    6   40 1    
    15    7    8 1    
    16    8    9 1    
    17    8   41 1    
    18    9   10 2    
    19    9   11 2    
    20    9   12 1    
    21   12   17 ar   
    22   12   13 ar   
    23   13   14 ar   
    24   13   20 1    
    25   14   15 ar   
    26   14   42 1    
    27   15   16 ar   
    28   15   19 1    
    29   16   17 ar   
    30   16   43 1    
    31   17   18 1    
    32   18   44 1    
    33   18   45 1    
    34   18   46 1    
    35   19   47 1    
    36   19   48 1    
    37   19   49 1    
    38   20   50 1    
    39   20   51 1    
    40   20   52 1    
    41   21   22 2    
    42   21   23 am   BACKBONE|DICT|INTERRES
    43   23   24 1    
    44   23   53 1    
    45   24   25 1    
    46   24   54 1    
    47   24   55 1    
    48   25   30 ar   
    49   25   26 ar   
    50   26   27 ar   
    51   26   56 1    
    52   27   28 ar   
    53   27   57 1    
    54   28   29 ar   
    55   28   31 1    
    56   29   30 ar   
    57   29   58 1    
    58   30   59 1    
    59   31   32 am   BACKBONE|DICT|INTERRES
    60   31   60 1    
    61   32   33 2    
    62   32   34 1    
    63   34   61 1    
    64   34   62 1    
    65   34   63 1    
@<TRIPOS>SUBSTRUCTURE
     1 UNK         1 GROUP             0       ****    0 ROOT    
