@<TRIPOS>MOLECULE
ZINC13148798_5031
62   65    1
SMALL
USER_CHARGES


@<TRIPOS>ATOM
      1 C1          2.1460   48.9034   19.1260 C.3       1 UNK         0.0000 
      2 C2          1.7321   50.1091   19.9862 C.3       1 UNK         0.0000 
      3 H3          1.5028   49.7408   20.9865 H         1 UNK         0.0000 
      4 C4          0.4990   50.8027   19.3789 C.3       1 UNK         0.0000 
      5 C5          0.0625   52.0980   20.0823 C.3       1 UNK         0.0000 
      6 N6          0.2476   52.0797   21.5426 N.am      1 UNK         0.0000 
      7 C7          1.4280   52.6021   22.1354 C.ar      1 UNK         0.0000 
      8 C8          1.3535   53.4575   23.2511 C.ar      1 UNK         0.0000 
      9 C9          2.4734   54.0967   23.7720 C.ar      1 UNK         0.0000 
     10 C10         3.7116   53.9098   23.1758 C.ar      1 UNK         0.0000 
     11 C11         3.8260   53.0617   22.0815 C.ar      1 UNK         0.0000 
     12 C12         2.7153   52.3905   21.5617 C.ar      1 UNK         0.0000 
     13 S13         3.0867   51.2960   20.1976 S.3       1 UNK         0.0000 
     14 C14        -0.7024   51.4078   22.2718 C.2       1 UNK         0.0000 
     15 O15        -1.8119   51.1448   21.7951 O.2       1 UNK         0.0000 
     16 C16        -0.4136   50.8420   23.6788 C.3       1 UNK         0.0000 
     17 S17        -1.6765   51.3486   24.9048 S.3       1 UNK         0.0000 
     18 C18        -0.6761   51.8912   26.2548 C.ar      1 UNK         0.0000 
     19 N19         0.4807   52.4898   26.1350 N.2       1 UNK         0.0000 
     20 N20         0.9044   52.8320   27.4082 N.2       1 UNK         0.0000 
     21 C21        -0.0020   52.4184   28.2610 C.ar      1 UNK         0.0000 
     22 N22        -1.0400   51.8262   27.5829 N.pl3     1 UNK         0.0000 
     23 N23        -2.1936   51.2961   28.1172 N.3       1 UNK         0.0000 
     24 C24         0.0438   52.5953   29.7875 C.3       1 UNK         0.0000 
     25 O25         1.3144   52.2701   30.3737 O.3       1 UNK         0.0000 
     26 C26         2.4273   52.9221   29.8972 C.ar      1 UNK         0.0000 
     27 C27         2.4484   54.3040   29.6817 C.ar      1 UNK         0.0000 
     28 C28         3.5358   54.8876   29.0447 C.ar      1 UNK         0.0000 
     29 C29         4.6069   54.0944   28.6132 C.ar      1 UNK         0.0000 
     30 C30         4.5970   52.7255   28.8827 C.ar      1 UNK         0.0000 
     31 C31         3.5213   52.1445   29.5375 C.ar      1 UNK         0.0000 
     32 C32         5.7511   54.7164   27.8133 C.3       1 UNK         0.0000 
     33 C33         7.1043   53.9869   27.9428 C.3       1 UNK         0.0000 
     34 C34         5.3658   54.8930   26.3356 C.3       1 UNK         0.0000 
     35 H35         1.3729   48.1358   19.1292 H         1 UNK         0.0000 
     36 H36         2.3062   49.1963   18.0860 H         1 UNK         0.0000 
     37 H37         3.0662   48.4454   19.4894 H         1 UNK         0.0000 
     38 H38        -0.3361   50.0989   19.3919 H         1 UNK         0.0000 
     39 H39         0.6680   51.0331   18.3259 H         1 UNK         0.0000 
     40 H40        -0.9643   52.3532   19.8179 H         1 UNK         0.0000 
     41 H41         0.6733   52.9144   19.6958 H         1 UNK         0.0000 
     42 H42         0.3940   53.6678   23.7013 H         1 UNK         0.0000 
     43 H43         2.3754   54.7517   24.6241 H         1 UNK         0.0000 
     44 H44         4.5835   54.4210   23.5578 H         1 UNK         0.0000 
     45 H45         4.7981   52.9147   21.6325 H         1 UNK         0.0000 
     46 H46         0.6013   51.0289   24.0206 H         1 UNK         0.0000 
     47 H47        -0.4773   49.7568   23.5963 H         1 UNK         0.0000 
     48 H48        -3.0092   51.5914   27.5981 H         1 UNK         0.0000 
     49 H49        -2.1169   50.2795   28.1684 H         1 UNK         0.0000 
     50 H50        -0.6714   51.9224   30.2670 H         1 UNK         0.0000 
     51 H51        -0.2794   53.5880   30.1032 H         1 UNK         0.0000 
     52 H52         1.6045   54.9174   29.9597 H         1 UNK         0.0000 
     53 H53         3.5043   55.9494   28.8667 H         1 UNK         0.0000 
     54 H54         5.4068   52.0967   28.5489 H         1 UNK         0.0000 
     55 H55         3.5024   51.0771   29.6805 H         1 UNK         0.0000 
     56 H56         5.9046   55.6965   28.2505 H         1 UNK         0.0000 
     57 H57         7.3616   53.7979   28.9851 H         1 UNK         0.0000 
     58 H58         7.9039   54.5918   27.5241 H         1 UNK         0.0000 
     59 H59         7.1104   53.0327   27.4140 H         1 UNK         0.0000 
     60 H60         4.4218   55.4254   26.2194 H         1 UNK         0.0000 
     61 H61         6.1264   55.4555   25.7921 H         1 UNK         0.0000 
     62 H62         5.2567   53.9240   25.8437 H         1 UNK         0.0000 
@<TRIPOS>BOND
     1    1    2 1    
     2    1   35 1    
     3    1   36 1    
     4    1   37 1    
     5    2    3 1    
     6    2   13 1    
     7    2    4 1    
     8    4    5 1    
     9    4   38 1    
    10    4   39 1    
    11    5    6 1    
    12    5   40 1    
    13    5   41 1    
    14    6    7 1    
    15    6   14 am   BACKBONE|DICT|INTERRES
    16    7   12 ar   
    17    7    8 ar   
    18    8    9 ar   
    19    8   42 1    
    20    9   10 ar   
    21    9   43 1    
    22   10   11 ar   
    23   10   44 1    
    24   11   12 ar   
    25   11   45 1    
    26   12   13 1    
    27   14   15 2    
    28   14   16 1    
    29   16   17 1    
    30   16   46 1    
    31   16   47 1    
    32   17   18 1    
    33   18   22 ar   
    34   18   19 ar   
    35   19   20 ar   
    36   20   21 ar   
    37   21   22 ar   
    38   21   24 1    
    39   22   23 1    
    40   23   48 1    
    41   23   49 1    
    42   24   25 1    
    43   24   50 1    
    44   24   51 1    
    45   25   26 1    
    46   26   31 ar   
    47   26   27 ar   
    48   27   28 ar   
    49   27   52 1    
    50   28   29 ar   
    51   28   53 1    
    52   29   30 ar   
    53   29   32 1    
    54   30   31 ar   
    55   30   54 1    
    56   31   55 1    
    57   32   33 1    
    58   32   34 1    
    59   32   56 1    
    60   33   57 1    
    61   33   58 1    
    62   33   59 1    
    63   34   60 1    
    64   34   61 1    
    65   34   62 1    
@<TRIPOS>SUBSTRUCTURE
     1 UNK         1 GROUP             0       ****    0 ROOT    
