ZINC52860709_4701
                    3D
 Schrodinger Suite 2024-2.
 40 41  0  0  1  0            999 V2000
    1.2903   56.2242   30.3738 C   0  0  0  0  0  0
    1.6333   54.9580   29.5858 C   0  0  1  0  0  0
    0.6968   54.5455   29.2090 H   0  0  0  0  0  0
    2.6112   55.2349   28.4217 C   0  0  0  0  0  0
    2.9309   53.9732   27.7468 N   0  0  0  0  0  0
    3.5606   53.0440   28.6925 C   0  0  0  0  0  0
    2.6404   52.7686   29.9136 C   0  0  0  0  0  0
    2.2323   54.0187   30.4763 O   0  0  0  0  0  0
    1.4121   51.9298   29.4883 C   0  0  0  0  0  0
    3.4635   52.0970   31.0211 C   0  0  0  0  0  0
    2.9374   53.7982   26.3682 C   0  0  0  0  0  0
    1.7330   53.2955   25.8561 C   0  0  0  0  0  0
    1.5502   53.0728   24.4991 C   0  0  0  0  0  0
    2.5854   53.3454   23.6212 C   0  0  0  0  0  0
    3.7906   53.8431   24.1034 C   0  0  0  0  0  0
    4.0119   54.0971   25.4790 C   0  0  0  0  0  0
    5.3477   54.6364   25.8940 C   0  0  0  0  0  0
    5.8429   54.3128   27.0220 N   0  0  0  0  0  0
    7.0988   54.8956   27.2812 O   0  0  0  0  0  0
    5.9036   55.4764   24.9392 N   0  0  0  0  0  0
    2.3891   53.0437   21.9345 Cl  0  0  0  0  0  0
    0.7045   56.9008   29.7566 H   0  0  0  0  0  0
    0.7103   55.9907   31.2719 H   0  0  0  0  0  0
    2.1863   56.7620   30.6839 H   0  0  0  0  0  0
    3.5340   55.6959   28.7674 H   0  0  0  0  0  0
    2.1191   55.8677   27.6873 H   0  0  0  0  0  0
    3.8445   52.1101   28.2043 H   0  0  0  0  0  0
    4.4798   53.5170   29.0379 H   0  0  0  0  0  0
    1.7156   50.9648   29.0801 H   0  0  0  0  0  0
    0.7577   51.7373   30.3400 H   0  0  0  0  0  0
    0.8040   52.4126   28.7277 H   0  0  0  0  0  0
    3.9048   51.1751   30.6651 H   0  0  0  0  0  0
    4.2740   52.7355   31.3687 H   0  0  0  0  0  0
    2.8434   51.8701   31.8898 H   0  0  0  0  0  0
    0.9116   53.0769   26.5234 H   0  0  0  0  0  0
    0.6133   52.6752   24.1350 H   0  0  0  0  0  0
    4.5707   54.0114   23.3750 H   0  0  0  0  0  0
    7.1651   54.8326   28.2438 H   0  0  0  0  0  0
    6.8155   55.8717   25.1062 H   0  0  0  0  0  0
    5.4055   55.7119   24.0954 H   0  0  0  0  0  0
  1  2  1  0  0  0
  1 22  1  0  0  0
  1 23  1  0  0  0
  1 24  1  0  0  0
  2  3  1  0  0  0
  2  8  1  0  0  0
  2  4  1  0  0  0
  4  5  1  0  0  0
  4 25  1  0  0  0
  4 26  1  0  0  0
  5  6  1  0  0  0
  5 11  1  0  0  0
  6  7  1  0  0  0
  6 27  1  0  0  0
  6 28  1  0  0  0
  7  8  1  0  0  0
  7  9  1  0  0  0
  7 10  1  0  0  0
  9 29  1  0  0  0
  9 30  1  0  0  0
  9 31  1  0  0  0
 10 32  1  0  0  0
 10 33  1  0  0  0
 10 34  1  0  0  0
 11 16  2  0  0  0
 11 12  1  0  0  0
 12 13  2  0  0  0
 12 35  1  0  0  0
 13 14  1  0  0  0
 13 36  1  0  0  0
 14 15  2  0  0  0
 14 21  1  0  0  0
 15 16  1  0  0  0
 15 37  1  0  0  0
 16 17  1  0  0  0
 17 18  2  0  0  0
 17 20  1  0  0  0
 18 19  1  0  0  0
 19 38  1  0  0  0
 20 39  1  0  0  0
 20 40  1  0  0  0
M  END
> <i_i_glide_confnum>
20

> <i_i_glide_lignum>
4702

> <i_i_glide_posenum>
242

> <i_i_glide_rotatable_bonds>
3

> <i_m_Source_File_Index>
5341

> <b_m_subgroup_collapsed>
0

> <r_i_docking_score>
-7.13762

> <r_i_glide_ecoul>
-5.46115

> <r_i_glide_eff_state_penalty>
0

> <r_i_glide_einternal>
7.11108

> <r_i_glide_emodel>
-51.0547

> <r_i_glide_energy>
-38.7556

> <r_i_glide_erotb>
0.620509

> <r_i_glide_esite>
-0.00982312

> <r_i_glide_evdw>
-33.2944

> <r_i_glide_gscore>
-7.13762

> <r_i_glide_hbond>
-0.474377

> <r_i_glide_ligand_efficiency>
-0.356881

> <r_i_glide_ligand_efficiency_ln>
-1.78631

> <r_i_glide_ligand_efficiency_sa>
-0.968725

> <r_i_glide_lipo>
-2.72903

> <r_i_glide_metal>
0

> <r_i_glide_rewards>
-2.06101

> <s_i_glide_gridfile>
wee1_glide-grid

> <s_m_Source_File>
wee1_decoys_glide_SP.sdf

> <s_m_Source_Path>
/Users/zhangxujun/Desktop

> <s_m_entry_id>
5616

> <s_m_entry_name>
wee1_decoys_glide_SP.5341

> <s_m_subgroup_title>
wee1_decoys_glide_SP

> <s_m_subgroupid>
wee1_decoys_glide_SP


$$$$
