@<TRIPOS>MOLECULE
ZINC13070191_2706
53   56    1
SMALL
USER_CHARGES


@<TRIPOS>ATOM
      1 C1          3.1116   53.4885   29.5677 C.3       1 UNK         0.0000 
      2 C2          3.6926   53.7227   28.1838 C.ar      1 UNK         0.0000 
      3 C3          2.8543   53.7118   27.0656 C.ar      1 UNK         0.0000 
      4 C4          3.3857   53.9121   25.7939 C.ar      1 UNK         0.0000 
      5 C5          4.7661   54.1046   25.6349 C.ar      1 UNK         0.0000 
      6 C6          5.5984   54.1199   26.7586 C.ar      1 UNK         0.0000 
      7 C7          5.0647   53.9236   28.0286 C.ar      1 UNK         0.0000 
      8 N8          5.3939   54.3308   24.3962 N.am      1 UNK         0.0000 
      9 C9          4.9519   54.0965   23.1375 C.2       1 UNK         0.0000 
     10 O10         3.8874   53.5293   22.8713 O.2       1 UNK         0.0000 
     11 C11         5.8437   54.6206   22.0273 C.ar      1 UNK         0.0000 
     12 C12         7.1017   55.1726   22.3007 C.ar      1 UNK         0.0000 
     13 C13         7.8870   55.6964   21.2827 C.ar      1 UNK         0.0000 
     14 C14         7.4305   55.7076   19.9685 C.ar      1 UNK         0.0000 
     15 C15         6.1856   55.1413   19.6757 C.ar      1 UNK         0.0000 
     16 C16         5.4038   54.5941   20.6938 C.ar      1 UNK         0.0000 
     17 N17         8.2390   56.3813   19.0376 N.pl3     1 UNK         0.0000 
     18 S18         8.2898   56.1239   17.2847 S.o2      1 UNK         0.0000 
     19 O19         6.9343   55.8537   16.7946 O.2       1 UNK         0.0000 
     20 O20         9.0635   57.2488   16.7506 O.2       1 UNK         0.0000 
     21 C21         9.2908   54.6638   17.0391 C.ar      1 UNK         0.0000 
     22 C22        10.6733   54.7472   17.2033 C.ar      1 UNK         0.0000 
     23 C23        11.4690   53.6339   16.9506 C.ar      1 UNK         0.0000 
     24 C24        10.9086   52.4258   16.5313 C.ar      1 UNK         0.0000 
     25 C25         9.4993   52.3348   16.3792 C.ar      1 UNK         0.0000 
     26 C26         8.7099   53.4575   16.6417 C.ar      1 UNK         0.0000 
     27 O27         8.8407   51.2196   15.9026 O.3       1 UNK         0.0000 
     28 C28         9.5132   50.3974   14.9560 C.3       1 UNK         0.0000 
     29 C29        10.4770   49.4210   15.6323 C.3       1 UNK         0.0000 
     30 C30        11.3290   50.0691   16.7275 C.3       1 UNK         0.0000 
     31 O31        11.7810   51.3663   16.3645 O.3       1 UNK         0.0000 
     32 H32         3.8555   53.0531   30.2390 H         1 UNK         0.0000 
     33 H33         2.2782   52.7836   29.5241 H         1 UNK         0.0000 
     34 H34         2.7489   54.4261   29.9923 H         1 UNK         0.0000 
     35 H35         1.7914   53.5560   27.1797 H         1 UNK         0.0000 
     36 H36         2.7145   53.9161   24.9492 H         1 UNK         0.0000 
     37 H37         6.6636   54.2726   26.6607 H         1 UNK         0.0000 
     38 H38         5.7214   53.9311   28.8857 H         1 UNK         0.0000 
     39 H39         6.3182   54.7237   24.4644 H         1 UNK         0.0000 
     40 H40         7.5028   55.2150   23.3013 H         1 UNK         0.0000 
     41 H41         8.8522   56.1090   21.5323 H         1 UNK         0.0000 
     42 H42         5.7820   55.1382   18.6781 H         1 UNK         0.0000 
     43 H43         4.4364   54.1835   20.4405 H         1 UNK         0.0000 
     44 H44         9.0070   56.9198   19.4039 H         1 UNK         0.0000 
     45 H45        11.1338   55.6729   17.5175 H         1 UNK         0.0000 
     46 H46        12.5379   53.7030   17.0826 H         1 UNK         0.0000 
     47 H47         7.6390   53.3897   16.5059 H         1 UNK         0.0000 
     48 H48        10.0233   51.0109   14.2081 H         1 UNK         0.0000 
     49 H49         8.7624   49.8397   14.3951 H         1 UNK         0.0000 
     50 H50        11.1168   48.9650   14.8755 H         1 UNK         0.0000 
     51 H51         9.9043   48.6154   16.0853 H         1 UNK         0.0000 
     52 H52        12.2051   49.4494   16.9214 H         1 UNK         0.0000 
     53 H53        10.7929   50.0959   17.6788 H         1 UNK         0.0000 
@<TRIPOS>BOND
     1    1    2 1    
     2    1   32 1    
     3    1   33 1    
     4    1   34 1    
     5    2    7 ar   
     6    2    3 ar   
     7    3    4 ar   
     8    3   35 1    
     9    4    5 ar   
    10    4   36 1    
    11    5    6 ar   
    12    5    8 1    
    13    6    7 ar   
    14    6   37 1    
    15    7   38 1    
    16    8    9 am   BACKBONE|DICT|INTERRES
    17    8   39 1    
    18    9   10 2    
    19    9   11 1    
    20   11   16 ar   
    21   11   12 ar   
    22   12   13 ar   
    23   12   40 1    
    24   13   14 ar   
    25   13   41 1    
    26   14   15 ar   
    27   14   17 1    
    28   15   16 ar   
    29   15   42 1    
    30   16   43 1    
    31   17   18 1    
    32   17   44 1    
    33   18   19 2    
    34   18   20 2    
    35   18   21 1    
    36   21   26 ar   
    37   21   22 ar   
    38   22   23 ar   
    39   22   45 1    
    40   23   24 ar   
    41   23   46 1    
    42   24   31 1    
    43   24   25 ar   
    44   25   26 ar   
    45   25   27 1    
    46   26   47 1    
    47   27   28 1    
    48   28   29 1    
    49   28   48 1    
    50   28   49 1    
    51   29   30 1    
    52   29   50 1    
    53   29   51 1    
    54   30   31 1    
    55   30   52 1    
    56   30   53 1    
@<TRIPOS>SUBSTRUCTURE
     1 UNK         1 GROUP             0       ****    0 ROOT    
