ZINC35890752_1133
                    3D
 Schrodinger Suite 2024-2.
 61 64  0  0  1  0            999 V2000
    6.3535   55.2050   19.1603 C   0  0  0  0  0  0
    6.0554   54.9387   20.6254 C   0  0  0  0  0  0
    4.8518   54.3410   20.9921 C   0  0  0  0  0  0
    4.5795   54.0966   22.3355 C   0  0  0  0  0  0
    5.4986   54.4463   23.3405 C   0  0  0  0  0  0
    6.7044   55.0455   22.9461 C   0  0  0  0  0  0
    6.9815   55.2965   21.6056 C   0  0  0  0  0  0
    5.1766   54.2115   24.7848 C   0  0  0  0  0  0
    6.1549   54.2996   25.7028 N   0  3  0  0  0  0
    5.9301   54.0820   27.0123 C   0  0  0  0  0  0
    4.6332   53.7489   27.4444 C   0  0  0  0  0  0
    3.6110   53.6983   26.4591 C   0  0  0  0  0  0
    3.9024   53.9120   25.1431 N   0  0  0  0  0  0
    2.2694   53.4094   26.7234 N   0  0  0  0  0  0
    1.5628   53.7840   27.9548 C   0  0  0  0  0  0
    0.7630   52.6353   28.5770 C   0  0  0  0  0  0
   -0.1638   52.1119   27.5602 N   0  0  0  0  0  0
    0.4350   51.7248   26.2642 C   0  0  0  0  0  0
    1.3279   52.8685   25.7255 C   0  0  0  0  0  0
   -1.3742   51.6601   27.9879 C   0  0  0  0  0  0
   -1.6931   51.6962   29.1763 O   0  0  0  0  0  0
   -2.2369   51.2836   27.0155 N   0  0  0  0  0  0
   -3.5722   50.8266   27.1281 C   0  0  0  0  0  0
   -4.0841   50.2554   28.3101 C   0  0  0  0  0  0
   -5.4042   49.8255   28.3834 C   0  0  0  0  0  0
   -6.2363   49.9462   27.2772 C   0  0  0  0  0  0
   -5.7419   50.4871   26.0915 C   0  0  0  0  0  0
   -4.4109   50.9254   25.9956 C   0  0  0  0  0  0
   -3.8969   51.4834   24.6591 C   0  0  0  0  0  0
   -3.6034   52.7774   24.7966 F   0  0  0  0  0  0
   -2.7941   50.8364   24.2758 F   0  0  0  0  0  0
   -4.7953   51.3588   23.6816 F   0  0  0  0  0  0
    4.4332   53.2754   28.8904 C   0  0  0  0  0  0
    7.1205   54.1136   27.9464 C   0  0  0  0  0  0
    5.4465   55.5031   18.6333 H   0  0  0  0  0  0
    7.0693   56.0201   19.0416 H   0  0  0  0  0  0
    6.7517   54.3074   18.6812 H   0  0  0  0  0  0
    4.1248   54.0641   20.2398 H   0  0  0  0  0  0
    3.6359   53.6361   22.5865 H   0  0  0  0  0  0
    7.4453   55.3476   23.6717 H   0  0  0  0  0  0
    7.9212   55.7564   21.3347 H   0  0  0  0  0  0
    2.2007   54.2573   28.6929 H   0  0  0  0  0  0
    0.8768   54.5848   27.6817 H   0  0  0  0  0  0
    0.2435   53.0401   29.4463 H   0  0  0  0  0  0
    1.4529   51.8546   28.8991 H   0  0  0  0  0  0
    1.0987   50.8766   26.4421 H   0  0  0  0  0  0
   -0.2906   51.4533   25.4976 H   0  0  0  0  0  0
    1.8639   52.5049   24.8469 H   0  0  0  0  0  0
    0.7093   53.6963   25.3810 H   0  0  0  0  0  0
   -1.9078   51.3676   26.0651 H   0  0  0  0  0  0
   -3.4556   50.0974   29.1757 H   0  0  0  0  0  0
   -5.7759   49.3825   29.2963 H   0  0  0  0  0  0
   -7.2615   49.6120   27.3317 H   0  0  0  0  0  0
   -6.4074   50.5554   25.2441 H   0  0  0  0  0  0
    5.3086   52.7580   29.2788 H   0  0  0  0  0  0
    4.2242   54.1128   29.5576 H   0  0  0  0  0  0
    3.6454   52.5296   28.9683 H   0  0  0  0  0  0
    6.8139   54.4838   28.9234 H   0  0  0  0  0  0
    7.5276   53.1092   28.0666 H   0  0  0  0  0  0
    7.9036   54.7843   27.6006 H   0  0  0  0  0  0
    7.0939   54.4831   25.3858 H   0  0  0  0  0  0
  1  2  1  0  0  0
  1 35  1  0  0  0
  1 36  1  0  0  0
  1 37  1  0  0  0
  2  7  2  0  0  0
  2  3  1  0  0  0
  3  4  2  0  0  0
  3 38  1  0  0  0
  4  5  1  0  0  0
  4 39  1  0  0  0
  5  6  2  0  0  0
  5  8  1  0  0  0
  6  7  1  0  0  0
  6 40  1  0  0  0
  7 41  1  0  0  0
  8 13  2  0  0  0
  8  9  1  0  0  0
  9 10  2  0  0  0
  9 61  1  0  0  0
 10 11  1  0  0  0
 10 34  1  0  0  0
 11 12  2  0  0  0
 11 33  1  0  0  0
 12 13  1  0  0  0
 12 14  1  0  0  0
 14 19  1  0  0  0
 14 15  1  0  0  0
 15 16  1  0  0  0
 15 42  1  0  0  0
 15 43  1  0  0  0
 16 17  1  0  0  0
 16 44  1  0  0  0
 16 45  1  0  0  0
 17 18  1  0  0  0
 17 20  1  0  0  0
 18 19  1  0  0  0
 18 46  1  0  0  0
 18 47  1  0  0  0
 19 48  1  0  0  0
 19 49  1  0  0  0
 20 21  2  0  0  0
 20 22  1  0  0  0
 22 23  1  0  0  0
 22 50  1  0  0  0
 23 28  2  0  0  0
 23 24  1  0  0  0
 24 25  2  0  0  0
 24 51  1  0  0  0
 25 26  1  0  0  0
 25 52  1  0  0  0
 26 27  2  0  0  0
 26 53  1  0  0  0
 27 28  1  0  0  0
 27 54  1  0  0  0
 28 29  1  0  0  0
 29 30  1  0  0  0
 29 31  1  0  0  0
 29 32  1  0  0  0
 33 55  1  0  0  0
 33 56  1  0  0  0
 33 57  1  0  0  0
 34 58  1  0  0  0
 34 59  1  0  0  0
 34 60  1  0  0  0
M  CHG  1   9   1
M  END
> <i_i_glide_confnum>
66

> <i_i_glide_lignum>
1134

> <i_i_glide_posenum>
259

> <i_i_glide_rotatable_bonds>
6

> <i_m_Source_File_Index>
2625

> <b_m_subgroup_collapsed>
0

> <r_i_docking_score>
-5.30121

> <r_i_glide_ecoul>
-0.633186

> <r_i_glide_eff_state_penalty>
0

> <r_i_glide_einternal>
1.97474

> <r_i_glide_emodel>
-52.1683

> <r_i_glide_energy>
-37.6379

> <r_i_glide_erotb>
0.456356

> <r_i_glide_esite>
-0.156367

> <r_i_glide_evdw>
-37.0047

> <r_i_glide_gscore>
-5.30121

> <r_i_glide_hbond>
0

> <r_i_glide_ligand_efficiency>
-0.155918

> <r_i_glide_ligand_efficiency_ln>
-1.17119

> <r_i_glide_ligand_efficiency_sa>
-0.505114

> <r_i_glide_lipo>
-2.71949

> <r_i_glide_metal>
0

> <r_i_glide_rewards>
-0.936496

> <s_i_glide_gridfile>
wee1_glide-grid

> <s_m_Source_File>
wee1_decoys_glide_SP.sdf

> <s_m_Source_Path>
/Users/zhangxujun/Desktop

> <s_m_entry_id>
2900

> <s_m_entry_name>
wee1_decoys_glide_SP.2625

> <s_m_subgroup_title>
wee1_decoys_glide_SP

> <s_m_subgroupid>
wee1_decoys_glide_SP


$$$$
