ZINC59021812_2888
                    3D
 Schrodinger Suite 2024-2.
 58 61  0  0  1  0            999 V2000
   -6.4864   51.7515   26.5415 C   0  0  0  0  0  0
   -5.1599   51.5243   27.2579 C   0  0  0  0  0  0
   -4.0881   51.7658   26.6030 N   0  0  0  0  0  0
   -2.8304   51.6967   27.2233 N   0  0  0  0  0  0
   -1.6926   51.4426   26.4961 C   0  0  0  0  0  0
   -1.3415   51.9302   25.3329 N   0  0  0  0  0  0
   -0.2711   51.1997   25.0310 C   0  0  0  0  0  0
    0.1258   50.3367   25.9419 N   0  0  0  0  0  0
   -0.8000   50.4967   26.8817 N   0  0  0  0  0  0
    0.4880   51.2305   23.4484 S   0  0  0  0  0  0
    0.7590   53.0132   23.2541 C   0  0  0  0  0  0
    2.2468   53.3186   23.1508 C   0  0  0  0  0  0
    2.8133   53.0984   22.0820 O   0  0  0  0  0  0
    2.8398   53.7842   24.2698 N   0  0  0  0  0  0
    4.1949   54.0976   24.5003 C   0  0  0  0  0  0
    5.1718   54.0967   23.4868 C   0  0  0  0  0  0
    6.4984   54.3878   23.7787 C   0  0  0  0  0  0
    6.8683   54.6914   25.0807 C   0  0  0  0  0  0
    5.9203   54.7177   26.0986 C   0  0  0  0  0  0
    4.5886   54.4112   25.8198 C   0  0  0  0  0  0
    3.4322   54.4967   27.1650 S   0  0  0  0  0  0
    3.0432   52.7845   27.5931 C   0  0  0  0  0  0
    2.2721   52.6995   28.8950 C   0  0  0  0  0  0
    2.9486   52.4283   30.0865 C   0  0  0  0  0  0
    2.2350   52.3139   31.2762 C   0  0  0  0  0  0
    0.8554   52.4968   31.2754 C   0  0  0  0  0  0
    0.1766   52.7631   30.0884 C   0  0  0  0  0  0
    0.8842   52.8619   28.8941 C   0  0  0  0  0  0
   -5.2774   51.0688   28.6652 C   0  0  0  0  0  0
   -6.2029   51.6740   29.5309 C   0  0  0  0  0  0
   -6.3569   51.2215   30.8382 C   0  0  0  0  0  0
   -5.5868   50.1575   31.2987 C   0  0  0  0  0  0
   -4.6589   49.5523   30.4584 C   0  0  0  0  0  0
   -4.5045   50.0023   29.1499 C   0  0  0  0  0  0
   -5.7532   49.7020   32.5606 F   0  0  0  0  0  0
   -7.1761   50.9210   26.7048 H   0  0  0  0  0  0
   -6.9621   52.6711   26.8865 H   0  0  0  0  0  0
   -6.3519   51.8665   25.4640 H   0  0  0  0  0  0
   -2.9079   51.3131   28.1557 H   0  0  0  0  0  0
    0.3067   53.2940   22.3080 H   0  0  0  0  0  0
    0.2807   53.6069   24.0326 H   0  0  0  0  0  0
    2.2544   53.8941   25.0838 H   0  0  0  0  0  0
    4.9460   53.8766   22.4577 H   0  0  0  0  0  0
    7.2444   54.3769   22.9955 H   0  0  0  0  0  0
    7.9042   54.8975   25.2819 H   0  0  0  0  0  0
    6.2224   54.9641   27.1063 H   0  0  0  0  0  0
    2.4602   52.3275   26.7921 H   0  0  0  0  0  0
    3.9724   52.2248   27.6822 H   0  0  0  0  0  0
    4.0216   52.2984   30.0921 H   0  0  0  0  0  0
    2.7473   52.0958   32.2023 H   0  0  0  0  0  0
    0.3050   52.4142   32.2021 H   0  0  0  0  0  0
   -0.8957   52.8843   30.0960 H   0  0  0  0  0  0
    0.3582   53.0647   27.9717 H   0  0  0  0  0  0
   -6.8219   52.4939   29.1955 H   0  0  0  0  0  0
   -7.0829   51.6795   31.4948 H   0  0  0  0  0  0
   -4.0648   48.7251   30.8166 H   0  0  0  0  0  0
   -3.7922   49.4892   28.5154 H   0  0  0  0  0  0
   -0.8961   49.8675   27.6774 H   0  0  0  0  0  0
  1  2  1  0  0  0
  1 36  1  0  0  0
  1 37  1  0  0  0
  1 38  1  0  0  0
  2  3  2  0  0  0
  2 29  1  0  0  0
  3  4  1  0  0  0
  4  5  1  0  0  0
  4 39  1  0  0  0
  5  9  1  0  0  0
  5  6  2  0  0  0
  6  7  1  0  0  0
  7  8  2  0  0  0
  7 10  1  0  0  0
  8  9  1  0  0  0
  9 58  1  0  0  0
 10 11  1  0  0  0
 11 12  1  0  0  0
 11 40  1  0  0  0
 11 41  1  0  0  0
 12 13  2  0  0  0
 12 14  1  0  0  0
 14 15  1  0  0  0
 14 42  1  0  0  0
 15 20  2  0  0  0
 15 16  1  0  0  0
 16 17  2  0  0  0
 16 43  1  0  0  0
 17 18  1  0  0  0
 17 44  1  0  0  0
 18 19  2  0  0  0
 18 45  1  0  0  0
 19 20  1  0  0  0
 19 46  1  0  0  0
 20 21  1  0  0  0
 21 22  1  0  0  0
 22 23  1  0  0  0
 22 47  1  0  0  0
 22 48  1  0  0  0
 23 28  2  0  0  0
 23 24  1  0  0  0
 24 25  2  0  0  0
 24 49  1  0  0  0
 25 26  1  0  0  0
 25 50  1  0  0  0
 26 27  2  0  0  0
 26 51  1  0  0  0
 27 28  1  0  0  0
 27 52  1  0  0  0
 28 53  1  0  0  0
 29 34  2  0  0  0
 29 30  1  0  0  0
 30 31  2  0  0  0
 30 54  1  0  0  0
 31 32  1  0  0  0
 31 55  1  0  0  0
 32 33  2  0  0  0
 32 35  1  0  0  0
 33 34  1  0  0  0
 33 56  1  0  0  0
 34 57  1  0  0  0
M  END
> <i_i_glide_confnum>
179

> <i_i_glide_lignum>
2889

> <i_i_glide_posenum>
181

> <i_i_glide_rotatable_bonds>
11

> <i_m_Source_File_Index>
3416

> <b_m_subgroup_collapsed>
0

> <r_i_docking_score>
-5.51509

> <r_i_glide_ecoul>
-4.20825

> <r_i_glide_eff_state_penalty>
0

> <r_i_glide_einternal>
11.275

> <r_i_glide_emodel>
-64.3894

> <r_i_glide_energy>
-51.3438

> <r_i_glide_erotb>
0.797199

> <r_i_glide_esite>
-0.236406

> <r_i_glide_evdw>
-47.1355

> <r_i_glide_gscore>
-5.51509

> <r_i_glide_hbond>
-0.16

> <r_i_glide_ligand_efficiency>
-0.157574

> <r_i_glide_ligand_efficiency_ln>
-1.21069

> <r_i_glide_ligand_efficiency_sa>
-0.515435

> <r_i_glide_lipo>
-2.55013

> <r_i_glide_metal>
0

> <r_i_glide_rewards>
-0.377744

> <s_i_glide_gridfile>
wee1_glide-grid

> <s_m_Source_File>
wee1_decoys_glide_SP.sdf

> <s_m_Source_Path>
/Users/zhangxujun/Desktop

> <s_m_entry_id>
3691

> <s_m_entry_name>
wee1_decoys_glide_SP.3416

> <s_m_subgroup_title>
wee1_decoys_glide_SP

> <s_m_subgroupid>
wee1_decoys_glide_SP


$$$$
