ZINC20368448_5069
                    3D
 Schrodinger Suite 2024-2.
 59 63  0  0  1  0            999 V2000
    6.4029   55.0972   26.3927 C   0  0  0  0  0  0
    5.0561   54.4552   26.6637 C   0  0  0  0  0  0
    4.8882   53.6636   27.8001 C   0  0  0  0  0  0
    3.6674   53.0313   28.0306 C   0  0  0  0  0  0
    2.5995   53.1748   27.1285 C   0  0  0  0  0  0
    2.7732   54.0145   26.0267 C   0  0  0  0  0  0
    3.9923   54.6410   25.7822 C   0  0  0  0  0  0
    1.2975   52.4378   27.3365 C   0  0  0  0  0  0
    0.2095   52.1860   26.4368 C   0  0  0  0  0  0
   -0.6551   51.4399   27.2151 C   0  0  0  0  0  0
   -0.1189   51.2969   28.4482 N   0  0  0  0  0  0
   -0.5349   50.7701   29.2044 H   0  0  0  0  0  0
    1.0711   51.8858   28.5241 N   0  0  0  0  0  0
   -1.8680   50.8994   26.8879 O   0  0  0  0  0  0
   -2.2344   51.1148   25.5985 C   0  0  0  0  0  0
   -1.5342   51.8085   24.6669 C   0  0  0  0  0  0
   -0.1838   52.4881   24.9704 C   0  0  2  0  0  0
   -0.3995   53.5493   24.8803 H   0  0  0  0  0  0
    0.8612   52.2243   23.8869 C   0  0  0  0  0  0
    1.3116   53.2898   23.1053 C   0  0  0  0  0  0
    2.2328   53.0834   22.0918 C   0  0  0  0  0  0
    2.7037   51.7969   21.8007 C   0  0  0  0  0  0
    2.2224   50.7159   22.5540 C   0  0  0  0  0  0
    1.3229   50.9329   23.6049 C   0  0  0  0  0  0
    2.6792   49.4417   22.3246 O   0  0  0  0  0  0
    2.1991   48.8381   21.1305 C   0  0  0  0  0  0
    3.6627   51.5336   20.8382 O   0  0  0  0  0  0
    4.2150   52.5897   20.0447 C   0  0  0  0  0  0
    5.0926   53.5552   20.8463 C   0  0  0  0  0  0
    5.5042   53.2386   22.1449 C   0  0  0  0  0  0
    6.3040   54.1090   22.8808 C   0  0  0  0  0  0
    6.7282   55.3047   22.3028 C   0  0  0  0  0  0
    6.3222   55.6360   21.0080 C   0  0  0  0  0  0
    5.5051   54.7675   20.2833 C   0  0  0  0  0  0
    5.1198   55.1058   19.0318 F   0  0  0  0  0  0
   -2.0625   51.9507   23.3493 C   0  0  0  0  0  0
   -2.4767   52.0879   22.2787 N   0  0  0  0  0  0
   -3.4284   50.4754   25.4116 N   0  0  0  0  0  0
    7.1553   54.3159   26.2821 H   0  0  0  0  0  0
    6.7053   55.7139   27.2421 H   0  0  0  0  0  0
    6.3995   55.7057   25.4865 H   0  0  0  0  0  0
    5.7062   53.5171   28.4915 H   0  0  0  0  0  0
    3.5742   52.3984   28.8993 H   0  0  0  0  0  0
    1.9546   54.1985   25.3571 H   0  0  0  0  0  0
    4.1038   55.2722   24.9124 H   0  0  0  0  0  0
    0.9642   54.2961   23.2870 H   0  0  0  0  0  0
    2.5816   53.9448   21.5472 H   0  0  0  0  0  0
    0.9759   50.0939   24.1900 H   0  0  0  0  0  0
    2.6922   47.8751   20.9965 H   0  0  0  0  0  0
    1.1242   48.6659   21.1852 H   0  0  0  0  0  0
    2.4076   49.4328   20.2385 H   0  0  0  0  0  0
    4.8314   52.1156   19.2831 H   0  0  0  0  0  0
    3.4203   53.1260   19.5219 H   0  0  0  0  0  0
    5.2385   52.2846   22.5583 H   0  0  0  0  0  0
    6.6249   53.8366   23.8752 H   0  0  0  0  0  0
    7.3741   55.9699   22.8573 H   0  0  0  0  0  0
    6.6418   56.5616   20.5560 H   0  0  0  0  0  0
   -3.9099   50.5288   24.5262 H   0  0  0  0  0  0
   -3.6872   49.7283   26.0393 H   0  0  0  0  0  0
  1  2  1  0  0  0
  1 39  1  0  0  0
  1 40  1  0  0  0
  1 41  1  0  0  0
  2  7  2  0  0  0
  2  3  1  0  0  0
  3  4  2  0  0  0
  3 42  1  0  0  0
  4  5  1  0  0  0
  4 43  1  0  0  0
  5  6  2  0  0  0
  5  8  1  0  0  0
  6  7  1  0  0  0
  6 44  1  0  0  0
  7 45  1  0  0  0
  8 13  2  0  0  0
  8  9  1  0  0  0
  9 17  1  0  0  0
  9 10  2  0  0  0
 10 11  1  0  0  0
 10 14  1  0  0  0
 11 12  1  0  0  0
 11 13  1  0  0  0
 14 15  1  0  0  0
 15 16  2  0  0  0
 15 38  1  0  0  0
 16 17  1  0  0  0
 16 36  1  0  0  0
 17 18  1  0  0  0
 17 19  1  0  0  0
 19 24  2  0  0  0
 19 20  1  0  0  0
 20 21  2  0  0  0
 20 46  1  0  0  0
 21 22  1  0  0  0
 21 47  1  0  0  0
 22 23  2  0  0  0
 22 27  1  0  0  0
 23 24  1  0  0  0
 23 25  1  0  0  0
 24 48  1  0  0  0
 25 26  1  0  0  0
 26 49  1  0  0  0
 26 50  1  0  0  0
 26 51  1  0  0  0
 27 28  1  0  0  0
 28 29  1  0  0  0
 28 52  1  0  0  0
 28 53  1  0  0  0
 29 34  2  0  0  0
 29 30  1  0  0  0
 30 31  2  0  0  0
 30 54  1  0  0  0
 31 32  1  0  0  0
 31 55  1  0  0  0
 32 33  2  0  0  0
 32 56  1  0  0  0
 33 34  1  0  0  0
 33 57  1  0  0  0
 34 35  1  0  0  0
 36 37  3  0  0  0
 38 58  1  0  0  0
 38 59  1  0  0  0
M  END
> <i_i_glide_confnum>
50

> <i_i_glide_lignum>
5070

> <i_i_glide_posenum>
36

> <i_i_glide_rotatable_bonds>
7

> <i_m_Source_File_Index>
5914

> <b_m_subgroup_collapsed>
0

> <r_i_docking_score>
-5.84281

> <r_i_glide_ecoul>
-1.33439

> <r_i_glide_eff_state_penalty>
0

> <r_i_glide_einternal>
8.687

> <r_i_glide_emodel>
-56.499

> <r_i_glide_energy>
-44.6681

> <r_i_glide_erotb>
0.435847

> <r_i_glide_esite>
-0.0694231

> <r_i_glide_evdw>
-43.3338

> <r_i_glide_gscore>
-5.84281

> <r_i_glide_hbond>
0

> <r_i_glide_ligand_efficiency>
-0.1623

> <r_i_glide_ligand_efficiency_ln>
-1.27474

> <r_i_glide_ligand_efficiency_sa>
-0.535903

> <r_i_glide_lipo>
-3.53785

> <r_i_glide_metal>
0

> <r_i_glide_rewards>
-0.304536

> <s_i_glide_gridfile>
wee1_glide-grid

> <s_m_Source_File>
wee1_decoys_glide_SP.sdf

> <s_m_Source_Path>
/Users/zhangxujun/Desktop

> <s_m_entry_id>
6189

> <s_m_entry_name>
wee1_decoys_glide_SP.5914

> <s_m_subgroup_title>
wee1_decoys_glide_SP

> <s_m_subgroupid>
wee1_decoys_glide_SP


$$$$
