@<TRIPOS>MOLECULE
ZINC43743110_1903
57   59    1
SMALL
USER_CHARGES


@<TRIPOS>ATOM
      1 C1          1.8674   51.8828   30.7244 C.3       1 UNK         0.0000 
      2 C2          1.0548   52.9299   29.9487 C.3       1 UNK         0.0000 
      3 H3          1.1682   53.8160   30.5774 H         1 UNK         0.0000 
      4 C4         -0.4652   52.6152   29.9434 C.3       1 UNK         0.0000 
      5 C5         -1.1017   51.9128   28.7108 C.3       1 UNK         0.0000 
      6 C6         -0.5127   52.3161   27.3232 C.3       1 UNK         0.0000 
      7 H7         -0.7572   53.3699   27.2817 H         1 UNK         0.0000 
      8 C8          1.0634   52.3174   27.3644 C.3       1 UNK         0.0000 
      9 C9          1.5495   53.3108   28.5108 C.3       1 UNK         0.0000 
     10 C10         1.2561   54.8070   28.3095 C.3       1 UNK         0.0000 
     11 C11         2.4827   55.4960   28.8561 C.3       1 UNK         0.0000 
     12 C12         3.6276   54.5499   28.4698 C.3       1 UNK         0.0000 
     13 O13         2.9904   53.2687   28.5062 O.3       1 UNK         0.0000 
     14 C14         4.7159   54.4959   29.5507 C.3       1 UNK         0.0000 
     15 C15         4.2107   54.7674   27.0432 C.3       1 UNK         0.0000 
     16 O16         5.1150   53.7404   26.6695 O.3       1 UNK         0.0000 
     17 C17         1.6204   52.7236   25.9579 C.3       1 UNK         0.0000 
     18 C18         1.0583   51.9310   24.7619 C.3       1 UNK         0.0000 
     19 C19        -0.4775   52.0343   24.6949 C.3       1 UNK         0.0000 
     20 H20        -0.8187   51.3677   23.9006 H         1 UNK         0.0000 
     21 C21        -1.2056   51.6319   26.0426 C.3       1 UNK         0.0000 
     22 C22        -2.6698   52.1690   25.9705 C.3       1 UNK         0.0000 
     23 C23        -1.1078   50.0567   26.0666 C.3       1 UNK         0.0000 
     24 O24        -2.3389   49.3669   26.0815 O.3       1 UNK         0.0000 
     25 O25        -0.8163   53.2968   24.1557 O.3       1 UNK         0.0000 
     26 C26         1.5689   50.8971   27.6809 C.3       1 UNK         0.0000 
     27 H27         1.9028   50.9485   30.1845 H         1 UNK         0.0000 
     28 H28         2.8970   52.2072   30.8714 H         1 UNK         0.0000 
     29 H29         1.4439   51.6992   31.7133 H         1 UNK         0.0000 
     30 H30        -0.8968   53.6096   29.9682 H         1 UNK         0.0000 
     31 H31        -0.7994   52.1731   30.8818 H         1 UNK         0.0000 
     32 H32        -2.1718   52.0961   28.7269 H         1 UNK         0.0000 
     33 H33        -1.0557   50.8394   28.8551 H         1 UNK         0.0000 
     34 H34         0.3466   55.1224   28.8099 H         1 UNK         0.0000 
     35 H35         1.1051   55.0728   27.2818 H         1 UNK         0.0000 
     36 H36         2.4114   55.6016   29.9397 H         1 UNK         0.0000 
     37 H37         2.5851   56.5056   28.4821 H         1 UNK         0.0000 
     38 H38         5.2105   55.4573   29.6808 H         1 UNK         0.0000 
     39 H39         4.3052   54.1911   30.5115 H         1 UNK         0.0000 
     40 H40         5.4832   53.7689   29.2806 H         1 UNK         0.0000 
     41 H41         4.7712   55.6949   26.9846 H         1 UNK         0.0000 
     42 H42         3.4214   54.8423   26.2966 H         1 UNK         0.0000 
     43 H43         4.6810   52.8894   26.7870 H         1 UNK         0.0000 
     44 H44         1.4227   53.7675   25.7336 H         1 UNK         0.0000 
     45 H45         2.7052   52.6364   25.9550 H         1 UNK         0.0000 
     46 H46         1.3447   50.8910   24.8815 H         1 UNK         0.0000 
     47 H47         1.5217   52.2785   23.8359 H         1 UNK         0.0000 
     48 H48        -3.1555   51.8568   25.0457 H         1 UNK         0.0000 
     49 H49        -3.2830   51.7916   26.7882 H         1 UNK         0.0000 
     50 H50        -2.7140   53.2589   26.0066 H         1 UNK         0.0000 
     51 H51        -0.5508   49.6347   25.2303 H         1 UNK         0.0000 
     52 H52        -0.5667   49.6983   26.9289 H         1 UNK         0.0000 
     53 H53        -2.3483   48.8974   26.9369 H         1 UNK         0.0000 
     54 H54        -0.2632   53.4471   23.3859 H         1 UNK         0.0000 
     55 H55         1.5039   50.1720   26.8809 H         1 UNK         0.0000 
     56 H56         2.5913   50.8964   28.0510 H         1 UNK         0.0000 
     57 H57         0.9627   50.4973   28.4671 H         1 UNK         0.0000 
@<TRIPOS>BOND
     1    1    2 1    
     2    1   27 1    
     3    1   28 1    
     4    1   29 1    
     5    2    3 1    
     6    2    9 1    
     7    2    4 1    
     8    4    5 1    
     9    4   30 1    
    10    4   31 1    
    11    5    6 1    
    12    5   32 1    
    13    5   33 1    
    14    6    7 1    
    15    6   21 1    
    16    6    8 1    
    17    8    9 1    
    18    8   17 1    
    19    8   26 1    
    20    9   13 1    
    21    9   10 1    
    22   10   11 1    
    23   10   34 1    
    24   10   35 1    
    25   11   12 1    
    26   11   36 1    
    27   11   37 1    
    28   12   13 1    
    29   12   14 1    
    30   12   15 1    
    31   14   38 1    
    32   14   39 1    
    33   14   40 1    
    34   15   16 1    
    35   15   41 1    
    36   15   42 1    
    37   16   43 1    
    38   17   18 1    
    39   17   44 1    
    40   17   45 1    
    41   18   19 1    
    42   18   46 1    
    43   18   47 1    
    44   19   20 1    
    45   19   21 1    
    46   19   25 1    
    47   21   22 1    
    48   21   23 1    
    49   22   48 1    
    50   22   49 1    
    51   22   50 1    
    52   23   24 1    
    53   23   51 1    
    54   23   52 1    
    55   24   53 1    
    56   25   54 1    
    57   26   55 1    
    58   26   56 1    
    59   26   57 1    
@<TRIPOS>SUBSTRUCTURE
     1 UNK         1 GROUP             0       ****    0 ROOT    
