@<TRIPOS>MOLECULE
ZINC06146437_3975
60   63    1
SMALL
USER_CHARGES


@<TRIPOS>ATOM
      1 C1          2.4086   59.6240   15.4069 C.3       1 UNK         0.0000 
      2 O2          2.2181   58.2257   15.5630 O.3       1 UNK         0.0000 
      3 C3          3.0762   57.5207   16.3867 C.ar      1 UNK         0.0000 
      4 C4          4.2904   58.0359   16.8772 C.ar      1 UNK         0.0000 
      5 C5          5.1005   57.2702   17.7141 C.ar      1 UNK         0.0000 
      6 C6          4.7019   55.9862   18.0956 C.ar      1 UNK         0.0000 
      7 C7          3.5036   55.4740   17.5978 C.ar      1 UNK         0.0000 
      8 C8          2.6830   56.2238   16.7434 C.ar      1 UNK         0.0000 
      9 O9          1.4758   55.7614   16.2447 O.3       1 UNK         0.0000 
     10 C10         1.0151   54.4625   16.6031 C.3       1 UNK         0.0000 
     11 S11         5.7381   55.0007   19.1971 S.o2      1 UNK         0.0000 
     12 O12         6.6260   55.9418   19.8899 O.2       1 UNK         0.0000 
     13 O13         6.3045   53.8990   18.4132 O.2       1 UNK         0.0000 
     14 N14         4.7047   54.3079   20.4797 N.pl3     1 UNK         0.0000 
     15 C15         3.7882   53.2359   20.3923 C.ar      1 UNK         0.0000 
     16 C16         3.6654   52.4968   19.2078 C.ar      1 UNK         0.0000 
     17 C17         2.7044   51.5019   19.0596 C.ar      1 UNK         0.0000 
     18 C18         1.8600   51.1985   20.1137 C.ar      1 UNK         0.0000 
     19 C19         1.9934   51.8787   21.3171 C.ar      1 UNK         0.0000 
     20 C20         2.9601   52.8942   21.5005 C.ar      1 UNK         0.0000 
     21 C21         3.1030   53.5550   22.8727 C.2       1 UNK         0.0000 
     22 O22         3.8731   54.4964   23.0587 O.2       1 UNK         0.0000 
     23 N23         2.3351   53.0241   23.8489 N.am      1 UNK         0.0000 
     24 C24         2.3125   53.2971   25.2130 C.2       1 UNK         0.0000 
     25 C25         1.3944   52.7651   26.1164 C.2       1 UNK         0.0000 
     26 C26         1.6338   53.1591   27.4521 C.2       1 UNK         0.0000 
     27 C27         2.7291   54.0291   27.5641 C.2       1 UNK         0.0000 
     28 S28         3.5044   54.2628   26.0262 S.3       1 UNK         0.0000 
     29 C29         3.1831   54.7291   28.8236 C.3       1 UNK         0.0000 
     30 C30         2.0870   55.6517   29.3924 C.3       1 UNK         0.0000 
     31 C31         0.9522   54.9149   30.1395 C.3       1 UNK         0.0000 
     32 C32         0.0740   53.9440   29.3201 C.3       1 UNK         0.0000 
     33 C33         0.8097   52.7588   28.6692 C.3       1 UNK         0.0000 
     34 C34         0.2903   51.8985   25.7096 C.1       1 UNK         0.0000 
     35 N35        -0.5830   51.2157   25.3797 N.1       1 UNK         0.0000 
     36 H36         1.6040   60.0355   14.7979 H         1 UNK         0.0000 
     37 H37         2.3664   60.1058   16.3825 H         1 UNK         0.0000 
     38 H38         3.3530   59.8631   14.9155 H         1 UNK         0.0000 
     39 H39         4.6202   59.0335   16.6233 H         1 UNK         0.0000 
     40 H40         6.0273   57.6879   18.0800 H         1 UNK         0.0000 
     41 H41         3.1890   54.4930   17.8868 H         1 UNK         0.0000 
     42 H42         0.0531   54.2769   16.1233 H         1 UNK         0.0000 
     43 H43         1.7060   53.6854   16.2698 H         1 UNK         0.0000 
     44 H44         0.8658   54.3732   17.6810 H         1 UNK         0.0000 
     45 H45         4.6672   54.8273   21.3468 H         1 UNK         0.0000 
     46 H46         4.3102   52.6622   18.3617 H         1 UNK         0.0000 
     47 H47         2.6461   50.9494   18.1315 H         1 UNK         0.0000 
     48 H48         1.1210   50.4177   20.0060 H         1 UNK         0.0000 
     49 H49         1.3190   51.5725   22.1032 H         1 UNK         0.0000 
     50 H50         1.6378   52.3656   23.5418 H         1 UNK         0.0000 
     51 H51         4.0950   55.2967   28.6402 H         1 UNK         0.0000 
     52 H52         3.4441   53.9964   29.5879 H         1 UNK         0.0000 
     53 H53         1.6678   56.2684   28.5962 H         1 UNK         0.0000 
     54 H54         2.5459   56.3592   30.0815 H         1 UNK         0.0000 
     55 H55         0.3059   55.6623   30.6014 H         1 UNK         0.0000 
     56 H56         1.3795   54.3558   30.9698 H         1 UNK         0.0000 
     57 H57        -0.4821   54.4818   28.5503 H         1 UNK         0.0000 
     58 H58        -0.6816   53.5384   29.9950 H         1 UNK         0.0000 
     59 H59         1.4514   52.2860   29.4134 H         1 UNK         0.0000 
     60 H60         0.0783   51.9886   28.4221 H         1 UNK         0.0000 
@<TRIPOS>BOND
     1    1    2 1    
     2    1   36 1    
     3    1   37 1    
     4    1   38 1    
     5    2    3 1    
     6    3    8 ar   
     7    3    4 ar   
     8    4    5 ar   
     9    4   39 1    
    10    5    6 ar   
    11    5   40 1    
    12    6    7 ar   
    13    6   11 1    
    14    7    8 ar   
    15    7   41 1    
    16    8    9 1    
    17    9   10 1    
    18   10   42 1    
    19   10   43 1    
    20   10   44 1    
    21   11   12 2    
    22   11   13 2    
    23   11   14 1    
    24   14   15 1    
    25   14   45 1    
    26   15   20 ar   
    27   15   16 ar   
    28   16   17 ar   
    29   16   46 1    
    30   17   18 ar   
    31   17   47 1    
    32   18   19 ar   
    33   18   48 1    
    34   19   20 ar   
    35   19   49 1    
    36   20   21 1    
    37   21   22 2    
    38   21   23 am   BACKBONE|DICT|INTERRES
    39   23   24 am   BACKBONE|DICT|INTERRES
    40   23   50 1    
    41   24   28 1    
    42   24   25 2    
    43   25   26 1    
    44   25   34 1    
    45   26   33 1    
    46   26   27 2    
    47   27   28 1    
    48   27   29 1    
    49   29   30 1    
    50   29   51 1    
    51   29   52 1    
    52   30   31 1    
    53   30   53 1    
    54   30   54 1    
    55   31   32 1    
    56   31   55 1    
    57   31   56 1    
    58   32   33 1    
    59   32   57 1    
    60   32   58 1    
    61   33   59 1    
    62   33   60 1    
    63   34   35 3    
@<TRIPOS>SUBSTRUCTURE
     1 UNK         1 GROUP             0       ****    0 ROOT    
