@<TRIPOS>MOLECULE
ZINC20792348_2758
44   46    1
SMALL
USER_CHARGES


@<TRIPOS>ATOM
      1 C1          0.3443   51.8351   20.0890 C.ar      1 UNK         0.0000 
      2 C2         -0.0469   52.0969   21.4036 C.ar      1 UNK         0.0000 
      3 C3          0.8845   52.0913   22.4534 C.ar      1 UNK         0.0000 
      4 C4          2.2202   51.8017   22.1303 C.ar      1 UNK         0.0000 
      5 C5          2.6223   51.5668   20.8202 C.ar      1 UNK         0.0000 
      6 C6          1.6823   51.5777   19.7941 C.ar      1 UNK         0.0000 
      7 Cl7         4.2920   51.2926   20.4843 Cl        1 UNK         0.0000 
      8 C8          0.4342   52.3777   23.9170 C.3       1 UNK         0.0000 
      9 H9         -0.1514   53.2986   23.8435 H         1 UNK         0.0000 
     10 C10         1.6190   52.7305   24.8801 C.3       1 UNK         0.0000 
     11 H11         2.3046   51.8896   24.8690 H         1 UNK         0.0000 
     12 C12         2.3892   54.0166   24.4637 C.3       1 UNK         0.0000 
     13 N13         3.5053   54.1953   25.4164 N.am      1 UNK         0.0000 
     14 C14         3.2163   54.3390   26.8549 C.3       1 UNK         0.0000 
     15 C15         1.9442   53.5693   27.2010 C.2       1 UNK         0.0000 
     16 C16         1.1929   52.8288   26.3486 C.2       1 UNK         0.0000 
     17 C17         0.0516   52.0500   26.8281 C.2       1 UNK         0.0000 
     18 C18        -0.7244   51.3148   26.0019 C.2       1 UNK         0.0000 
     19 C19        -0.5372   51.2674   24.4741 C.3       1 UNK         0.0000 
     20 C20        -0.0606   49.9171   24.1135 C.1       1 UNK         0.0000 
     21 N21         0.3044   48.8607   23.8252 N.1       1 UNK         0.0000 
     22 C22        -1.8641   51.4455   23.8470 C.1       1 UNK         0.0000 
     23 N23        -2.9031   51.5884   23.3569 N.1       1 UNK         0.0000 
     24 N24        -1.7287   50.4967   26.4814 N.pl3     1 UNK         0.0000 
     25 C25        -0.2408   52.0457   28.2338 C.1       1 UNK         0.0000 
     26 N26        -0.4698   52.0964   29.3666 N.1       1 UNK         0.0000 
     27 C27         4.8336   54.4117   25.0011 C.2       1 UNK         0.0000 
     28 O28         5.7838   54.6532   25.7497 O.2       1 UNK         0.0000 
     29 O29         4.9652   54.3103   23.6527 O.3       1 UNK         0.0000 
     30 C30         6.2069   54.5129   22.9906 C.3       1 UNK         0.0000 
     31 F31         5.9699   54.4960   21.6805 F         1 UNK         0.0000 
     32 F32         7.0749   53.5501   23.2848 F         1 UNK         0.0000 
     33 F33         6.7384   55.6955   23.2968 F         1 UNK         0.0000 
     34 H34        -0.3842   51.8513   19.2939 H         1 UNK         0.0000 
     35 H35        -1.0820   52.3259   21.5903 H         1 UNK         0.0000 
     36 H36         2.9943   51.7723   22.8751 H         1 UNK         0.0000 
     37 H37         1.9908   51.3903   18.7746 H         1 UNK         0.0000 
     38 H38         1.7483   54.8966   24.4814 H         1 UNK         0.0000 
     39 H39         2.7239   53.9397   23.4316 H         1 UNK         0.0000 
     40 H40         4.0366   53.9583   27.4659 H         1 UNK         0.0000 
     41 H41         3.1041   55.3880   27.1208 H         1 UNK         0.0000 
     42 H42         1.6530   53.6105   28.2408 H         1 UNK         0.0000 
     43 H43        -2.2885   49.9310   25.8581 H         1 UNK         0.0000 
     44 H44        -1.7269   50.1971   27.4509 H         1 UNK         0.0000 
@<TRIPOS>BOND
     1    1    6 ar   
     2    1    2 ar   
     3    1   34 1    
     4    2    3 ar   
     5    2   35 1    
     6    3    4 ar   
     7    3    8 1    
     8    4    5 ar   
     9    4   36 1    
    10    5    6 ar   
    11    5    7 1    
    12    6   37 1    
    13    8    9 1    
    14    8   19 1    
    15    8   10 1    
    16   10   11 1    
    17   10   16 1    
    18   10   12 1    
    19   12   13 1    
    20   12   38 1    
    21   12   39 1    
    22   13   14 1    
    23   13   27 am   BACKBONE|DICT|INTERRES
    24   14   15 1    
    25   14   40 1    
    26   14   41 1    
    27   15   16 2    
    28   15   42 1    
    29   16   17 1    
    30   17   18 2    
    31   17   25 1    
    32   18   19 1    
    33   18   24 1    
    34   19   20 1    
    35   19   22 1    
    36   20   21 3    
    37   22   23 3    
    38   24   43 1    
    39   24   44 1    
    40   25   26 3    
    41   27   28 2    
    42   27   29 1    
    43   29   30 1    
    44   30   31 1    
    45   30   32 1    
    46   30   33 1    
@<TRIPOS>SUBSTRUCTURE
     1 UNK         1 GROUP             0       ****    0 ROOT    
