ZINC37040277_3579
                    3D
 Schrodinger Suite 2024-2.
 33 34  0  0  1  0            999 V2000
    0.3593   53.4517   31.6415 C   0  0  0  0  0  0
    0.4488   52.9867   30.1919 C   0  0  0  0  0  0
    1.3809   53.5991   29.3485 C   0  0  0  0  0  0
    1.5343   53.1989   28.0123 C   0  0  0  0  0  0
    0.7026   52.1762   27.5250 C   0  0  0  0  0  0
   -0.2382   51.5712   28.3531 C   0  0  0  0  0  0
   -0.3671   51.9638   29.6826 C   0  0  0  0  0  0
   -1.2956   51.2967   30.4817 N   0  0  0  0  0  0
    2.5733   53.8757   27.1431 C   0  0  0  0  0  0
    3.1363   54.8967   27.5349 O   0  0  0  0  0  0
    2.8182   53.2983   25.9500 N   0  0  0  0  0  0
    3.6503   53.7695   24.9228 C   0  0  0  0  0  0
    3.0916   53.7570   23.6420 C   0  0  0  0  0  0
    3.8532   54.1033   22.5287 C   0  0  0  0  0  0
    5.1960   54.4795   22.6704 C   0  0  0  0  0  0
    5.7627   54.4680   23.9536 C   0  0  0  0  0  0
    5.0158   54.0967   25.0743 C   0  0  0  0  0  0
    5.9595   53.9464   26.7298 Br  0  0  0  0  0  0
    5.9928   54.8967   21.4927 N   0  3  0  0  0  0
    7.1045   55.3825   21.6817 O   0  0  0  0  0  0
    5.5044   54.7572   20.3759 O   0  5  0  0  0  0
    0.7044   54.4797   31.7537 H   0  0  0  0  0  0
   -0.6655   53.4405   32.0032 H   0  0  0  0  0  0
    0.9469   52.8015   32.2904 H   0  0  0  0  0  0
    2.0034   54.3884   29.7470 H   0  0  0  0  0  0
    0.7619   51.8268   26.5052 H   0  0  0  0  0  0
   -0.8596   50.7773   27.9610 H   0  0  0  0  0  0
   -1.3045   51.4918   31.4900 H   0  0  0  0  0  0
   -1.6537   50.3898   30.1833 H   0  0  0  0  0  0
    2.1985   52.5494   25.6906 H   0  0  0  0  0  0
    2.0586   53.4749   23.4956 H   0  0  0  0  0  0
    3.3830   54.0967   21.5539 H   0  0  0  0  0  0
    6.8062   54.7214   24.0846 H   0  0  0  0  0  0
  1  2  1  0  0  0
  1 22  1  0  0  0
  1 23  1  0  0  0
  1 24  1  0  0  0
  2  7  2  0  0  0
  2  3  1  0  0  0
  3  4  2  0  0  0
  3 25  1  0  0  0
  4  5  1  0  0  0
  4  9  1  0  0  0
  5  6  2  0  0  0
  5 26  1  0  0  0
  6  7  1  0  0  0
  6 27  1  0  0  0
  7  8  1  0  0  0
  8 28  1  0  0  0
  8 29  1  0  0  0
  9 10  2  0  0  0
  9 11  1  0  0  0
 11 12  1  0  0  0
 11 30  1  0  0  0
 12 17  2  0  0  0
 12 13  1  0  0  0
 13 14  2  0  0  0
 13 31  1  0  0  0
 14 15  1  0  0  0
 14 32  1  0  0  0
 15 16  2  0  0  0
 15 19  1  0  0  0
 16 17  1  0  0  0
 16 33  1  0  0  0
 17 18  1  0  0  0
 19 20  2  0  0  0
 19 21  1  0  0  0
M  CHG  2  19   1  21  -1
M  END
> <i_i_glide_confnum>
8

> <i_i_glide_lignum>
3580

> <i_i_glide_posenum>
60

> <i_i_glide_rotatable_bonds>
4

> <i_m_Source_File_Index>
2715

> <b_m_subgroup_collapsed>
0

> <r_i_docking_score>
-6.21073

> <r_i_glide_ecoul>
-7.30889

> <r_i_glide_eff_state_penalty>
0

> <r_i_glide_einternal>
4.48758

> <r_i_glide_emodel>
-47.8535

> <r_i_glide_energy>
-35.4276

> <r_i_glide_erotb>
0.46627

> <r_i_glide_esite>
-0.1

> <r_i_glide_evdw>
-28.1187

> <r_i_glide_gscore>
-6.21073

> <r_i_glide_hbond>
-0.28713

> <r_i_glide_ligand_efficiency>
-0.295749

> <r_i_glide_ligand_efficiency_ln>
-1.53559

> <r_i_glide_ligand_efficiency_sa>
-0.815949

> <r_i_glide_lipo>
-2.14096

> <r_i_glide_metal>
0

> <r_i_glide_rewards>
-1.64664

> <s_i_glide_gridfile>
wee1_glide-grid

> <s_m_Source_File>
wee1_decoys_glide_SP.sdf

> <s_m_Source_Path>
/Users/zhangxujun/Desktop

> <s_m_entry_id>
2990

> <s_m_entry_name>
wee1_decoys_glide_SP.2715

> <s_m_subgroup_title>
wee1_decoys_glide_SP

> <s_m_subgroupid>
wee1_decoys_glide_SP


$$$$
