ZINC41307973_5861
                    3D
 Schrodinger Suite 2024-2.
 49 52  0  0  1  0            999 V2000
    0.2930   50.5095   19.6174 C   0  0  0  0  0  0
    1.7483   50.0204   19.6317 C   0  0  0  0  0  0
    2.7036   51.0568   19.2525 N   0  0  0  0  0  0
    3.0956   52.0826   20.0282 C   0  0  0  0  0  0
    2.7054   52.2201   21.1919 O   0  0  0  0  0  0
    4.0523   53.0135   19.4223 C   0  0  0  0  0  0
    4.1879   53.2966   18.0278 C   0  0  0  0  0  0
    5.1873   54.2505   17.7685 C   0  0  0  0  0  0
    5.9305   54.8396   19.2076 S   0  0  0  0  0  0
    4.9108   53.8281   20.1895 C   0  0  0  0  0  0
    4.9585   53.8499   21.5784 N   0  0  0  0  0  0
    5.8007   54.4965   22.4083 C   0  0  0  0  0  0
    6.7820   55.1668   22.0835 O   0  0  0  0  0  0
    5.4273   54.3179   23.7856 C   0  0  0  0  0  0
    4.1708   54.1038   24.3619 C   0  0  0  0  0  0
    4.3615   54.1497   25.7729 C   0  0  0  0  0  0
    3.5446   54.0298   26.9072 C   0  0  0  0  0  0
    4.1290   54.1604   28.1717 C   0  0  0  0  0  0
    5.5024   54.3862   28.3042 C   0  0  0  0  0  0
    6.3442   54.4955   27.2001 C   0  0  0  0  0  0
    5.7443   54.3893   25.9450 C   0  0  0  0  0  0
    6.3801   54.5167   24.7448 O   0  0  0  0  0  0
    3.2655   54.0401   29.4130 C   0  0  0  0  0  0
    5.5516   54.8090   16.3992 C   0  0  0  0  0  0
    4.9515   53.9088   15.3019 C   0  0  0  0  0  0
    3.4844   53.5628   15.5975 C   0  0  0  0  0  0
    3.3404   52.7199   16.8830 C   0  0  0  0  0  0
   -0.3886   49.6992   19.8755 H   0  0  0  0  0  0
    0.1375   51.3100   20.3417 H   0  0  0  0  0  0
    0.0089   50.8785   18.6312 H   0  0  0  0  0  0
    1.8588   49.1964   18.9251 H   0  0  0  0  0  0
    2.0048   49.6123   20.6122 H   0  0  0  0  0  0
    3.2943   50.8430   18.4548 H   0  0  0  0  0  0
    4.2491   53.2722   22.0114 H   0  0  0  0  0  0
    3.2409   53.9607   23.8302 H   0  0  0  0  0  0
    2.4854   53.8470   26.8023 H   0  0  0  0  0  0
    5.9340   54.4966   29.2814 H   0  0  0  0  0  0
    7.4039   54.6578   27.3137 H   0  0  0  0  0  0
    2.4337   53.3537   29.2450 H   0  0  0  0  0  0
    3.8392   53.6380   30.2491 H   0  0  0  0  0  0
    2.8644   55.0153   29.6904 H   0  0  0  0  0  0
    6.6317   54.8822   16.2731 H   0  0  0  0  0  0
    5.1499   55.8175   16.2965 H   0  0  0  0  0  0
    5.5326   52.9885   15.2185 H   0  0  0  0  0  0
    5.0331   54.4056   14.3342 H   0  0  0  0  0  0
    3.0519   53.0202   14.7554 H   0  0  0  0  0  0
    2.9042   54.4824   15.6921 H   0  0  0  0  0  0
    2.2862   52.6661   17.1557 H   0  0  0  0  0  0
    3.6571   51.6969   16.6766 H   0  0  0  0  0  0
  1  2  1  0  0  0
  1 28  1  0  0  0
  1 29  1  0  0  0
  1 30  1  0  0  0
  2  3  1  0  0  0
  2 31  1  0  0  0
  2 32  1  0  0  0
  3  4  1  0  0  0
  3 33  1  0  0  0
  4  5  2  0  0  0
  4  6  1  0  0  0
  6 10  2  0  0  0
  6  7  1  0  0  0
  7 27  1  0  0  0
  7  8  2  0  0  0
  8  9  1  0  0  0
  8 24  1  0  0  0
  9 10  1  0  0  0
 10 11  1  0  0  0
 11 12  1  0  0  0
 11 34  1  0  0  0
 12 13  2  0  0  0
 12 14  1  0  0  0
 14 22  1  0  0  0
 14 15  2  0  0  0
 15 16  1  0  0  0
 15 35  1  0  0  0
 16 21  2  0  0  0
 16 17  1  0  0  0
 17 18  2  0  0  0
 17 36  1  0  0  0
 18 19  1  0  0  0
 18 23  1  0  0  0
 19 20  2  0  0  0
 19 37  1  0  0  0
 20 21  1  0  0  0
 20 38  1  0  0  0
 21 22  1  0  0  0
 23 39  1  0  0  0
 23 40  1  0  0  0
 23 41  1  0  0  0
 24 25  1  0  0  0
 24 42  1  0  0  0
 24 43  1  0  0  0
 25 26  1  0  0  0
 25 44  1  0  0  0
 25 45  1  0  0  0
 26 27  1  0  0  0
 26 46  1  0  0  0
 26 47  1  0  0  0
 27 48  1  0  0  0
 27 49  1  0  0  0
M  END
> <i_i_glide_confnum>
121

> <i_i_glide_lignum>
5862

> <i_i_glide_posenum>
396

> <i_i_glide_rotatable_bonds>
6

> <i_m_Source_File_Index>
4709

> <b_m_subgroup_collapsed>
0

> <r_i_docking_score>
-5.05758

> <r_i_glide_ecoul>
-1.50123

> <r_i_glide_eff_state_penalty>
0

> <r_i_glide_einternal>
21.9624

> <r_i_glide_emodel>
-40.9837

> <r_i_glide_energy>
-39.7803

> <r_i_glide_erotb>
0.663826

> <r_i_glide_esite>
-0.115378

> <r_i_glide_evdw>
-38.2791

> <r_i_glide_gscore>
-5.05758

> <r_i_glide_hbond>
-0.080916

> <r_i_glide_ligand_efficiency>
-0.187318

> <r_i_glide_ligand_efficiency_ln>
-1.17732

> <r_i_glide_ligand_efficiency_sa>
-0.561953

> <r_i_glide_lipo>
-2.19702

> <r_i_glide_metal>
0

> <r_i_glide_rewards>
-1.18895

> <s_i_glide_gridfile>
wee1_glide-grid

> <s_m_Source_File>
wee1_decoys_glide_SP.sdf

> <s_m_Source_Path>
/Users/zhangxujun/Desktop

> <s_m_entry_id>
4984

> <s_m_entry_name>
wee1_decoys_glide_SP.4709

> <s_m_subgroup_title>
wee1_decoys_glide_SP

> <s_m_subgroupid>
wee1_decoys_glide_SP


$$$$
