@<TRIPOS>MOLECULE
ZINC08818345_6130
70   74    1
SMALL
USER_CHARGES


@<TRIPOS>ATOM
      1 C1          4.4885   58.5975   16.8822 C.3       1 UNK         0.0000 
      2 C2          5.6116   57.5523   16.8451 C.3       1 UNK         0.0000 
      3 C3          5.2386   56.2777   16.0609 C.2       1 UNK         0.0000 
      4 O4          4.3740   56.3885   15.1820 O.2       1 UNK         0.0000 
      5 N5          5.8405   55.0832   16.3718 N.am      1 UNK         0.0000 
      6 C6          5.1998   53.9420   15.8627 C.ar      1 UNK         0.0000 
      7 C7          5.4313   53.4832   14.5593 C.ar      1 UNK         0.0000 
      8 C8          4.7626   52.3690   14.0662 C.ar      1 UNK         0.0000 
      9 C9          3.8619   51.6966   14.8806 C.ar      1 UNK         0.0000 
     10 C10         3.6491   52.1251   16.1879 C.ar      1 UNK         0.0000 
     11 C11         4.3113   53.2404   16.7150 C.ar      1 UNK         0.0000 
     12 N12         4.0592   53.6705   18.0358 N.pl3     1 UNK         0.0000 
     13 C13         4.8735   54.2225   19.0169 C.2       1 UNK         0.0000 
     14 C14         4.2072   54.0765   20.3868 C.3       1 UNK         0.0000 
     15 C15         5.2352   54.0472   21.5477 C.3       1 UNK         0.0000 
     16 H16         5.7959   53.1123   21.5342 H         1 UNK         0.0000 
     17 C17         6.3202   55.1415   21.4014 C.3       1 UNK         0.0000 
     18 C18         6.8903   55.2970   19.9871 C.2       1 UNK         0.0000 
     19 C19         6.1089   54.7727   18.8428 C.2       1 UNK         0.0000 
     20 C20         6.8157   54.9650   17.4807 C.3       1 UNK         0.0000 
     21 H21         7.3564   55.9118   17.5148 H         1 UNK         0.0000 
     22 C22         7.9137   53.9511   17.1880 C.2       1 UNK         0.0000 
     23 C23         9.2816   54.0661   16.9824 C.2       1 UNK         0.0000 
     24 C24         9.7779   52.7768   16.7858 C.2       1 UNK         0.0000 
     25 C25         8.6912   51.9280   16.8820 C.2       1 UNK         0.0000 
     26 O26         7.5633   52.6381   17.1388 O.3       1 UNK         0.0000 
     27 O27         7.9071   55.9742   19.8376 O.2       1 UNK         0.0000 
     28 C28         4.6285   54.0809   22.9666 C.ar      1 UNK         0.0000 
     29 C29         3.2420   54.0962   23.1871 C.ar      1 UNK         0.0000 
     30 C30         2.7253   54.0970   24.4810 C.ar      1 UNK         0.0000 
     31 C31         3.5989   54.0711   25.5702 C.ar      1 UNK         0.0000 
     32 C32         4.9832   54.0968   25.3701 C.ar      1 UNK         0.0000 
     33 C33         5.4866   54.0968   24.0739 C.ar      1 UNK         0.0000 
     34 N34         3.0052   54.0832   26.9592 N.4       1 UNK         0.0000 
     35 C35         2.3119   52.7783   27.4469 C.3       1 UNK         0.0000 
     36 C36         1.1605   52.2934   26.5485 C.3       1 UNK         0.0000 
     37 C37         3.9222   54.6433   28.0860 C.3       1 UNK         0.0000 
     38 C38         4.8582   53.5932   28.7250 C.3       1 UNK         0.0000 
     39 H39         4.7061   59.2968   17.6816 H         1 UNK         0.0000 
     40 H40         4.4303   59.1747   15.9574 H         1 UNK         0.0000 
     41 H41         3.5082   58.1638   17.0889 H         1 UNK         0.0000 
     42 H42         5.8410   57.3241   17.8821 H         1 UNK         0.0000 
     43 H43         6.5062   57.9884   16.4008 H         1 UNK         0.0000 
     44 H44         6.1248   54.0127   13.9231 H         1 UNK         0.0000 
     45 H45         4.9432   52.0266   13.0584 H         1 UNK         0.0000 
     46 H46         3.3487   50.8171   14.5190 H         1 UNK         0.0000 
     47 H47         2.9743   51.5594   16.8132 H         1 UNK         0.0000 
     48 H48         3.5045   54.8967   20.4681 H         1 UNK         0.0000 
     49 H49         3.6605   53.1337   20.4619 H         1 UNK         0.0000 
     50 H50         7.1695   54.9753   22.0643 H         1 UNK         0.0000 
     51 H51         5.8906   56.1027   21.6733 H         1 UNK         0.0000 
     52 H52         9.8555   54.9810   16.9863 H         1 UNK         0.0000 
     53 H53        10.8044   52.4940   16.6042 H         1 UNK         0.0000 
     54 H54         8.5745   50.8577   16.8100 H         1 UNK         0.0000 
     55 H55         3.2141   53.2599   18.4031 H         1 UNK         0.0000 
     56 H56         2.5432   54.1064   22.3636 H         1 UNK         0.0000 
     57 H57         1.6546   54.1258   24.6168 H         1 UNK         0.0000 
     58 H58         5.6896   54.0986   26.1834 H         1 UNK         0.0000 
     59 H59         6.5574   54.0846   23.9388 H         1 UNK         0.0000 
     60 H60         3.1040   52.0400   27.5262 H         1 UNK         0.0000 
     61 H61         1.9404   53.0051   28.4468 H         1 UNK         0.0000 
     62 H62         0.6702   51.4295   26.9997 H         1 UNK         0.0000 
     63 H63         0.3953   53.0549   26.4135 H         1 UNK         0.0000 
     64 H64         1.5047   51.9729   25.5655 H         1 UNK         0.0000 
     65 H65         4.4943   55.4351   27.6155 H         1 UNK         0.0000 
     66 H66         3.2493   55.0937   28.8180 H         1 UNK         0.0000 
     67 H67         5.6501   54.0938   29.2816 H         1 UNK         0.0000 
     68 H68         4.3242   52.9488   29.4242 H         1 UNK         0.0000 
     69 H69         5.3409   52.9454   27.9923 H         1 UNK         0.0000 
     70 H70         2.2526   54.7572   26.9343 H         1 UNK         0.0000 
@<TRIPOS>BOND
     1    1    2 1    
     2    1   39 1    
     3    1   40 1    
     4    1   41 1    
     5    2    3 1    
     6    2   42 1    
     7    2   43 1    
     8    3    4 2    
     9    3    5 am   BACKBONE|DICT|INTERRES
    10    5   20 1    
    11    5    6 1    
    12    6   11 ar   
    13    6    7 ar   
    14    7    8 ar   
    15    7   44 1    
    16    8    9 ar   
    17    8   45 1    
    18    9   10 ar   
    19    9   46 1    
    20   10   11 ar   
    21   10   47 1    
    22   11   12 1    
    23   12   13 1    
    24   12   55 1    
    25   13   19 2    
    26   13   14 1    
    27   14   15 1    
    28   14   48 1    
    29   14   49 1    
    30   15   16 1    
    31   15   17 1    
    32   15   28 1    
    33   17   50 1    
    34   17   51 1    
    35   17   18 1    
    36   18   27 2    
    37   18   19 1    
    38   19   20 1    
    39   20   21 1    
    40   20   22 1    
    41   22   26 1    
    42   22   23 2    
    43   23   24 1    
    44   23   52 1    
    45   24   25 2    
    46   24   53 1    
    47   25   26 1    
    48   25   54 1    
    49   28   33 ar   
    50   28   29 ar   
    51   29   30 ar   
    52   29   56 1    
    53   30   31 ar   
    54   30   57 1    
    55   31   32 ar   
    56   31   34 1    
    57   32   33 ar   
    58   32   58 1    
    59   33   59 1    
    60   34   35 1    
    61   34   37 1    
    62   34   70 1    
    63   35   36 1    
    64   35   60 1    
    65   35   61 1    
    66   36   62 1    
    67   36   63 1    
    68   36   64 1    
    69   37   38 1    
    70   37   65 1    
    71   37   66 1    
    72   38   67 1    
    73   38   68 1    
    74   38   69 1    
@<TRIPOS>SUBSTRUCTURE
     1 UNK         1 GROUP             0       ****    0 ROOT    
