@<TRIPOS>MOLECULE
ZINC18240539_2623
30   31    1
SMALL
USER_CHARGES


@<TRIPOS>ATOM
      1 C1          8.5893   55.0499   15.0774 C.3       1 UNK         0.0000 
      2 C2          8.6478   55.1923   16.5792 C.ar      1 UNK         0.0000 
      3 C3          7.6092   55.0918   17.5158 C.ar      1 UNK         0.0000 
      4 C4          8.1836   55.2921   18.7665 C.ar      1 UNK         0.0000 
      5 N5          9.5044   55.5172   18.4757 N.pl3     1 UNK         0.0000 
      6 H6         10.2220   55.6965   19.1713 H         1 UNK         0.0000 
      7 N7          9.7932   55.4503   17.1721 N.2       1 UNK         0.0000 
      8 C8          7.6340   55.3252   20.0925 C.2       1 UNK         0.0000 
      9 O9          8.3280   55.6966   21.0400 O.2       1 UNK         0.0000 
     10 N10         6.3438   54.8969   20.1746 N.am      1 UNK         0.0000 
     11 N11         5.5286   54.7138   21.2789 N.2       1 UNK         0.0000 
     12 C12         6.0166   54.5015   22.4464 C.2       1 UNK         0.0000 
     13 C13         5.2083   54.3673   23.6665 C.ar      1 UNK         0.0000 
     14 C14         3.8338   54.0972   23.5658 C.ar      1 UNK         0.0000 
     15 C15         3.0392   53.9753   24.7007 C.ar      1 UNK         0.0000 
     16 C16         3.6094   54.0973   25.9645 C.ar      1 UNK         0.0000 
     17 C17         4.9719   54.3637   26.0945 C.ar      1 UNK         0.0000 
     18 C18         5.7736   54.5137   24.9527 C.ar      1 UNK         0.0000 
     19 O19         7.1043   54.8249   25.1278 O.3       1 UNK         0.0000 
     20 Br20        5.7115   54.5135   27.8477 Br        1 UNK         0.0000 
     21 Br21        1.1746   53.6456   24.5096 Br        1 UNK         0.0000 
     22 H22         7.5770   54.8450   14.7265 H         1 UNK         0.0000 
     23 H23         8.9261   55.9574   14.5750 H         1 UNK         0.0000 
     24 H24         9.2216   54.2325   14.7276 H         1 UNK         0.0000 
     25 H25         6.5716   54.8925   17.2894 H         1 UNK         0.0000 
     26 H26         5.8355   54.8521   19.3052 H         1 UNK         0.0000 
     27 H27         7.0834   54.3881   22.6130 H         1 UNK         0.0000 
     28 H28         3.3621   53.9882   22.5976 H         1 UNK         0.0000 
     29 H29         2.9923   53.9882   26.8447 H         1 UNK         0.0000 
     30 H30         7.6152   54.8965   24.3141 H         1 UNK         0.0000 
@<TRIPOS>BOND
     1    1    2 1    
     2    1   22 1    
     3    1   23 1    
     4    1   24 1    
     5    2    7 ar   
     6    2    3 ar   
     7    3    4 ar   
     8    3   25 1    
     9    4    5 ar   
    10    4    8 1    
    11    5    6 1    
    12    5    7 ar   
    13    8    9 2    
    14    8   10 am   BACKBONE|DICT|INTERRES
    15   10   11 1    
    16   10   26 1    
    17   11   12 2    
    18   12   13 1    
    19   12   27 1    
    20   13   18 ar   
    21   13   14 ar   
    22   14   15 ar   
    23   14   28 1    
    24   15   16 ar   
    25   15   21 1    
    26   16   17 ar   
    27   16   29 1    
    28   17   18 ar   
    29   17   20 1    
    30   18   19 1    
    31   19   30 1    
@<TRIPOS>SUBSTRUCTURE
     1 UNK         1 GROUP             0       ****    0 ROOT    
