@<TRIPOS>MOLECULE
ZINC63704771_2435
58   62    1
SMALL
USER_CHARGES


@<TRIPOS>ATOM
      1 C1          4.6062   54.1823   24.6477 C.ar      1 UNK         0.0000 
      2 C2          5.5667   54.4973   23.6926 C.ar      1 UNK         0.0000 
      3 C3          5.2832   54.3252   22.3319 C.ar      1 UNK         0.0000 
      4 C4          4.0876   53.7036   21.9197 C.ar      1 UNK         0.0000 
      5 C5          3.1101   53.4677   22.8982 C.ar      1 UNK         0.0000 
      6 C6          3.3460   53.7009   24.2626 C.ar      1 UNK         0.0000 
      7 C7          2.2417   53.4479   25.2685 C.2       1 UNK         0.0000 
      8 O8          1.1026   53.1761   24.8850 O.2       1 UNK         0.0000 
      9 N9          2.5541   53.5706   26.5755 N.am      1 UNK         0.0000 
     10 C10         1.6050   53.4509   27.6842 C.3       1 UNK         0.0000 
     11 C11         1.1372   52.0091   28.0076 C.3       1 UNK         0.0000 
     12 C12         0.1236   51.9462   29.1691 C.3       1 UNK         0.0000 
     13 C13         0.6176   52.6953   30.4189 C.3       1 UNK         0.0000 
     14 C14         0.9760   54.1507   30.0798 C.3       1 UNK         0.0000 
     15 C15         2.0167   54.2451   28.9452 C.3       1 UNK         0.0000 
     16 N16         3.9124   53.4202   20.5275 N.pl3     1 UNK         0.0000 
     17 C17         4.8180   54.0050   19.6367 C.ar      1 UNK         0.0000 
     18 N18         5.8573   54.6828   19.9713 N.2       1 UNK         0.0000 
     19 C19         6.2271   54.9063   21.2943 C.ar      1 UNK         0.0000 
     20 O20         7.2164   55.5438   21.6517 O.2       1 UNK         0.0000 
     21 C21         4.5085   53.6927   18.1880 C.3       1 UNK         0.0000 
     22 H22         5.3275   53.1266   17.7417 H         1 UNK         0.0000 
     23 S23         3.0786   52.5939   18.1467 S.3       1 UNK         0.0000 
     24 C24         3.0711   52.4421   19.8998 C.2       1 UNK         0.0000 
     25 S25         2.0925   51.2598   20.5499 S.2       1 UNK         0.0000 
     26 C26         4.3493   54.9667   17.3317 C.2       1 UNK         0.0000 
     27 O27         5.3312   55.3920   16.7261 O.2       1 UNK         0.0000 
     28 N28         3.1379   55.5602   17.2828 N.am      1 UNK         0.0000 
     29 C29         2.7223   56.7505   16.5183 C.3       1 UNK         0.0000 
     30 C30         3.5937   57.9996   16.7281 C.3       1 UNK         0.0000 
     31 C31         4.4675   58.1435   15.4687 C.3       1 UNK         0.0000 
     32 C32         3.9849   57.0901   14.4540 C.3       1 UNK         0.0000 
     33 C33         2.6619   56.5409   15.0001 C.3       1 UNK         0.0000 
     34 H34         4.8463   54.3689   25.6840 H         1 UNK         0.0000 
     35 H35         6.5013   54.9372   24.0179 H         1 UNK         0.0000 
     36 H36         2.1355   53.1147   22.6032 H         1 UNK         0.0000 
     37 H37         3.5241   53.6641   26.8307 H         1 UNK         0.0000 
     38 H38         0.7046   53.9653   27.3492 H         1 UNK         0.0000 
     39 H39         0.6926   51.5471   27.1246 H         1 UNK         0.0000 
     40 H40         2.0050   51.4028   28.2714 H         1 UNK         0.0000 
     41 H41        -0.8252   52.3750   28.8430 H         1 UNK         0.0000 
     42 H42        -0.0947   50.9062   29.4139 H         1 UNK         0.0000 
     43 H43        -0.1478   52.6668   31.1968 H         1 UNK         0.0000 
     44 H44         1.4894   52.1884   30.8344 H         1 UNK         0.0000 
     45 H45         0.0684   54.6754   29.7829 H         1 UNK         0.0000 
     46 H46         1.3370   54.6707   30.9653 H         1 UNK         0.0000 
     47 H47         2.9685   53.8601   29.3139 H         1 UNK         0.0000 
     48 H48         2.1783   55.2944   28.6916 H         1 UNK         0.0000 
     49 H49         2.4045   55.1189   17.8199 H         1 UNK         0.0000 
     50 H50         1.7125   56.9204   16.8968 H         1 UNK         0.0000 
     51 H51         4.1653   57.9752   17.6565 H         1 UNK         0.0000 
     52 H52         2.9487   58.8789   16.7885 H         1 UNK         0.0000 
     53 H53         5.5209   57.9919   15.7090 H         1 UNK         0.0000 
     54 H54         4.3815   59.1525   15.0600 H         1 UNK         0.0000 
     55 H55         4.7168   56.2855   14.3694 H         1 UNK         0.0000 
     56 H56         3.8665   57.5136   13.4556 H         1 UNK         0.0000 
     57 H57         1.8483   57.1457   14.5963 H         1 UNK         0.0000 
     58 H58         2.4477   55.5115   14.7099 H         1 UNK         0.0000 
@<TRIPOS>BOND
     1    1    6 ar   
     2    1    2 ar   
     3    1   34 1    
     4    2    3 ar   
     5    2   35 1    
     6    3   19 ar   
     7    3    4 ar   
     8    4    5 ar   
     9    4   16 ar   
    10    5    6 ar   
    11    5   36 1    
    12    6    7 1    
    13    7    8 2    
    14    7    9 am   BACKBONE|DICT|INTERRES
    15    9   10 1    
    16    9   37 1    
    17   10   15 1    
    18   10   11 1    
    19   10   38 1    
    20   11   12 1    
    21   11   39 1    
    22   11   40 1    
    23   12   13 1    
    24   12   41 1    
    25   12   42 1    
    26   13   14 1    
    27   13   43 1    
    28   13   44 1    
    29   14   15 1    
    30   14   45 1    
    31   14   46 1    
    32   15   47 1    
    33   15   48 1    
    34   16   24 1    
    35   16   17 ar   
    36   17   18 ar   
    37   17   21 1    
    38   18   19 ar   
    39   19   20 2    
    40   21   22 1    
    41   21   23 1    
    42   21   26 1    
    43   23   24 1    
    44   24   25 2    
    45   26   27 2    
    46   26   28 am   BACKBONE|DICT|INTERRES
    47   28   29 1    
    48   28   49 1    
    49   29   33 1    
    50   29   30 1    
    51   29   50 1    
    52   30   31 1    
    53   30   51 1    
    54   30   52 1    
    55   31   32 1    
    56   31   53 1    
    57   31   54 1    
    58   32   33 1    
    59   32   55 1    
    60   32   56 1    
    61   33   57 1    
    62   33   58 1    
@<TRIPOS>SUBSTRUCTURE
     1 UNK         1 GROUP             0       ****    0 ROOT    
