ZINC20018828_188
                    3D
 Schrodinger Suite 2024-2.
 65 69  0  0  1  0            999 V2000
    3.4619   51.6967   32.0631 C   0  0  0  0  0  0
    2.3408   52.0969   31.2824 O   0  0  0  0  0  0
    2.5380   52.5693   30.0018 C   0  0  0  0  0  0
    3.7961   52.8352   29.4464 C   0  0  0  0  0  0
    3.9015   53.2616   28.1276 C   0  0  0  0  0  0
    2.7608   53.4351   27.3316 C   0  0  0  0  0  0
    1.5049   53.1980   27.9078 C   0  0  0  0  0  0
    1.3968   52.7706   29.2286 C   0  0  0  0  0  0
    2.8892   53.7845   25.9885 N   0  0  0  0  0  0
    3.9368   54.6785   25.4826 C   0  0  0  0  0  0
    4.5244   54.1901   24.1474 C   0  0  0  0  0  0
    3.4901   54.1061   23.1106 N   0  0  0  0  0  0
    2.3697   53.2585   23.5439 C   0  0  0  0  0  0
    1.8474   53.5662   24.9686 C   0  0  0  0  0  0
    3.9918   53.5821   21.8282 C   0  0  0  0  0  0
    4.9746   54.4650   21.0554 C   0  0  0  0  0  0
    6.1728   54.7951   21.6106 N   0  0  0  0  0  0
    7.0360   55.4448   20.7915 C   0  0  0  0  0  0
    6.7776   55.8300   19.5165 N   0  0  0  0  0  0
    5.5520   55.4804   19.0223 C   0  0  0  0  0  0
    4.6755   54.7896   19.7836 N   0  3  0  0  0  0
    5.1949   55.9122   17.6853 N   0  0  0  0  0  0
    6.0833   56.7305   16.9135 C   0  0  0  0  0  0
    7.1193   56.1239   16.1964 C   0  0  0  0  0  0
    7.9889   56.9072   15.4405 C   0  0  0  0  0  0
    7.8159   58.2900   15.4019 C   0  0  0  0  0  0
    6.7866   58.8968   16.1169 C   0  0  0  0  0  0
    5.9230   58.1194   16.8833 C   0  0  0  0  0  0
    3.9562   55.4995   17.0693 C   0  0  0  0  0  0
    3.0955   56.4478   16.4975 C   0  0  0  0  0  0
    1.8885   56.0481   15.9335 C   0  0  0  0  0  0
    1.5418   54.6987   15.9250 C   0  0  0  0  0  0
    2.3948   53.7433   16.4722 C   0  0  0  0  0  0
    3.6021   54.1415   17.0410 C   0  0  0  0  0  0
    8.3044   55.6967   21.2816 N   0  0  0  0  0  0
    3.1112   51.0667   32.8817 H   0  0  0  0  0  0
    3.9894   52.5504   32.4799 H   0  0  0  0  0  0
    4.1774   51.1047   31.4969 H   0  0  0  0  0  0
    4.7041   52.6952   30.0110 H   0  0  0  0  0  0
    4.8922   53.4024   27.7223 H   0  0  0  0  0  0
    0.5979   53.3261   27.3356 H   0  0  0  0  0  0
    0.4215   52.5702   29.6511 H   0  0  0  0  0  0
    3.5046   55.6701   25.3676 H   0  0  0  0  0  0
    4.7412   54.8175   26.2030 H   0  0  0  0  0  0
    5.2746   54.9256   23.8693 H   0  0  0  0  0  0
    5.0172   53.2354   24.3108 H   0  0  0  0  0  0
    2.7045   52.2205   23.5847 H   0  0  0  0  0  0
    1.5376   53.3350   22.8411 H   0  0  0  0  0  0
    1.1432   52.7919   25.2715 H   0  0  0  0  0  0
    1.2802   54.4966   24.9121 H   0  0  0  0  0  0
    4.4611   52.6066   21.9728 H   0  0  0  0  0  0
    3.1371   53.4006   21.1729 H   0  0  0  0  0  0
    7.2522   55.0507   16.2233 H   0  0  0  0  0  0
    8.7931   56.4436   14.8880 H   0  0  0  0  0  0
    8.4867   58.8986   14.8108 H   0  0  0  0  0  0
    6.6580   59.9710   16.0827 H   0  0  0  0  0  0
    5.1351   58.6076   17.4408 H   0  0  0  0  0  0
    3.3390   57.5014   16.5005 H   0  0  0  0  0  0
    1.2224   56.7826   15.5052 H   0  0  0  0  0  0
    0.6049   54.3883   15.4834 H   0  0  0  0  0  0
    2.1276   52.6955   16.4512 H   0  0  0  0  0  0
    4.2615   53.3842   17.4458 H   0  0  0  0  0  0
    8.9780   56.1303   20.6676 H   0  0  0  0  0  0
    8.5495   55.4174   22.2262 H   0  0  0  0  0  0
    3.7684   54.5525   19.4042 H   0  0  0  0  0  0
  1  2  1  0  0  0
  1 36  1  0  0  0
  1 37  1  0  0  0
  1 38  1  0  0  0
  2  3  1  0  0  0
  3  8  2  0  0  0
  3  4  1  0  0  0
  4  5  2  0  0  0
  4 39  1  0  0  0
  5  6  1  0  0  0
  5 40  1  0  0  0
  6  7  2  0  0  0
  6  9  1  0  0  0
  7  8  1  0  0  0
  7 41  1  0  0  0
  8 42  1  0  0  0
  9 14  1  0  0  0
  9 10  1  0  0  0
 10 11  1  0  0  0
 10 43  1  0  0  0
 10 44  1  0  0  0
 11 12  1  0  0  0
 11 45  1  0  0  0
 11 46  1  0  0  0
 12 13  1  0  0  0
 12 15  1  0  0  0
 13 14  1  0  0  0
 13 47  1  0  0  0
 13 48  1  0  0  0
 14 49  1  0  0  0
 14 50  1  0  0  0
 15 16  1  0  0  0
 15 51  1  0  0  0
 15 52  1  0  0  0
 16 21  2  0  0  0
 16 17  1  0  0  0
 17 18  2  0  0  0
 18 19  1  0  0  0
 18 35  1  0  0  0
 19 20  2  0  0  0
 20 21  1  0  0  0
 20 22  1  0  0  0
 21 65  1  0  0  0
 22 23  1  0  0  0
 22 29  1  0  0  0
 23 28  2  0  0  0
 23 24  1  0  0  0
 24 25  2  0  0  0
 24 53  1  0  0  0
 25 26  1  0  0  0
 25 54  1  0  0  0
 26 27  2  0  0  0
 26 55  1  0  0  0
 27 28  1  0  0  0
 27 56  1  0  0  0
 28 57  1  0  0  0
 29 34  2  0  0  0
 29 30  1  0  0  0
 30 31  2  0  0  0
 30 58  1  0  0  0
 31 32  1  0  0  0
 31 59  1  0  0  0
 32 33  2  0  0  0
 32 60  1  0  0  0
 33 34  1  0  0  0
 33 61  1  0  0  0
 34 62  1  0  0  0
 35 63  1  0  0  0
 35 64  1  0  0  0
M  CHG  1  21   1
M  END
> <i_i_glide_confnum>
133

> <i_i_glide_lignum>
189

> <i_i_glide_posenum>
37

> <i_i_glide_rotatable_bonds>
7

> <i_m_Source_File_Index>
1707

> <b_m_subgroup_collapsed>
0

> <r_i_docking_score>
-6.3511

> <r_i_glide_ecoul>
-8.28244

> <r_i_glide_eff_state_penalty>
0

> <r_i_glide_einternal>
7.73303

> <r_i_glide_emodel>
-62.4549

> <r_i_glide_energy>
-46.5659

> <r_i_glide_erotb>
0.551764

> <r_i_glide_esite>
0

> <r_i_glide_evdw>
-38.2834

> <r_i_glide_gscore>
-6.3511

> <r_i_glide_hbond>
-0.593997

> <r_i_glide_ligand_efficiency>
-0.18146

> <r_i_glide_ligand_efficiency_ln>
-1.39421

> <r_i_glide_ligand_efficiency_sa>
-0.593568

> <r_i_glide_lipo>
-2.22164

> <r_i_glide_metal>
0

> <r_i_glide_rewards>
-0.930691

> <s_i_glide_gridfile>
wee1_glide-grid

> <s_m_Source_File>
wee1_decoys_glide_SP.sdf

> <s_m_Source_Path>
/Users/zhangxujun/Desktop

> <s_m_entry_id>
1982

> <s_m_entry_name>
wee1_decoys_glide_SP.1707

> <s_m_subgroup_title>
wee1_decoys_glide_SP

> <s_m_subgroupid>
wee1_decoys_glide_SP


$$$$
