ZINC39656999_3676
                    3D
 Schrodinger Suite 2024-2.
 59 62  0  0  1  0            999 V2000
    5.0090   54.2394   24.9765 C   0  0  0  0  0  0
    3.4950   54.1164   25.2976 C   0  0  2  0  0  0
    3.1059   55.1336   25.2339 H   0  0  0  0  0  0
    3.1857   53.6837   26.7482 C   0  0  0  0  0  0
    4.1921   53.6228   27.7266 C   0  0  0  0  0  0
    3.9125   53.1608   29.0077 C   0  0  0  0  0  0
    2.6214   52.7566   29.3323 C   0  0  0  0  0  0
    1.6035   52.8247   28.3836 C   0  0  0  0  0  0
    1.8857   53.2851   27.0989 C   0  0  0  0  0  0
    2.2524   52.0968   31.0787 Br  0  0  0  0  0  0
    2.7331   53.3303   24.3047 N   0  0  0  0  0  0
    2.6324   53.5966   22.9885 C   0  0  0  0  0  0
    3.2719   54.4968   22.4613 O   0  0  0  0  0  0
    1.7050   52.7307   22.0946 C   0  0  2  0  0  0
    1.4025   53.3793   21.2818 H   0  0  0  0  0  0
    0.4197   52.2702   22.7934 C   0  0  0  0  0  0
    0.7336   50.9077   23.2296 N   0  0  0  0  0  0
    1.9587   50.3999   22.5887 C   0  0  0  0  0  0
    2.3693   51.4454   21.5222 C   0  0  0  0  0  0
    1.7255   50.9547   20.1870 C   0  0  0  0  0  0
    1.9823   51.9008   18.9919 C   0  0  0  0  0  0
    3.5044   52.0968   18.8102 N   0  3  0  0  0  0
    4.2355   52.5081   20.1006 C   0  0  0  0  0  0
    3.8933   51.4769   21.1990 C   0  0  0  0  0  0
    0.2107   50.2938   24.3248 C   0  0  0  0  0  0
    0.7030   49.2611   24.7769 O   0  0  0  0  0  0
   -0.9522   50.9197   25.0686 C   0  0  0  0  0  0
   -0.9471   50.8786   26.4727 C   0  0  0  0  0  0
   -2.0031   51.4062   27.2109 C   0  0  0  0  0  0
   -3.0863   51.9821   26.5547 C   0  0  0  0  0  0
   -3.1318   52.0023   25.1634 C   0  0  0  0  0  0
   -2.0858   51.4479   24.4176 C   0  0  0  0  0  0
   -2.2156   51.3909   23.0705 F   0  0  0  0  0  0
   -4.5027   52.6993   24.3771 Cl  0  0  0  0  0  0
    5.4828   54.9956   25.6025 H   0  0  0  0  0  0
    5.5316   53.2968   25.1356 H   0  0  0  0  0  0
    5.2081   54.5480   23.9519 H   0  0  0  0  0  0
    5.2118   53.9045   27.5131 H   0  0  0  0  0  0
    4.7037   53.0977   29.7396 H   0  0  0  0  0  0
    0.6017   52.5104   28.6409 H   0  0  0  0  0  0
    1.0830   53.3163   26.3752 H   0  0  0  0  0  0
    2.1905   52.5644   24.6749 H   0  0  0  0  0  0
    0.1329   52.9805   23.5719 H   0  0  0  0  0  0
   -0.3297   52.2491   22.0016 H   0  0  0  0  0  0
    1.9403   49.3646   22.2448 H   0  0  0  0  0  0
    2.7049   50.4191   23.3777 H   0  0  0  0  0  0
    2.0728   49.9504   19.9351 H   0  0  0  0  0  0
    0.6463   50.8448   20.3081 H   0  0  0  0  0  0
    1.6187   51.4877   18.0498 H   0  0  0  0  0  0
    1.5582   52.8967   19.1251 H   0  0  0  0  0  0
    3.9673   51.2421   18.4823 H   0  0  0  0  0  0
    5.2963   52.5099   19.8477 H   0  0  0  0  0  0
    3.9179   53.5283   20.3118 H   0  0  0  0  0  0
    4.4787   51.7230   22.0816 H   0  0  0  0  0  0
    4.2513   50.4962   20.8978 H   0  0  0  0  0  0
   -0.1305   50.4145   27.0105 H   0  0  0  0  0  0
   -1.9838   51.3484   28.2913 H   0  0  0  0  0  0
   -3.9053   52.3891   27.1298 H   0  0  0  0  0  0
    3.6799   52.7775   18.0846 H   0  0  0  0  0  0
  1  2  1  0  0  0
  1 35  1  0  0  0
  1 36  1  0  0  0
  1 37  1  0  0  0
  2  3  1  0  0  0
  2  4  1  0  0  0
  2 11  1  0  0  0
  4  9  2  0  0  0
  4  5  1  0  0  0
  5  6  2  0  0  0
  5 38  1  0  0  0
  6  7  1  0  0  0
  6 39  1  0  0  0
  7  8  2  0  0  0
  7 10  1  0  0  0
  8  9  1  0  0  0
  8 40  1  0  0  0
  9 41  1  0  0  0
 11 12  1  0  0  0
 11 42  1  0  0  0
 12 13  2  0  0  0
 12 14  1  0  0  0
 14 15  1  0  0  0
 14 19  1  0  0  0
 14 16  1  0  0  0
 16 17  1  0  0  0
 16 43  1  0  0  0
 16 44  1  0  0  0
 17 18  1  0  0  0
 17 25  1  0  0  0
 18 19  1  0  0  0
 18 45  1  0  0  0
 18 46  1  0  0  0
 19 24  1  0  0  0
 19 20  1  0  0  0
 20 21  1  0  0  0
 20 47  1  0  0  0
 20 48  1  0  0  0
 21 22  1  0  0  0
 21 49  1  0  0  0
 21 50  1  0  0  0
 22 23  1  0  0  0
 22 51  1  0  0  0
 22 59  1  0  0  0
 23 24  1  0  0  0
 23 52  1  0  0  0
 23 53  1  0  0  0
 24 54  1  0  0  0
 24 55  1  0  0  0
 25 26  2  0  0  0
 25 27  1  0  0  0
 27 32  2  0  0  0
 27 28  1  0  0  0
 28 29  2  0  0  0
 28 56  1  0  0  0
 29 30  1  0  0  0
 29 57  1  0  0  0
 30 31  2  0  0  0
 30 58  1  0  0  0
 31 32  1  0  0  0
 31 34  1  0  0  0
 32 33  1  0  0  0
M  CHG  1  22   1
M  END
> <i_i_glide_confnum>
137

> <i_i_glide_lignum>
3677

> <i_i_glide_posenum>
11

> <i_i_glide_rotatable_bonds>
6

> <i_m_Source_File_Index>
5939

> <b_m_subgroup_collapsed>
0

> <r_i_docking_score>
-4.67025

> <r_i_glide_ecoul>
-1.60386

> <r_i_glide_eff_state_penalty>
0

> <r_i_glide_einternal>
13.1506

> <r_i_glide_emodel>
-54.8761

> <r_i_glide_energy>
-44.9906

> <r_i_glide_erotb>
0.374849

> <r_i_glide_esite>
-0.1

> <r_i_glide_evdw>
-43.3868

> <r_i_glide_gscore>
-4.67025

> <r_i_glide_hbond>
-0.2

> <r_i_glide_ligand_efficiency>
-0.145945

> <r_i_glide_ligand_efficiency_ln>
-1.0458

> <r_i_glide_ligand_efficiency_sa>
-0.463348

> <r_i_glide_lipo>
-1.98702

> <r_i_glide_metal>
0

> <r_i_glide_rewards>
-0.34816

> <s_i_glide_gridfile>
wee1_glide-grid

> <s_m_Source_File>
wee1_decoys_glide_SP.sdf

> <s_m_Source_Path>
/Users/zhangxujun/Desktop

> <s_m_entry_id>
6214

> <s_m_entry_name>
wee1_decoys_glide_SP.5939

> <s_m_subgroup_title>
wee1_decoys_glide_SP

> <s_m_subgroupid>
wee1_decoys_glide_SP


$$$$
