@<TRIPOS>MOLECULE
ZINC33432030_4864
56   59    1
SMALL
USER_CHARGES


@<TRIPOS>ATOM
      1 C1          6.0696   59.2980   15.5528 C.3       1 UNK         0.0000 
      2 C2          4.9861   58.6629   16.4356 C.3       1 UNK         0.0000 
      3 N3          5.4583   57.3050   17.0129 N.4       1 UNK         0.0000 
      4 C4          6.6234   57.4612   18.0123 C.3       1 UNK         0.0000 
      5 C5          7.0194   56.0627   18.5293 C.3       1 UNK         0.0000 
      6 N6          5.9113   55.3546   19.1972 N.pl3     1 UNK         0.0000 
      7 C7          4.7430   55.2512   18.2957 C.3       1 UNK         0.0000 
      8 C8          4.2802   56.6051   17.7169 C.3       1 UNK         0.0000 
      9 C9          5.8728   55.0341   20.5581 C.ar      1 UNK         0.0000 
     10 C10         4.9618   54.0798   21.0407 C.ar      1 UNK         0.0000 
     11 C11         4.9113   53.7499   22.3908 C.ar      1 UNK         0.0000 
     12 C12         5.7756   54.3621   23.2980 C.ar      1 UNK         0.0000 
     13 C13         6.7044   55.2964   22.8298 C.ar      1 UNK         0.0000 
     14 C14         6.7480   55.6289   21.4779 C.ar      1 UNK         0.0000 
     15 N15         5.6970   53.9336   24.6342 N.am      1 UNK         0.0000 
     16 C16         6.1981   54.4974   25.7511 C.2       1 UNK         0.0000 
     17 O17         6.7042   55.6184   25.7988 O.2       1 UNK         0.0000 
     18 C18         6.1367   53.6305   27.0158 C.3       1 UNK         0.0000 
     19 S19         5.5043   54.4966   28.4808 S.3       1 UNK         0.0000 
     20 C20         4.0247   53.5937   28.7564 C.2       1 UNK         0.0000 
     21 N21         3.5258   53.1842   29.8952 N.2       1 UNK         0.0000 
     22 N22         2.3038   52.5963   29.5846 N.2       1 UNK         0.0000 
     23 C23         2.1534   52.7278   28.2865 C.2       1 UNK         0.0000 
     24 O24         3.2093   53.3520   27.7014 O.3       1 UNK         0.0000 
     25 C25         1.0020   52.2998   27.4393 C.ar      1 UNK         0.0000 
     26 C26         1.0394   52.4971   26.0543 C.ar      1 UNK         0.0000 
     27 C27        -0.0333   52.0987   25.2603 C.ar      1 UNK         0.0000 
     28 C28        -1.1476   51.5052   25.8493 C.ar      1 UNK         0.0000 
     29 C29        -1.1909   51.2970   27.2272 C.ar      1 UNK         0.0000 
     30 C30        -0.1194   51.6969   28.0215 C.ar      1 UNK         0.0000 
     31 Br31       -2.6143   50.9741   24.7596 Br        1 UNK         0.0000 
     32 H32         5.6651   60.1768   15.0501 H         1 UNK         0.0000 
     33 H33         6.4334   58.6129   14.7882 H         1 UNK         0.0000 
     34 H34         6.9150   59.6525   16.1385 H         1 UNK         0.0000 
     35 H35         4.7016   59.2961   17.2769 H         1 UNK         0.0000 
     36 H36         4.0955   58.4426   15.8413 H         1 UNK         0.0000 
     37 H37         7.4571   57.8883   17.4572 H         1 UNK         0.0000 
     38 H38         6.3105   58.1467   18.8014 H         1 UNK         0.0000 
     39 H39         7.3265   55.4267   17.6964 H         1 UNK         0.0000 
     40 H40         7.9019   56.1395   19.1626 H         1 UNK         0.0000 
     41 H41         3.8811   54.7924   18.7781 H         1 UNK         0.0000 
     42 H42         5.0432   54.5726   17.4956 H         1 UNK         0.0000 
     43 H43         3.9044   57.2860   18.4814 H         1 UNK         0.0000 
     44 H44         3.5202   56.4417   16.9498 H         1 UNK         0.0000 
     45 H45         4.2922   53.5571   20.3750 H         1 UNK         0.0000 
     46 H46         4.2011   53.0034   22.7191 H         1 UNK         0.0000 
     47 H47         7.4210   55.7589   23.4911 H         1 UNK         0.0000 
     48 H48         7.4805   56.3565   21.1696 H         1 UNK         0.0000 
     49 H49         5.2003   53.0658   24.7651 H         1 UNK         0.0000 
     50 H50         5.5692   52.7145   26.8589 H         1 UNK         0.0000 
     51 H51         7.1576   53.3217   27.2378 H         1 UNK         0.0000 
     52 H52         1.8961   52.9577   25.5870 H         1 UNK         0.0000 
     53 H53        -0.0027   52.2515   24.1920 H         1 UNK         0.0000 
     54 H54        -2.0431   50.8101   27.6787 H         1 UNK         0.0000 
     55 H55        -0.1643   51.5195   29.0870 H         1 UNK         0.0000 
     56 H56         5.7658   56.7147   16.2524 H         1 UNK         0.0000 
@<TRIPOS>BOND
     1    1    2 1    
     2    1   32 1    
     3    1   33 1    
     4    1   34 1    
     5    2    3 1    
     6    2   35 1    
     7    2   36 1    
     8    3    8 1    
     9    3    4 1    
    10    3   56 1    
    11    4    5 1    
    12    4   37 1    
    13    4   38 1    
    14    5    6 1    
    15    5   39 1    
    16    5   40 1    
    17    6    7 1    
    18    6    9 1    
    19    7    8 1    
    20    7   41 1    
    21    7   42 1    
    22    8   43 1    
    23    8   44 1    
    24    9   14 ar   
    25    9   10 ar   
    26   10   11 ar   
    27   10   45 1    
    28   11   12 ar   
    29   11   46 1    
    30   12   13 ar   
    31   12   15 1    
    32   13   14 ar   
    33   13   47 1    
    34   14   48 1    
    35   15   16 am   BACKBONE|DICT|INTERRES
    36   15   49 1    
    37   16   17 2    
    38   16   18 1    
    39   18   19 1    
    40   18   50 1    
    41   18   51 1    
    42   19   20 1    
    43   20   24 1    
    44   20   21 2    
    45   21   22 1    
    46   22   23 2    
    47   23   24 1    
    48   23   25 1    
    49   25   30 ar   
    50   25   26 ar   
    51   26   27 ar   
    52   26   52 1    
    53   27   28 ar   
    54   27   53 1    
    55   28   29 ar   
    56   28   31 1    
    57   29   30 ar   
    58   29   54 1    
    59   30   55 1    
@<TRIPOS>SUBSTRUCTURE
     1 UNK         1 GROUP             0       ****    0 ROOT    
