ZINC38653209_5309
                    3D
 Schrodinger Suite 2024-2.
 48 51  0  0  1  0            999 V2000
   -0.8110   52.0097   23.3357 C   0  0  0  0  0  0
   -1.5353   51.0895   24.0903 C   0  0  0  0  0  0
   -0.9127   49.9362   24.5608 C   0  0  0  0  0  0
    0.4321   49.6976   24.2909 C   0  0  0  0  0  0
    1.1563   50.6128   23.5332 C   0  0  0  0  0  0
    0.5387   51.7739   23.0527 C   0  0  0  0  0  0
    1.3385   52.7726   22.2100 C   0  0  1  0  0  0
    0.7048   53.6214   21.9878 H   0  0  0  0  0  0
    2.5338   53.3573   22.9577 C   0  0  0  0  0  0
    2.3616   54.0364   24.1660 C   0  0  0  0  0  0
    3.4543   54.4968   24.8888 C   0  0  0  0  0  0
    4.7589   54.2702   24.4356 C   0  0  0  0  0  0
    4.9376   53.6965   23.1724 C   0  0  0  0  0  0
    3.8380   53.2315   22.4427 C   0  0  0  0  0  0
    4.0962   52.5980   21.2364 O   0  0  0  0  0  0
    3.0441   52.1742   20.4811 C   0  0  0  0  0  0
    1.7531   52.2186   20.8572 C   0  0  0  0  0  0
    0.7160   51.7883   19.9722 C   0  0  0  0  0  0
   -0.1526   51.4681   19.2786 N   0  0  0  0  0  0
    3.5043   51.6996   19.2822 N   0  0  0  0  0  0
    5.8828   54.6344   25.1492 O   0  0  0  0  0  0
    6.0461   54.4967   26.5109 C   0  0  0  0  0  0
    6.9849   55.0390   27.0836 O   0  0  0  0  0  0
    5.0905   53.5880   27.3159 C   0  0  0  0  0  0
    4.7088   54.2053   28.5539 O   0  0  0  0  0  0
    3.4044   54.0145   28.9727 C   0  0  0  0  0  0
    2.6155   55.1141   29.3364 C   0  0  0  0  0  0
    1.3220   54.9311   29.8229 C   0  0  0  0  0  0
    0.7772   53.6515   29.9115 C   0  0  0  0  0  0
    1.5575   52.5472   29.5698 C   0  0  0  0  0  0
    2.8707   52.7288   29.1325 C   0  0  0  0  0  0
    3.6391   51.6512   28.8820 F   0  0  0  0  0  0
    1.0524   51.2986   29.6814 F   0  0  0  0  0  0
   -0.4930   53.4822   30.3501 F   0  0  0  0  0  0
    0.6207   56.0057   30.2446 F   0  0  0  0  0  0
    3.1043   56.3702   29.2816 F   0  0  0  0  0  0
   -1.6230   49.0375   25.2785 F   0  0  0  0  0  0
   -1.3038   52.8964   22.9680 H   0  0  0  0  0  0
   -2.5786   51.2636   24.3103 H   0  0  0  0  0  0
    0.9070   48.8010   24.6655 H   0  0  0  0  0  0
    2.1988   50.4191   23.3221 H   0  0  0  0  0  0
    1.3680   54.1789   24.5662 H   0  0  0  0  0  0
    3.2835   55.0036   25.8273 H   0  0  0  0  0  0
    5.9334   53.5568   22.7803 H   0  0  0  0  0  0
    2.8504   51.4821   18.5448 H   0  0  0  0  0  0
    4.4438   51.3321   19.1358 H   0  0  0  0  0  0
    4.2402   53.2249   26.7482 H   0  0  0  0  0  0
    5.6562   52.6855   27.5500 H   0  0  0  0  0  0
  1  6  2  0  0  0
  1  2  1  0  0  0
  1 38  1  0  0  0
  2  3  2  0  0  0
  2 39  1  0  0  0
  3  4  1  0  0  0
  3 37  1  0  0  0
  4  5  2  0  0  0
  4 40  1  0  0  0
  5  6  1  0  0  0
  5 41  1  0  0  0
  6  7  1  0  0  0
  7  8  1  0  0  0
  7 17  1  0  0  0
  7  9  1  0  0  0
  9 14  2  0  0  0
  9 10  1  0  0  0
 10 11  2  0  0  0
 10 42  1  0  0  0
 11 12  1  0  0  0
 11 43  1  0  0  0
 12 13  2  0  0  0
 12 21  1  0  0  0
 13 14  1  0  0  0
 13 44  1  0  0  0
 14 15  1  0  0  0
 15 16  1  0  0  0
 16 17  2  0  0  0
 16 20  1  0  0  0
 17 18  1  0  0  0
 18 19  3  0  0  0
 20 45  1  0  0  0
 20 46  1  0  0  0
 21 22  1  0  0  0
 22 23  2  0  0  0
 22 24  1  0  0  0
 24 25  1  0  0  0
 24 47  1  0  0  0
 24 48  1  0  0  0
 25 26  1  0  0  0
 26 31  2  0  0  0
 26 27  1  0  0  0
 27 28  2  0  0  0
 27 36  1  0  0  0
 28 29  1  0  0  0
 28 35  1  0  0  0
 29 30  2  0  0  0
 29 34  1  0  0  0
 30 31  1  0  0  0
 30 33  1  0  0  0
 31 32  1  0  0  0
M  END
> <i_i_glide_confnum>
17

> <i_i_glide_lignum>
5310

> <i_i_glide_posenum>
350

> <i_i_glide_rotatable_bonds>
7

> <i_m_Source_File_Index>
3209

> <b_m_subgroup_collapsed>
0

> <r_i_docking_score>
-3.52634

> <r_i_glide_ecoul>
-4.09384

> <r_i_glide_eff_state_penalty>
0

> <r_i_glide_einternal>
8.52851

> <r_i_glide_emodel>
-41.6791

> <r_i_glide_energy>
-45.0614

> <r_i_glide_erotb>
0.398985

> <r_i_glide_esite>
-0.243013

> <r_i_glide_evdw>
-40.9675

> <r_i_glide_gscore>
-3.52634

> <r_i_glide_hbond>
-0.388226

> <r_i_glide_ligand_efficiency>
-0.0979538

> <r_i_glide_ligand_efficiency_ln>
-0.769352

> <r_i_glide_ligand_efficiency_sa>
-0.323436

> <r_i_glide_lipo>
-2.86028

> <r_i_glide_metal>
0

> <r_i_glide_rewards>
2.22865

> <s_i_glide_gridfile>
wee1_glide-grid

> <s_m_Source_File>
wee1_decoys_glide_SP.sdf

> <s_m_Source_Path>
/Users/zhangxujun/Desktop

> <s_m_entry_id>
3484

> <s_m_entry_name>
wee1_decoys_glide_SP.3209

> <s_m_subgroup_title>
wee1_decoys_glide_SP

> <s_m_subgroupid>
wee1_decoys_glide_SP


$$$$
