@<TRIPOS>MOLECULE
ZINC36286258_445
65   69    1
SMALL
USER_CHARGES


@<TRIPOS>ATOM
      1 C1          0.7021   54.4968   29.7394 C.3       1 UNK         0.0000 
      2 C2          1.3643   53.1180   29.5306 C.3       1 UNK         0.0000 
      3 C3          2.6035   53.1492   28.6240 C.3       1 UNK         0.0000 
      4 H4          3.2752   52.3447   28.9312 H         1 UNK         0.0000 
      5 C5          2.0567   52.7441   27.2718 C.3       1 UNK         0.0000 
      6 N6          0.7919   52.0723   27.5078 N.am      1 UNK         0.0000 
      7 C7          0.3352   52.2345   28.7766 C.2       1 UNK         0.0000 
      8 O8         -0.6922   51.7907   29.2840 O.2       1 UNK         0.0000 
      9 C9          0.2439   51.1497   26.4799 C.3       1 UNK         0.0000 
     10 C10         0.6920   51.4130   24.9929 C.3       1 UNK         0.0000 
     11 H11         1.7507   51.6639   24.9269 H         1 UNK         0.0000 
     12 C12        -0.0826   52.5999   24.3579 C.3       1 UNK         0.0000 
     13 C13        -1.5988   52.2936   24.3759 C.3       1 UNK         0.0000 
     14 C14        -2.0603   52.0742   25.8386 C.3       1 UNK         0.0000 
     15 C15        -1.2952   50.8717   26.4453 C.3       1 UNK         0.0000 
     16 H16        -1.6831   50.6543   27.4388 H         1 UNK         0.0000 
     17 C17        -1.5624   49.6003   25.5984 C.3       1 UNK         0.0000 
     18 C18        -1.0882   49.7854   24.1140 C.3       1 UNK         0.0000 
     19 C19         0.4386   50.1331   24.1515 C.3       1 UNK         0.0000 
     20 C20        -1.8688   51.0157   23.5338 C.3       1 UNK         0.0000 
     21 C21        -1.3332   48.5140   23.2277 C.2       1 UNK         0.0000 
     22 N22        -1.8850   47.4904   23.7660 N.2       1 UNK         0.0000 
     23 O23        -2.0968   46.3932   22.9016 O.3       1 UNK         0.0000 
     24 N24        -0.9011   48.6756   21.9180 N.pl3     1 UNK         0.0000 
     25 C25         3.4596   54.4499   28.6125 C.3       1 UNK         0.0000 
     26 O26         4.7586   54.3016   28.0138 O.3       1 UNK         0.0000 
     27 C27         4.9251   54.3560   26.6405 C.ar      1 UNK         0.0000 
     28 C28         6.1951   54.1419   26.1002 C.ar      1 UNK         0.0000 
     29 C29         6.3384   54.0968   24.7090 C.ar      1 UNK         0.0000 
     30 C30         5.2108   54.2336   23.8889 C.ar      1 UNK         0.0000 
     31 C31         3.9855   54.4965   24.5054 C.ar      1 UNK         0.0000 
     32 N32         3.8435   54.5876   25.8475 N.ar      1 UNK         0.0000 
     33 C33         5.3098   54.0967   22.3754 C.3       1 UNK         0.0000 
     34 F34         6.3254   54.8251   21.9121 F         1 UNK         0.0000 
     35 F35         5.5049   52.8139   22.0812 F         1 UNK         0.0000 
     36 F36         4.1940   54.4924   21.7593 F         1 UNK         0.0000 
     37 C37         1.6834   52.4577   30.8921 C.3       1 UNK         0.0000 
     38 H38         1.3777   55.2245   30.1859 H         1 UNK         0.0000 
     39 H39         0.3422   54.8971   28.7919 H         1 UNK         0.0000 
     40 H40        -0.1613   54.4333   30.4041 H         1 UNK         0.0000 
     41 H41         2.7532   52.1013   26.7337 H         1 UNK         0.0000 
     42 H42         1.7805   53.6161   26.6792 H         1 UNK         0.0000 
     43 H43         0.7129   50.2130   26.7859 H         1 UNK         0.0000 
     44 H44         0.1399   53.5302   24.8813 H         1 UNK         0.0000 
     45 H45         0.2545   52.7596   23.3311 H         1 UNK         0.0000 
     46 H46        -2.1444   53.1367   23.9476 H         1 UNK         0.0000 
     47 H47        -3.1340   51.8899   25.8708 H         1 UNK         0.0000 
     48 H48        -1.8857   52.9683   26.4391 H         1 UNK         0.0000 
     49 H49        -2.6283   49.3612   25.6363 H         1 UNK         0.0000 
     50 H50        -1.0575   48.7498   26.0632 H         1 UNK         0.0000 
     51 H51         1.0118   49.3016   24.5696 H         1 UNK         0.0000 
     52 H52         0.8353   50.2869   23.1468 H         1 UNK         0.0000 
     53 H53        -1.5834   51.2104   22.4994 H         1 UNK         0.0000 
     54 H54        -2.9397   50.8095   23.5128 H         1 UNK         0.0000 
     55 H55        -1.7571   46.7181   22.0670 H         1 UNK         0.0000 
     56 H56        -0.9812   47.9575   21.2149 H         1 UNK         0.0000 
     57 H57        -0.4277   49.5300   21.6613 H         1 UNK         0.0000 
     58 H58         2.9128   55.2900   28.1781 H         1 UNK         0.0000 
     59 H59         3.6566   54.7409   29.6442 H         1 UNK         0.0000 
     60 H60         7.0402   53.9770   26.7514 H         1 UNK         0.0000 
     61 H61         7.3080   53.9051   24.2716 H         1 UNK         0.0000 
     62 H62         3.0814   54.6361   23.9295 H         1 UNK         0.0000 
     63 H63         2.5592   52.8970   31.3599 H         1 UNK         0.0000 
     64 H64         0.8521   52.5362   31.5947 H         1 UNK         0.0000 
     65 H65         1.9029   51.3986   30.7804 H         1 UNK         0.0000 
@<TRIPOS>BOND
     1    1    2 1    
     2    1   38 1    
     3    1   39 1    
     4    1   40 1    
     5    2    7 1    
     6    2    3 1    
     7    2   37 1    
     8    3    4 1    
     9    3    5 1    
    10    3   25 1    
    11    5    6 1    
    12    5   41 1    
    13    5   42 1    
    14    6    7 am   BACKBONE|DICT|INTERRES
    15    6    9 1    
    16    7    8 2    
    17    9   15 1    
    18    9   10 1    
    19    9   43 1    
    20   10   11 1    
    21   10   19 1    
    22   10   12 1    
    23   12   13 1    
    24   12   44 1    
    25   12   45 1    
    26   13   20 1    
    27   13   14 1    
    28   13   46 1    
    29   14   15 1    
    30   14   47 1    
    31   14   48 1    
    32   15   16 1    
    33   15   17 1    
    34   17   18 1    
    35   17   49 1    
    36   17   50 1    
    37   18   19 1    
    38   18   20 1    
    39   18   21 1    
    40   19   51 1    
    41   19   52 1    
    42   20   53 1    
    43   20   54 1    
    44   21   22 2    
    45   21   24 1    
    46   22   23 1    
    47   23   55 1    
    48   24   56 1    
    49   24   57 1    
    50   25   26 1    
    51   25   58 1    
    52   25   59 1    
    53   26   27 1    
    54   27   32 ar   
    55   27   28 ar   
    56   28   29 ar   
    57   28   60 1    
    58   29   30 ar   
    59   29   61 1    
    60   30   31 ar   
    61   30   33 1    
    62   31   32 ar   
    63   31   62 1    
    64   33   34 1    
    65   33   35 1    
    66   33   36 1    
    67   37   63 1    
    68   37   64 1    
    69   37   65 1    
@<TRIPOS>SUBSTRUCTURE
     1 UNK         1 GROUP             0       ****    0 ROOT    
