@<TRIPOS>MOLECULE
ZINC09159190_1166
59   64    1
SMALL
USER_CHARGES


@<TRIPOS>ATOM
      1 C1          7.0896   54.2895   23.8481 C.3       1 UNK         0.0000 
      2 O2          6.0591   54.4243   22.8749 O.3       1 UNK         0.0000 
      3 C3          6.3648   54.9016   21.6122 C.ar      1 UNK         0.0000 
      4 C4          7.5637   55.5696   21.3167 C.ar      1 UNK         0.0000 
      5 C5          7.8337   56.0367   20.0315 C.ar      1 UNK         0.0000 
      6 C6          6.8836   55.8893   19.0258 C.ar      1 UNK         0.0000 
      7 C7          5.6736   55.2573   19.3001 C.ar      1 UNK         0.0000 
      8 C8          5.4215   54.7465   20.5771 C.ar      1 UNK         0.0000 
      9 N9          4.1976   54.0971   20.7678 N.am      1 UNK         0.0000 
     10 C10         4.0470   52.8447   21.2384 C.2       1 UNK         0.0000 
     11 O11         4.9810   52.0975   21.5487 O.2       1 UNK         0.0000 
     12 C12         2.5805   52.3703   21.3615 C.3       1 UNK         0.0000 
     13 H13         2.0824   52.5611   20.4074 H         1 UNK         0.0000 
     14 C14         1.7289   52.9362   22.5377 C.3       1 UNK         0.0000 
     15 H15         1.1064   53.7407   22.1533 H         1 UNK         0.0000 
     16 C16         0.9068   51.8144   23.0758 C.3       1 UNK         0.0000 
     17 H17        -0.1398   51.9685   22.8061 H         1 UNK         0.0000 
     18 C18         1.4520   50.4630   22.5325 C.3       1 UNK         0.0000 
     19 H19         2.0068   49.8892   23.2821 H         1 UNK         0.0000 
     20 C20         2.6725   50.1001   20.2589 C.2       1 UNK         0.0000 
     21 C21         1.7401   49.2145   19.8933 C.2       1 UNK         0.0000 
     22 C22         0.5602   48.9029   20.6974 C.ar      1 UNK         0.0000 
     23 C23         0.3949   49.4985   21.9595 C.ar      1 UNK         0.0000 
     24 C24        -0.7470   49.1588   22.7016 C.ar      1 UNK         0.0000 
     25 C25        -1.7111   48.2867   22.1961 C.ar      1 UNK         0.0000 
     26 C26        -1.5444   47.7288   20.9310 C.ar      1 UNK         0.0000 
     27 C27        -0.4102   48.0371   20.1818 C.ar      1 UNK         0.0000 
     28 C28         1.0468   51.9208   24.5876 C.2       1 UNK         0.0000 
     29 O29         0.4272   51.1959   25.3642 O.2       1 UNK         0.0000 
     30 N30         1.9266   52.9225   24.8938 N.am      1 UNK         0.0000 
     31 C31         2.4030   53.5379   23.7714 C.2       1 UNK         0.0000 
     32 O32         3.1694   54.4966   23.7163 O.2       1 UNK         0.0000 
     33 C33         2.3040   53.2944   26.2287 C.ar      1 UNK         0.0000 
     34 C34         3.6205   53.6991   26.5203 C.ar      1 UNK         0.0000 
     35 C35         3.9812   54.0948   27.8067 C.ar      1 UNK         0.0000 
     36 C36         3.0331   54.0851   28.8233 C.ar      1 UNK         0.0000 
     37 C37         1.7302   53.6711   28.5664 C.ar      1 UNK         0.0000 
     38 C38         1.3690   53.2801   27.2800 C.ar      1 UNK         0.0000 
     39 F39         3.3804   54.4775   30.0691 F         1 UNK         0.0000 
     40 Cl40        7.2057   56.4901   17.4402 Cl        1 UNK         0.0000 
     41 H41         6.6804   53.8078   24.7363 H         1 UNK         0.0000 
     42 H42         7.9011   53.6587   23.4810 H         1 UNK         0.0000 
     43 H43         7.4908   55.2557   24.1561 H         1 UNK         0.0000 
     44 H44         8.3055   55.7261   22.0807 H         1 UNK         0.0000 
     45 H45         8.7783   56.5166   19.8179 H         1 UNK         0.0000 
     46 H46         4.9457   55.1414   18.5087 H         1 UNK         0.0000 
     47 H47         3.3729   54.5699   20.4183 H         1 UNK         0.0000 
     48 H48         3.5343   50.3203   19.6337 H         1 UNK         0.0000 
     49 H49         1.8769   48.7162   18.9427 H         1 UNK         0.0000 
     50 H50        -0.8941   49.5780   23.6865 H         1 UNK         0.0000 
     51 H51        -2.5864   48.0490   22.7874 H         1 UNK         0.0000 
     52 H52        -2.2929   47.0596   20.5319 H         1 UNK         0.0000 
     53 H53        -0.2888   47.5990   19.2012 H         1 UNK         0.0000 
     54 H54         4.3843   53.7047   25.7564 H         1 UNK         0.0000 
     55 H55         4.9913   54.4098   28.0175 H         1 UNK         0.0000 
     56 H56         1.0003   53.6579   29.3622 H         1 UNK         0.0000 
     57 H57         0.3458   52.9778   27.1133 H         1 UNK         0.0000 
     58 N58         2.5926   50.8374   21.5338 N.4       1 UNK         0.0000 
     59 H59         3.4527   50.6434   22.0300 H         1 UNK         0.0000 
@<TRIPOS>BOND
     1    1    2 1    
     2    1   41 1    
     3    1   42 1    
     4    1   43 1    
     5    2    3 1    
     6    3    8 ar   
     7    3    4 ar   
     8    4    5 ar   
     9    4   44 1    
    10    5    6 ar   
    11    5   45 1    
    12    6    7 ar   
    13    6   40 1    
    14    7    8 ar   
    15    7   46 1    
    16    8    9 1    
    17    9   10 am   BACKBONE|DICT|INTERRES
    18    9   47 1    
    19   10   11 2    
    20   10   12 1    
    21   12   13 1    
    22   12   14 1    
    23   12   58 1    
    24   14   15 1    
    25   14   31 1    
    26   14   16 1    
    27   16   17 1    
    28   16   18 1    
    29   16   28 1    
    30   18   19 1    
    31   18   23 1    
    32   18   58 1    
    33   20   21 2    
    34   20   48 1    
    35   20   58 1    
    36   21   22 1    
    37   21   49 1    
    38   22   27 ar   
    39   22   23 ar   
    40   23   24 ar   
    41   24   25 ar   
    42   24   50 1    
    43   25   26 ar   
    44   25   51 1    
    45   26   27 ar   
    46   26   52 1    
    47   27   53 1    
    48   28   29 2    
    49   28   30 am   BACKBONE|DICT|INTERRES
    50   30   31 am   BACKBONE|DICT|INTERRES
    51   30   33 1    
    52   31   32 2    
    53   33   38 ar   
    54   33   34 ar   
    55   34   35 ar   
    56   34   54 1    
    57   35   36 ar   
    58   35   55 1    
    59   36   37 ar   
    60   36   39 1    
    61   37   38 ar   
    62   37   56 1    
    63   38   57 1    
    64   58   59 1    
@<TRIPOS>SUBSTRUCTURE
     1 UNK         1 GROUP             0       ****    0 ROOT    
