@<TRIPOS>MOLECULE
ZINC59331746_709
59   63    1
SMALL
USER_CHARGES


@<TRIPOS>ATOM
      1 C1         -4.2030   45.2975   26.5167 C.ar      1 UNK         0.0000 
      2 C2         -4.8938   45.2960   25.3086 C.ar      1 UNK         0.0000 
      3 C3         -4.7689   46.3799   24.4423 C.ar      1 UNK         0.0000 
      4 C4         -3.9559   47.4754   24.7753 C.ar      1 UNK         0.0000 
      5 C5         -3.2952   47.4727   26.0125 C.ar      1 UNK         0.0000 
      6 C6         -3.4081   46.3836   26.8718 C.ar      1 UNK         0.0000 
      7 C7         -3.8981   48.6701   23.8393 C.2       1 UNK         0.0000 
      8 O8         -4.9297   48.9528   23.2202 O.2       1 UNK         0.0000 
      9 N9         -2.7514   49.4060   23.7119 N.am      1 UNK         0.0000 
     10 C10        -2.8414   50.5988   22.8426 C.3       1 UNK         0.0000 
     11 C11        -1.6793   51.5746   23.1168 C.3       1 UNK         0.0000 
     12 N12        -0.3551   50.9533   23.1425 N.pl3     1 UNK         0.0000 
     13 C13        -0.3148   49.7953   24.0392 C.3       1 UNK         0.0000 
     14 C14        -1.4305   48.7476   23.8088 C.3       1 UNK         0.0000 
     15 C15         0.7888   51.7159   22.9448 C.ar      1 UNK         0.0000 
     16 C16         1.0103   52.8768   23.7002 C.ar      1 UNK         0.0000 
     17 C17         2.1602   53.6443   23.5129 C.ar      1 UNK         0.0000 
     18 C18         3.1183   53.2487   22.5700 C.ar      1 UNK         0.0000 
     19 C19         2.8847   52.1211   21.7805 C.ar      1 UNK         0.0000 
     20 C20         1.7358   51.3502   21.9714 C.ar      1 UNK         0.0000 
     21 Cl21        1.5281   49.9365   20.9902 Cl        1 UNK         0.0000 
     22 N22         4.3294   53.9342   22.3841 N.pl3     1 UNK         0.0000 
     23 C23         5.2658   54.3049   23.3080 C.2       1 UNK         0.0000 
     24 S24         6.7041   54.8968   22.7059 S.2       1 UNK         0.0000 
     25 N25         4.9135   54.1400   24.6246 N.am      1 UNK         0.0000 
     26 C26         5.5459   54.3672   25.8025 C.2       1 UNK         0.0000 
     27 O27         6.6712   54.8480   25.9612 O.2       1 UNK         0.0000 
     28 C28         4.7439   53.9574   26.9341 C.2       1 UNK         0.0000 
     29 C29         5.0844   53.7839   28.2751 C.2       1 UNK         0.0000 
     30 C30         3.9061   53.3073   28.9344 C.ar      1 UNK         0.0000 
     31 C31         3.5617   52.8955   30.2332 C.ar      1 UNK         0.0000 
     32 C32         2.2451   52.4963   30.4875 C.ar      1 UNK         0.0000 
     33 C33         1.2790   52.4926   29.4793 C.ar      1 UNK         0.0000 
     34 C34         1.5891   52.8875   28.1772 C.ar      1 UNK         0.0000 
     35 C35         2.9082   53.2877   27.9342 C.ar      1 UNK         0.0000 
     36 O36         3.4125   53.6898   26.7339 O.3       1 UNK         0.0000 
     37 H37        -4.2911   44.4645   27.1991 H         1 UNK         0.0000 
     38 H38        -5.5304   44.4635   25.0471 H         1 UNK         0.0000 
     39 H39        -5.3178   46.3692   23.5115 H         1 UNK         0.0000 
     40 H40        -2.6982   48.3155   26.3352 H         1 UNK         0.0000 
     41 H41        -2.8928   46.3967   27.8220 H         1 UNK         0.0000 
     42 H42        -3.7598   51.1620   23.0045 H         1 UNK         0.0000 
     43 H43        -2.7333   50.2954   21.8011 H         1 UNK         0.0000 
     44 H44        -1.8319   51.9947   24.1133 H         1 UNK         0.0000 
     45 H45        -1.6989   52.3964   22.4004 H         1 UNK         0.0000 
     46 H46         0.6643   49.3133   23.9933 H         1 UNK         0.0000 
     47 H47        -0.4378   50.1947   25.0478 H         1 UNK         0.0000 
     48 H48        -1.1908   48.2879   22.8487 H         1 UNK         0.0000 
     49 H49        -1.3376   48.0310   24.6221 H         1 UNK         0.0000 
     50 H50         0.2888   53.1847   24.4417 H         1 UNK         0.0000 
     51 H51         2.3014   54.5355   24.1085 H         1 UNK         0.0000 
     52 H52         3.6072   51.8172   21.0345 H         1 UNK         0.0000 
     53 H53         4.6148   54.0261   21.4192 H         1 UNK         0.0000 
     54 H54         4.0032   53.7262   24.7521 H         1 UNK         0.0000 
     55 H55         6.0656   53.9491   28.6996 H         1 UNK         0.0000 
     56 H56         4.3008   52.8850   31.0214 H         1 UNK         0.0000 
     57 H57         1.9622   52.1807   31.4821 H         1 UNK         0.0000 
     58 H58         0.2737   52.1713   29.7161 H         1 UNK         0.0000 
     59 H59         0.8494   52.8782   27.3910 H         1 UNK         0.0000 
@<TRIPOS>BOND
     1    1    6 ar   
     2    1    2 ar   
     3    1   37 1    
     4    2    3 ar   
     5    2   38 1    
     6    3    4 ar   
     7    3   39 1    
     8    4    5 ar   
     9    4    7 1    
    10    5    6 ar   
    11    5   40 1    
    12    6   41 1    
    13    7    8 2    
    14    7    9 am   BACKBONE|DICT|INTERRES
    15    9   14 1    
    16    9   10 1    
    17   10   11 1    
    18   10   42 1    
    19   10   43 1    
    20   11   12 1    
    21   11   44 1    
    22   11   45 1    
    23   12   13 1    
    24   12   15 1    
    25   13   14 1    
    26   13   46 1    
    27   13   47 1    
    28   14   48 1    
    29   14   49 1    
    30   15   20 ar   
    31   15   16 ar   
    32   16   17 ar   
    33   16   50 1    
    34   17   18 ar   
    35   17   51 1    
    36   18   19 ar   
    37   18   22 1    
    38   19   20 ar   
    39   19   52 1    
    40   20   21 1    
    41   22   23 1    
    42   22   53 1    
    43   23   24 2    
    44   23   25 am   BACKBONE|DICT|INTERRES
    45   25   26 am   BACKBONE|DICT|INTERRES
    46   25   54 1    
    47   26   27 2    
    48   26   28 1    
    49   28   36 1    
    50   28   29 2    
    51   29   30 1    
    52   29   55 1    
    53   30   35 ar   
    54   30   31 ar   
    55   31   32 ar   
    56   31   56 1    
    57   32   33 ar   
    58   32   57 1    
    59   33   34 ar   
    60   33   58 1    
    61   34   35 ar   
    62   34   59 1    
    63   35   36 1    
@<TRIPOS>SUBSTRUCTURE
     1 UNK         1 GROUP             0       ****    0 ROOT    
