ZINC21867849_5637
                    3D
 Schrodinger Suite 2024-2.
 52 56  0  0  1  0            999 V2000
    7.3338   57.2197   17.2093 C   0  0  0  0  0  0
    8.0127   56.3652   18.2909 C   0  0  2  0  0  0
    8.7973   56.9820   18.7386 H   0  0  0  0  0  0
    8.6656   55.1125   17.6893 C   0  0  0  0  0  0
    7.8914   53.9864   17.3763 C   0  0  0  0  0  0
    8.4962   52.8392   16.8687 C   0  0  0  0  0  0
    9.8731   52.8166   16.6692 C   0  0  0  0  0  0
   10.6518   53.9293   16.9785 C   0  0  0  0  0  0
   10.0499   55.0749   17.4931 C   0  0  0  0  0  0
   10.4608   51.7036   16.1752 F   0  0  0  0  0  0
    7.0520   56.0406   19.3477 N   0  0  0  0  0  0
    7.3800   55.6072   20.5760 C   0  0  0  0  0  0
    8.5237   55.6960   21.0222 O   0  0  0  0  0  0
    6.2627   55.0052   21.3988 C   0  0  0  0  0  0
    5.0835   54.5421   20.7959 C   0  0  0  0  0  0
    4.0109   54.0970   21.5640 C   0  0  0  0  0  0
    4.0964   54.0974   22.9590 C   0  0  0  0  0  0
    5.3062   54.4864   23.5775 C   0  0  0  0  0  0
    6.3856   54.9028   22.7928 C   0  0  0  0  0  0
    5.3007   54.4514   24.9923 N   0  0  0  0  0  0
    4.1832   54.0513   25.7061 C   0  0  0  0  0  0
    4.5988   54.0383   27.0364 C   0  0  0  0  0  0
    5.8512   54.4792   27.0997 N   0  0  0  0  0  0
    6.3121   54.7450   25.8216 N   0  0  0  0  0  0
    3.8576   53.5435   28.2405 C   0  0  0  0  0  0
    4.5588   52.9337   29.2817 C   0  0  0  0  0  0
    3.8938   52.4187   30.3925 C   0  0  0  0  0  0
    2.5056   52.4972   30.4717 C   0  0  0  0  0  0
    1.7804   53.1009   29.4383 C   0  0  0  0  0  0
    2.4645   53.6226   28.3294 C   0  0  0  0  0  0
    0.2581   53.1740   29.5132 C   0  0  0  0  0  0
   -0.2496   52.0792   30.0793 F   0  0  0  0  0  0
   -0.0950   54.2255   30.2488 F   0  0  0  0  0  0
   -0.2782   53.2992   28.2985 F   0  0  0  0  0  0
    3.0168   53.7007   25.0968 N   0  5  0  0  0  0
    2.8728   53.7093   23.7855 C   0  0  0  0  0  0
    1.8173   53.4296   23.2144 O   0  0  0  0  0  0
    8.0490   57.5283   16.4463 H   0  0  0  0  0  0
    6.5281   56.6788   16.7121 H   0  0  0  0  0  0
    6.9072   58.1286   17.6337 H   0  0  0  0  0  0
    6.8220   53.9930   17.5302 H   0  0  0  0  0  0
    7.8997   51.9681   16.6366 H   0  0  0  0  0  0
   11.7208   53.8936   16.8297 H   0  0  0  0  0  0
   10.6652   55.9242   17.7503 H   0  0  0  0  0  0
    6.0826   55.9973   19.0713 H   0  0  0  0  0  0
    4.9594   54.5536   19.7225 H   0  0  0  0  0  0
    3.1057   53.7902   21.0585 H   0  0  0  0  0  0
    7.2985   55.2220   23.2816 H   0  0  0  0  0  0
    5.6329   52.8689   29.2274 H   0  0  0  0  0  0
    4.4540   51.9550   31.1927 H   0  0  0  0  0  0
    1.9936   52.0965   31.3370 H   0  0  0  0  0  0
    1.9111   54.0876   27.5268 H   0  0  0  0  0  0
  1  2  1  0  0  0
  1 38  1  0  0  0
  1 39  1  0  0  0
  1 40  1  0  0  0
  2  3  1  0  0  0
  2  4  1  0  0  0
  2 11  1  0  0  0
  4  9  2  0  0  0
  4  5  1  0  0  0
  5  6  2  0  0  0
  5 41  1  0  0  0
  6  7  1  0  0  0
  6 42  1  0  0  0
  7  8  2  0  0  0
  7 10  1  0  0  0
  8  9  1  0  0  0
  8 43  1  0  0  0
  9 44  1  0  0  0
 11 12  1  0  0  0
 11 45  1  0  0  0
 12 13  2  0  0  0
 12 14  1  0  0  0
 14 19  2  0  0  0
 14 15  1  0  0  0
 15 16  2  0  0  0
 15 46  1  0  0  0
 16 17  1  0  0  0
 16 47  1  0  0  0
 17 36  1  0  0  0
 17 18  2  0  0  0
 18 19  1  0  0  0
 18 20  1  0  0  0
 19 48  1  0  0  0
 20 24  1  0  0  0
 20 21  1  0  0  0
 21 22  2  0  0  0
 21 35  1  0  0  0
 22 23  1  0  0  0
 22 25  1  0  0  0
 23 24  2  0  0  0
 25 30  2  0  0  0
 25 26  1  0  0  0
 26 27  2  0  0  0
 26 49  1  0  0  0
 27 28  1  0  0  0
 27 50  1  0  0  0
 28 29  2  0  0  0
 28 51  1  0  0  0
 29 30  1  0  0  0
 29 31  1  0  0  0
 30 52  1  0  0  0
 31 32  1  0  0  0
 31 33  1  0  0  0
 31 34  1  0  0  0
 35 36  1  0  0  0
 36 37  2  0  0  0
M  CHG  1  35  -1
M  END
> <i_i_glide_confnum>
7

> <i_i_glide_lignum>
5638

> <i_i_glide_posenum>
140

> <i_i_glide_rotatable_bonds>
6

> <i_m_Source_File_Index>
5746

> <b_m_subgroup_collapsed>
0

> <r_i_docking_score>
-6.79941

> <r_i_glide_ecoul>
-2.58943

> <r_i_glide_eff_state_penalty>
0

> <r_i_glide_einternal>
2.16551

> <r_i_glide_emodel>
-74.7575

> <r_i_glide_energy>
-53.968

> <r_i_glide_erotb>
0.333454

> <r_i_glide_esite>
-0.0552779

> <r_i_glide_evdw>
-51.3786

> <r_i_glide_gscore>
-6.79941

> <r_i_glide_hbond>
0

> <r_i_glide_ligand_efficiency>
-0.188872

> <r_i_glide_ligand_efficiency_ln>
-1.48345

> <r_i_glide_ligand_efficiency_sa>
-0.623643

> <r_i_glide_lipo>
-2.93528

> <r_i_glide_metal>
0

> <r_i_glide_rewards>
-1.18496

> <s_i_glide_gridfile>
wee1_glide-grid

> <s_m_Source_File>
wee1_decoys_glide_SP.sdf

> <s_m_Source_Path>
/Users/zhangxujun/Desktop

> <s_m_entry_id>
6021

> <s_m_entry_name>
wee1_decoys_glide_SP.5746

> <s_m_subgroup_title>
wee1_decoys_glide_SP

> <s_m_subgroupid>
wee1_decoys_glide_SP


$$$$
