@<TRIPOS>MOLECULE
ZINC30974518_1129
53   56    1
SMALL
USER_CHARGES


@<TRIPOS>ATOM
      1 C1          3.3095   55.6694   16.6774 C.3       1 UNK         0.0000 
      2 C2          4.4690   56.0124   17.5953 C.ar      1 UNK         0.0000 
      3 C3          5.3560   57.0368   17.2573 C.ar      1 UNK         0.0000 
      4 C4          6.4240   57.3408   18.0987 C.ar      1 UNK         0.0000 
      5 C5          6.6038   56.6287   19.2846 C.ar      1 UNK         0.0000 
      6 C6          5.7152   55.6080   19.6520 C.ar      1 UNK         0.0000 
      7 C7          4.6607   55.2962   18.7787 C.ar      1 UNK         0.0000 
      8 C8          5.8530   54.8967   20.9701 C.2       1 UNK         0.0000 
      9 N9          6.7044   55.2969   21.8984 N.2       1 UNK         0.0000 
     10 C10         6.4559   54.4758   22.8783 C.2       1 UNK         0.0000 
     11 O11         5.5168   53.5444   22.5858 O.3       1 UNK         0.0000 
     12 N12         5.1037   53.8577   21.2931 N.2       1 UNK         0.0000 
     13 C13         7.1042   54.4543   24.2454 C.3       1 UNK         0.0000 
     14 N14         6.0633   54.1024   25.3372 N.4       1 UNK         0.0000 
     15 C15         4.9568   55.1802   25.4089 C.3       1 UNK         0.0000 
     16 C16         3.8902   54.6809   26.3877 C.3       1 UNK         0.0000 
     17 C17         4.4889   54.3699   27.7933 C.3       1 UNK         0.0000 
     18 C18         5.6932   53.4110   27.7253 C.3       1 UNK         0.0000 
     19 C19         6.7412   53.9155   26.7191 C.3       1 UNK         0.0000 
     20 C20         3.4004   53.7721   28.7157 C.2       1 UNK         0.0000 
     21 O21         3.3440   54.0965   29.9024 O.2       1 UNK         0.0000 
     22 N22         2.5487   52.9330   28.0970 N.am      1 UNK         0.0000 
     23 C23         1.2966   52.4510   28.4759 C.ar      1 UNK         0.0000 
     24 C24         0.7849   52.4968   29.7795 C.ar      1 UNK         0.0000 
     25 C25        -0.5093   52.0405   30.0228 C.ar      1 UNK         0.0000 
     26 C26        -1.2924   51.5456   28.9757 C.ar      1 UNK         0.0000 
     27 C27        -0.7807   51.4973   27.6847 C.ar      1 UNK         0.0000 
     28 C28         0.5074   51.9503   27.4317 C.ar      1 UNK         0.0000 
     29 F29         0.9752   51.9221   26.1594 F         1 UNK         0.0000 
     30 Br30       -3.0562   50.8967   29.2815 Br        1 UNK         0.0000 
     31 H31         3.5251   55.9474   15.6452 H         1 UNK         0.0000 
     32 H32         3.1223   54.5949   16.6788 H         1 UNK         0.0000 
     33 H33         2.4015   56.1771   17.0019 H         1 UNK         0.0000 
     34 H34         5.2180   57.6017   16.3468 H         1 UNK         0.0000 
     35 H35         7.1065   58.1351   17.8316 H         1 UNK         0.0000 
     36 H36         7.4371   56.8849   19.9204 H         1 UNK         0.0000 
     37 H37         3.9555   54.5170   19.0319 H         1 UNK         0.0000 
     38 H38         7.5041   55.4286   24.5261 H         1 UNK         0.0000 
     39 H39         7.8897   53.6980   24.2983 H         1 UNK         0.0000 
     40 H40         5.4276   56.1197   25.6826 H         1 UNK         0.0000 
     41 H41         4.5109   55.2814   24.4183 H         1 UNK         0.0000 
     42 H42         3.5116   53.7836   25.8940 H         1 UNK         0.0000 
     43 H43         3.1047   55.4316   26.4604 H         1 UNK         0.0000 
     44 H44         4.7868   55.2962   28.2815 H         1 UNK         0.0000 
     45 H45         6.1930   53.3196   28.6919 H         1 UNK         0.0000 
     46 H46         5.3858   52.4432   27.3408 H         1 UNK         0.0000 
     47 H47         7.1925   54.8635   27.0176 H         1 UNK         0.0000 
     48 H48         7.5044   53.1485   26.5986 H         1 UNK         0.0000 
     49 H49         2.7727   52.7206   27.1370 H         1 UNK         0.0000 
     50 H50         1.3643   52.8704   30.6095 H         1 UNK         0.0000 
     51 H51        -0.8956   52.0559   31.0303 H         1 UNK         0.0000 
     52 H52        -1.3791   51.0938   26.8812 H         1 UNK         0.0000 
     53 H53         5.6444   53.2203   25.0639 H         1 UNK         0.0000 
@<TRIPOS>BOND
     1    1    2 1    
     2    1   31 1    
     3    1   32 1    
     4    1   33 1    
     5    2    7 ar   
     6    2    3 ar   
     7    3    4 ar   
     8    3   34 1    
     9    4    5 ar   
    10    4   35 1    
    11    5    6 ar   
    12    5   36 1    
    13    6    7 ar   
    14    6    8 1    
    15    7   37 1    
    16    8   12 2    
    17    8    9 1    
    18    9   10 2    
    19   10   11 1    
    20   10   13 1    
    21   11   12 1    
    22   13   14 1    
    23   13   38 1    
    24   13   39 1    
    25   14   19 1    
    26   14   15 1    
    27   14   53 1    
    28   15   16 1    
    29   15   40 1    
    30   15   41 1    
    31   16   17 1    
    32   16   42 1    
    33   16   43 1    
    34   17   18 1    
    35   17   20 1    
    36   17   44 1    
    37   18   19 1    
    38   18   45 1    
    39   18   46 1    
    40   19   47 1    
    41   19   48 1    
    42   20   21 2    
    43   20   22 am   BACKBONE|DICT|INTERRES
    44   22   23 1    
    45   22   49 1    
    46   23   28 ar   
    47   23   24 ar   
    48   24   25 ar   
    49   24   50 1    
    50   25   26 ar   
    51   25   51 1    
    52   26   27 ar   
    53   26   30 1    
    54   27   28 ar   
    55   27   52 1    
    56   28   29 1    
@<TRIPOS>SUBSTRUCTURE
     1 UNK         1 GROUP             0       ****    0 ROOT    
