@<TRIPOS>MOLECULE
ZINC59170417_5720
68   71    1
SMALL
USER_CHARGES


@<TRIPOS>ATOM
      1 C1         -0.0510   51.3737   28.0856 C.3       1 UNK         0.0000 
      2 C2          0.8048   52.2005   29.0630 C.3       1 UNK         0.0000 
      3 N3          1.1688   53.5623   28.6266 N.pl3     1 UNK         0.0000 
      4 C4          1.4641   54.4521   29.7639 C.3       1 UNK         0.0000 
      5 C5          1.5597   55.9555   29.4299 C.3       1 UNK         0.0000 
      6 C6          2.0162   53.6279   27.4874 C.ar      1 UNK         0.0000 
      7 C7          3.3524   54.0667   27.5702 C.ar      1 UNK         0.0000 
      8 C8          4.1349   54.2313   26.4252 C.ar      1 UNK         0.0000 
      9 C9          3.5834   53.9403   25.1802 C.ar      1 UNK         0.0000 
     10 C10         4.2782   54.0982   23.9026 C.2       1 UNK         0.0000 
     11 C11         3.7503   53.7499   22.6939 C.2       1 UNK         0.0000 
     12 C12         2.4752   53.1223   22.7378 C.2       1 UNK         0.0000 
     13 N13         1.9051   52.5001   21.7071 N.pl3     1 UNK         0.0000 
     14 N14         0.7557   51.8610   21.6710 N.pl3     1 UNK         0.0000 
     15 S15         0.0580   51.7006   20.0662 S.o2      1 UNK         0.0000 
     16 O16        -1.3847   51.9327   20.2011 O.2       1 UNK         0.0000 
     17 O17         0.8592   52.4966   19.1289 O.2       1 UNK         0.0000 
     18 C18         0.3045   49.9824   19.6332 C.ar      1 UNK         0.0000 
     19 C19        -0.6180   49.0229   20.0555 C.ar      1 UNK         0.0000 
     20 C20        -0.4509   47.6914   19.6829 C.ar      1 UNK         0.0000 
     21 C21         0.6392   47.3195   18.8944 C.ar      1 UNK         0.0000 
     22 C22         1.5725   48.2772   18.4897 C.ar      1 UNK         0.0000 
     23 C23         1.4077   49.6082   18.8594 C.ar      1 UNK         0.0000 
     24 C24         0.7844   45.8759   18.4488 C.3       1 UNK         0.0000 
     25 O25         1.7783   53.0887   23.8443 O.3       1 UNK         0.0000 
     26 C26         2.2900   53.4416   25.0839 C.ar      1 UNK         0.0000 
     27 C27         1.5050   53.2957   26.2225 C.ar      1 UNK         0.0000 
     28 C28         4.5619   53.9863   21.4976 C.2       1 UNK         0.0000 
     29 O29         5.7861   54.0966   21.5777 O.2       1 UNK         0.0000 
     30 N30         3.9051   54.0962   20.3192 N.am      1 UNK         0.0000 
     31 C31         4.4824   54.1533   19.0442 C.ar      1 UNK         0.0000 
     32 C32         5.5269   53.3017   18.6659 C.ar      1 UNK         0.0000 
     33 C33         6.0472   53.3753   17.3769 C.ar      1 UNK         0.0000 
     34 C34         5.5174   54.2895   16.4639 C.ar      1 UNK         0.0000 
     35 C35         4.4655   55.1283   16.8386 C.ar      1 UNK         0.0000 
     36 C36         3.9389   55.0506   18.1249 C.ar      1 UNK         0.0000 
     37 C37         6.0925   54.3707   15.0612 C.3       1 UNK         0.0000 
     38 H38        -0.4634   50.4975   28.5815 H         1 UNK         0.0000 
     39 H39        -0.8974   51.9482   27.7070 H         1 UNK         0.0000 
     40 H40         0.5308   50.9963   27.2441 H         1 UNK         0.0000 
     41 H41         1.7160   51.6405   29.2865 H         1 UNK         0.0000 
     42 H42         0.2458   52.2555   30.0008 H         1 UNK         0.0000 
     43 H43         0.6700   54.3431   30.5037 H         1 UNK         0.0000 
     44 H44         2.3820   54.1273   30.2559 H         1 UNK         0.0000 
     45 H45         1.5949   56.5499   30.3427 H         1 UNK         0.0000 
     46 H46         2.4514   56.2086   28.8608 H         1 UNK         0.0000 
     47 H47         0.7046   56.2982   28.8527 H         1 UNK         0.0000 
     48 H48         3.7999   54.3000   28.5237 H         1 UNK         0.0000 
     49 H49         5.1501   54.5909   26.5123 H         1 UNK         0.0000 
     50 H50         5.2585   54.5596   23.9432 H         1 UNK         0.0000 
     51 H51         0.0964   52.1810   22.3855 H         1 UNK         0.0000 
     52 H52        -1.4706   49.3094   20.6540 H         1 UNK         0.0000 
     53 H53        -1.1764   46.9553   19.9964 H         1 UNK         0.0000 
     54 H54         2.4194   48.0069   17.8737 H         1 UNK         0.0000 
     55 H55         2.1327   50.3387   18.5251 H         1 UNK         0.0000 
     56 H56        -0.1702   45.4964   18.0829 H         1 UNK         0.0000 
     57 H57         1.5017   45.7747   17.6328 H         1 UNK         0.0000 
     58 H58         1.0970   45.2440   19.2798 H         1 UNK         0.0000 
     59 H59         0.4859   52.9631   26.1073 H         1 UNK         0.0000 
     60 H60         2.9299   54.3770   20.3456 H         1 UNK         0.0000 
     61 H61         5.9198   52.5665   19.3511 H         1 UNK         0.0000 
     62 H62         6.8469   52.7077   17.0867 H         1 UNK         0.0000 
     63 H63         4.0514   55.8355   16.1356 H         1 UNK         0.0000 
     64 H64         3.1131   55.6927   18.4039 H         1 UNK         0.0000 
     65 H65         5.7049   53.5598   14.4454 H         1 UNK         0.0000 
     66 H66         7.1793   54.2873   15.0886 H         1 UNK         0.0000 
     67 H67         5.8606   55.3244   14.5821 H         1 UNK         0.0000 
     68 H68         2.4277   52.5001   20.8344 H         1 UNK         0.0000 
@<TRIPOS>BOND
     1    1    2 1    
     2    1   38 1    
     3    1   39 1    
     4    1   40 1    
     5    2    3 1    
     6    2   41 1    
     7    2   42 1    
     8    3    4 1    
     9    3    6 1    
    10    4    5 1    
    11    4   43 1    
    12    4   44 1    
    13    5   45 1    
    14    5   46 1    
    15    5   47 1    
    16    6   27 ar   
    17    6    7 ar   
    18    7    8 ar   
    19    7   48 1    
    20    8    9 ar   
    21    8   49 1    
    22    9   26 ar   
    23    9   10 1    
    24   10   11 2    
    25   10   50 1    
    26   11   12 1    
    27   11   28 1    
    28   12   13 2    
    29   12   25 1    
    30   13   14 1    
    31   13   68 1    
    32   14   15 1    
    33   14   51 1    
    34   15   16 2    
    35   15   17 2    
    36   15   18 1    
    37   18   23 ar   
    38   18   19 ar   
    39   19   20 ar   
    40   19   52 1    
    41   20   21 ar   
    42   20   53 1    
    43   21   22 ar   
    44   21   24 1    
    45   22   23 ar   
    46   22   54 1    
    47   23   55 1    
    48   24   56 1    
    49   24   57 1    
    50   24   58 1    
    51   25   26 1    
    52   26   27 ar   
    53   27   59 1    
    54   28   29 2    
    55   28   30 am   BACKBONE|DICT|INTERRES
    56   30   31 1    
    57   30   60 1    
    58   31   36 ar   
    59   31   32 ar   
    60   32   33 ar   
    61   32   61 1    
    62   33   34 ar   
    63   33   62 1    
    64   34   35 ar   
    65   34   37 1    
    66   35   36 ar   
    67   35   63 1    
    68   36   64 1    
    69   37   65 1    
    70   37   66 1    
    71   37   67 1    
@<TRIPOS>SUBSTRUCTURE
     1 UNK         1 GROUP             0       ****    0 ROOT    
