ZINC34900368_2119
                    3D
 Schrodinger Suite 2024-2.
 64 67  0  0  1  0            999 V2000
    0.1189   53.3391   30.1415 C   0  0  0  0  0  0
   -0.4957   52.0966   30.0118 C   0  0  0  0  0  0
   -0.5083   51.4614   28.7711 C   0  0  0  0  0  0
    0.1259   52.0453   27.6764 C   0  0  0  0  0  0
    0.7222   53.2973   27.8091 C   0  0  0  0  0  0
    0.7128   53.9518   29.0407 C   0  0  0  0  0  0
    0.1830   51.3113   26.3440 C   0  0  0  0  0  0
   -1.3916   51.4840   25.3167 S   0  0  0  0  0  0
   -1.7786   52.8955   25.2517 O   0  0  0  0  0  0
   -2.3562   50.4834   25.7844 O   0  0  0  0  0  0
   -0.8566   51.0097   23.7000 N   0  0  0  0  0  0
   -1.7092   50.0831   22.8868 C   0  0  0  0  0  0
   -1.5955   50.6687   21.4700 C   0  0  0  0  0  0
   -1.1169   52.0938   21.6595 C   0  0  0  0  0  0
   -0.1488   52.0175   22.8427 C   0  0  2  0  0  0
   -0.0058   52.9769   23.3437 H   0  0  0  0  0  0
    1.2508   51.4928   22.4282 C   0  0  0  0  0  0
    1.5096   50.2869   22.4264 O   0  0  0  0  0  0
    2.1447   52.4190   22.0293 N   0  0  0  0  0  0
    3.4938   52.0988   21.5369 C   0  0  1  0  0  0
    3.8464   51.2216   22.0820 H   0  0  0  0  0  0
    3.5043   51.7017   20.0495 C   0  0  0  0  0  0
    3.2753   52.8803   19.0936 C   0  0  0  0  0  0
    4.3490   53.9561   19.3179 C   0  0  0  0  0  0
    4.4305   54.3895   20.7936 C   0  0  0  0  0  0
    4.5330   53.2315   21.8032 C   0  0  1  0  0  0
    5.5042   52.7651   21.6225 H   0  0  0  0  0  0
    4.5538   53.6860   23.1969 N   0  0  0  0  0  0
    5.6108   54.1498   23.8829 C   0  0  0  0  0  0
    6.7051   54.3596   23.3644 O   0  0  0  0  0  0
    5.3984   54.3128   25.3702 C   0  0  0  0  0  0
    6.4954   54.2401   26.2424 C   0  0  0  0  0  0
    6.3071   54.3242   27.6209 C   0  0  0  0  0  0
    5.0259   54.4936   28.1341 C   0  0  0  0  0  0
    3.9353   54.5824   27.2825 C   0  0  0  0  0  0
    4.1142   54.4963   25.9072 C   0  0  0  0  0  0
    4.8335   54.5931   29.4671 F   0  0  0  0  0  0
    0.1223   53.8327   31.1032 H   0  0  0  0  0  0
   -0.9641   51.6302   30.8695 H   0  0  0  0  0  0
   -0.9972   50.5038   28.6604 H   0  0  0  0  0  0
    1.1844   53.7615   26.9523 H   0  0  0  0  0  0
    1.1660   54.9254   29.1468 H   0  0  0  0  0  0
    0.3497   50.2440   26.4906 H   0  0  0  0  0  0
    1.0050   51.6820   25.7342 H   0  0  0  0  0  0
   -2.7656   50.1548   23.1536 H   0  0  0  0  0  0
   -1.3024   49.0721   22.8344 H   0  0  0  0  0  0
   -2.5390   50.6164   20.9216 H   0  0  0  0  0  0
   -0.8612   50.1056   20.8870 H   0  0  0  0  0  0
   -1.9568   52.7451   21.9132 H   0  0  0  0  0  0
   -0.6552   52.4930   20.7531 H   0  0  0  0  0  0
    1.8336   53.3698   21.8915 H   0  0  0  0  0  0
    2.7956   50.8965   19.8534 H   0  0  0  0  0  0
    4.4857   51.2961   19.8349 H   0  0  0  0  0  0
    2.2776   53.2963   19.2408 H   0  0  0  0  0  0
    3.3121   52.5267   18.0624 H   0  0  0  0  0  0
    4.1417   54.8210   18.6869 H   0  0  0  0  0  0
    5.3196   53.5701   18.9974 H   0  0  0  0  0  0
    3.5047   54.8971   21.0295 H   0  0  0  0  0  0
    5.2464   55.1023   20.9318 H   0  0  0  0  0  0
    3.6802   53.5992   23.6912 H   0  0  0  0  0  0
    7.4933   54.0978   25.8541 H   0  0  0  0  0  0
    7.1495   54.2634   28.2947 H   0  0  0  0  0  0
    2.9583   54.7549   27.6926 H   0  0  0  0  0  0
    3.2464   54.5820   25.2715 H   0  0  0  0  0  0
  1  6  2  0  0  0
  1  2  1  0  0  0
  1 38  1  0  0  0
  2  3  2  0  0  0
  2 39  1  0  0  0
  3  4  1  0  0  0
  3 40  1  0  0  0
  4  5  2  0  0  0
  4  7  1  0  0  0
  5  6  1  0  0  0
  5 41  1  0  0  0
  6 42  1  0  0  0
  7  8  1  0  0  0
  7 43  1  0  0  0
  7 44  1  0  0  0
  8  9  2  0  0  0
  8 10  2  0  0  0
  8 11  1  0  0  0
 11 15  1  0  0  0
 11 12  1  0  0  0
 12 13  1  0  0  0
 12 45  1  0  0  0
 12 46  1  0  0  0
 13 14  1  0  0  0
 13 47  1  0  0  0
 13 48  1  0  0  0
 14 15  1  0  0  0
 14 49  1  0  0  0
 14 50  1  0  0  0
 15 16  1  0  0  0
 15 17  1  0  0  0
 17 18  2  0  0  0
 17 19  1  0  0  0
 19 20  1  0  0  0
 19 51  1  0  0  0
 20 21  1  0  0  0
 20 26  1  0  0  0
 20 22  1  0  0  0
 22 23  1  0  0  0
 22 52  1  0  0  0
 22 53  1  0  0  0
 23 24  1  0  0  0
 23 54  1  0  0  0
 23 55  1  0  0  0
 24 25  1  0  0  0
 24 56  1  0  0  0
 24 57  1  0  0  0
 25 26  1  0  0  0
 25 58  1  0  0  0
 25 59  1  0  0  0
 26 27  1  0  0  0
 26 28  1  0  0  0
 28 29  1  0  0  0
 28 60  1  0  0  0
 29 30  2  0  0  0
 29 31  1  0  0  0
 31 36  2  0  0  0
 31 32  1  0  0  0
 32 33  2  0  0  0
 32 61  1  0  0  0
 33 34  1  0  0  0
 33 62  1  0  0  0
 34 35  2  0  0  0
 34 37  1  0  0  0
 35 36  1  0  0  0
 35 63  1  0  0  0
 36 64  1  0  0  0
M  END
> <i_i_glide_confnum>
250

> <i_i_glide_lignum>
2120

> <i_i_glide_posenum>
299

> <i_i_glide_rotatable_bonds>
9

> <i_m_Source_File_Index>
3740

> <b_m_subgroup_collapsed>
0

> <r_i_docking_score>
-4.76191

> <r_i_glide_ecoul>
-0.255805

> <r_i_glide_eff_state_penalty>
0

> <r_i_glide_einternal>
1.93051

> <r_i_glide_emodel>
-60.0715

> <r_i_glide_energy>
-46.2882

> <r_i_glide_erotb>
0.769632

> <r_i_glide_esite>
-0.064249

> <r_i_glide_evdw>
-46.0324

> <r_i_glide_gscore>
-4.76191

> <r_i_glide_hbond>
0

> <r_i_glide_ligand_efficiency>
-0.140056

> <r_i_glide_ligand_efficiency_ln>
-1.05204

> <r_i_glide_ligand_efficiency_sa>
-0.453728

> <r_i_glide_lipo>
-2.32149

> <r_i_glide_metal>
0

> <r_i_glide_rewards>
-0.805816

> <s_i_glide_gridfile>
wee1_glide-grid

> <s_m_Source_File>
wee1_decoys_glide_SP.sdf

> <s_m_Source_Path>
/Users/zhangxujun/Desktop

> <s_m_entry_id>
4015

> <s_m_entry_name>
wee1_decoys_glide_SP.3740

> <s_m_subgroup_title>
wee1_decoys_glide_SP

> <s_m_subgroupid>
wee1_decoys_glide_SP


$$$$
