@<TRIPOS>MOLECULE
ZINC40157753_5164
52   55    1
SMALL
USER_CHARGES


@<TRIPOS>ATOM
      1 C1          4.9282   54.7258   29.1360 C.3       1 UNK         0.0000 
      2 O2          3.6344   54.4912   29.6826 O.3       1 UNK         0.0000 
      3 C3          2.8267   53.6287   28.9738 C.ar      1 UNK         0.0000 
      4 C4          2.6176   53.7943   27.6007 C.ar      1 UNK         0.0000 
      5 C5          1.7974   52.9142   26.9028 C.ar      1 UNK         0.0000 
      6 C6          1.1566   51.8558   27.5538 C.ar      1 UNK         0.0000 
      7 C7          1.3488   51.7052   28.9277 C.ar      1 UNK         0.0000 
      8 C8          2.1798   52.5768   29.6424 C.ar      1 UNK         0.0000 
      9 O9          2.3182   52.3844   30.9981 O.3       1 UNK         0.0000 
     10 C10         3.6285   52.0640   31.4614 C.3       1 UNK         0.0000 
     11 N11         0.3931   50.9054   26.8577 N.pl3     1 UNK         0.0000 
     12 S12        -0.6888   51.2763   25.4963 S.o2      1 UNK         0.0000 
     13 O13        -1.4268   52.4967   25.8444 O.2       1 UNK         0.0000 
     14 O14        -1.3903   50.0320   25.1650 O.2       1 UNK         0.0000 
     15 C15         0.3829   51.6465   24.1054 C.ar      1 UNK         0.0000 
     16 C16         0.5043   52.9693   23.6827 C.ar      1 UNK         0.0000 
     17 C17         1.4746   53.3070   22.7531 C.ar      1 UNK         0.0000 
     18 C18         2.3058   52.3216   22.2047 C.ar      1 UNK         0.0000 
     19 C19         2.0930   50.9791   22.5321 C.ar      1 UNK         0.0000 
     20 C20         1.1438   50.6409   23.4995 C.ar      1 UNK         0.0000 
     21 N21         3.3648   52.6637   21.3442 N.am      1 UNK         0.0000 
     22 C22         4.1675   53.7442   21.4963 C.2       1 UNK         0.0000 
     23 O23         4.1218   54.4966   22.4723 O.2       1 UNK         0.0000 
     24 C24         5.1156   53.9757   20.4297 C.2       1 UNK         0.0000 
     25 C25         5.2737   53.2971   19.2296 C.2       1 UNK         0.0000 
     26 C26         6.3612   53.7699   18.4504 C.ar      1 UNK         0.0000 
     27 C27         6.8504   53.2956   17.2258 C.ar      1 UNK         0.0000 
     28 C28         7.9555   53.9083   16.6429 C.ar      1 UNK         0.0000 
     29 C29         8.5860   54.9836   17.2573 C.ar      1 UNK         0.0000 
     30 C30         8.1358   55.4851   18.4753 C.ar      1 UNK         0.0000 
     31 C31         7.0208   54.8741   19.0645 C.ar      1 UNK         0.0000 
     32 S32         6.2672   55.2957   20.5925 S.3       1 UNK         0.0000 
     33 F33         8.4265   53.4456   15.4629 F         1 UNK         0.0000 
     34 H34         5.5165   55.2968   29.8516 H         1 UNK         0.0000 
     35 H35         5.4623   53.7955   28.9345 H         1 UNK         0.0000 
     36 H36         4.8859   55.2965   28.2115 H         1 UNK         0.0000 
     37 H37         3.0915   54.6012   27.0652 H         1 UNK         0.0000 
     38 H38         1.7039   53.0648   25.8447 H         1 UNK         0.0000 
     39 H39         0.8538   50.8967   29.4395 H         1 UNK         0.0000 
     40 H40         3.5534   51.6650   32.4754 H         1 UNK         0.0000 
     41 H41         4.0988   51.3028   30.8402 H         1 UNK         0.0000 
     42 H42         4.2975   52.9240   31.4979 H         1 UNK         0.0000 
     43 H43         0.4324   49.9392   27.1519 H         1 UNK         0.0000 
     44 H44        -0.0972   53.7534   24.1210 H         1 UNK         0.0000 
     45 H45         1.5915   54.3448   22.4768 H         1 UNK         0.0000 
     46 H46         2.7116   50.2050   22.1015 H         1 UNK         0.0000 
     47 H47         1.0370   49.6128   23.8176 H         1 UNK         0.0000 
     48 H48         3.5637   52.0290   20.5888 H         1 UNK         0.0000 
     49 H49         4.6699   52.4629   18.9025 H         1 UNK         0.0000 
     50 H50         6.3813   52.4501   16.7441 H         1 UNK         0.0000 
     51 H51         9.4440   55.4314   16.7774 H         1 UNK         0.0000 
     52 H52         8.6358   56.3183   18.9517 H         1 UNK         0.0000 
@<TRIPOS>BOND
     1    1    2 1    
     2    1   34 1    
     3    1   35 1    
     4    1   36 1    
     5    2    3 1    
     6    3    8 ar   
     7    3    4 ar   
     8    4    5 ar   
     9    4   37 1    
    10    5    6 ar   
    11    5   38 1    
    12    6    7 ar   
    13    6   11 1    
    14    7    8 ar   
    15    7   39 1    
    16    8    9 1    
    17    9   10 1    
    18   10   40 1    
    19   10   41 1    
    20   10   42 1    
    21   11   12 1    
    22   11   43 1    
    23   12   13 2    
    24   12   14 2    
    25   12   15 1    
    26   15   20 ar   
    27   15   16 ar   
    28   16   17 ar   
    29   16   44 1    
    30   17   18 ar   
    31   17   45 1    
    32   18   19 ar   
    33   18   21 1    
    34   19   20 ar   
    35   19   46 1    
    36   20   47 1    
    37   21   22 am   BACKBONE|DICT|INTERRES
    38   21   48 1    
    39   22   23 2    
    40   22   24 1    
    41   24   32 1    
    42   24   25 2    
    43   25   26 1    
    44   25   49 1    
    45   26   31 ar   
    46   26   27 ar   
    47   27   28 ar   
    48   27   50 1    
    49   28   29 ar   
    50   28   33 1    
    51   29   30 ar   
    52   29   51 1    
    53   30   31 ar   
    54   30   52 1    
    55   31   32 1    
@<TRIPOS>SUBSTRUCTURE
     1 UNK         1 GROUP             0       ****    0 ROOT    
