@<TRIPOS>MOLECULE
ZINC39623718_632
72   76    1
SMALL
USER_CHARGES


@<TRIPOS>ATOM
      1 C1          4.9613   54.1028   28.4335 C.ar      1 UNK         0.0000 
      2 C2          3.9962   54.4911   27.5094 C.ar      1 UNK         0.0000 
      3 C3          4.3775   54.8531   26.2215 C.ar      1 UNK         0.0000 
      4 C4          5.7312   54.8515   25.8609 C.ar      1 UNK         0.0000 
      5 C5          6.6915   54.4805   26.8039 C.ar      1 UNK         0.0000 
      6 C6          6.3072   54.0949   28.0832 C.ar      1 UNK         0.0000 
      7 C7          6.1875   55.2833   24.4657 C.3       1 UNK         0.0000 
      8 C8          5.2393   54.8945   23.3110 C.3       1 UNK         0.0000 
      9 C9          5.0955   53.3906   23.0747 C.3       1 UNK         0.0000 
     10 N10         3.9320   53.0657   22.2426 N.am      1 UNK         0.0000 
     11 C11         2.7032   52.7912   22.7215 C.2       1 UNK         0.0000 
     12 O12         2.4277   52.9132   23.9176 O.2       1 UNK         0.0000 
     13 C13         1.6118   52.3873   21.6856 C.3       1 UNK         0.0000 
     14 H14         1.8484   52.8555   20.7327 H         1 UNK         0.0000 
     15 C15         0.2345   52.7859   22.1906 C.3       1 UNK         0.0000 
     16 N16        -0.3148   51.6215   22.8832 N.am      1 UNK         0.0000 
     17 C17         0.5944   50.4711   22.7804 C.3       1 UNK         0.0000 
     18 C18         1.4388   50.8392   21.5350 C.3       1 UNK         0.0000 
     19 C19         0.6155   50.4079   20.2681 C.3       1 UNK         0.0000 
     20 C20         1.2846   50.8132   18.9330 C.3       1 UNK         0.0000 
     21 N21         2.7043   50.2047   18.9044 N.4       1 UNK         0.0000 
     22 C22         3.5124   50.5392   20.1734 C.3       1 UNK         0.0000 
     23 C23         2.7376   50.0251   21.4029 C.3       1 UNK         0.0000 
     24 C24        -1.5808   51.6689   23.3709 C.2       1 UNK         0.0000 
     25 O25        -2.2749   52.6858   23.2844 O.2       1 UNK         0.0000 
     26 C26        -2.1343   50.4737   24.1061 C.ar      1 UNK         0.0000 
     27 C27        -2.2381   49.2288   23.4653 C.ar      1 UNK         0.0000 
     28 C28        -2.7692   48.1322   24.1431 C.ar      1 UNK         0.0000 
     29 C29        -3.2109   48.3122   25.4512 C.ar      1 UNK         0.0000 
     30 N30        -3.1610   49.5088   26.0823 N.ar      1 UNK         0.0000 
     31 C31        -2.6249   50.5700   25.4282 C.ar      1 UNK         0.0000 
     32 S32        -2.5989   52.0837   26.3615 S.3       1 UNK         0.0000 
     33 C33        -1.0359   51.9863   27.1784 C.ar      1 UNK         0.0000 
     34 C34        -0.9925   51.6970   28.5400 C.ar      1 UNK         0.0000 
     35 C35         0.2264   51.7253   29.2095 C.ar      1 UNK         0.0000 
     36 C36         1.3988   52.0015   28.5077 C.ar      1 UNK         0.0000 
     37 C37         1.3585   52.2627   27.1394 C.ar      1 UNK         0.0000 
     38 C38         0.1376   52.2555   26.4735 C.ar      1 UNK         0.0000 
     39 H39         4.6656   53.8195   29.4331 H         1 UNK         0.0000 
     40 H40         2.9547   54.5151   27.7925 H         1 UNK         0.0000 
     41 H41         3.6074   55.1506   25.5263 H         1 UNK         0.0000 
     42 H42         7.7381   54.4928   26.5540 H         1 UNK         0.0000 
     43 H43         7.0526   53.8121   28.8111 H         1 UNK         0.0000 
     44 H44         6.3048   56.3681   24.4833 H         1 UNK         0.0000 
     45 H45         7.1770   54.8703   24.2578 H         1 UNK         0.0000 
     46 H46         4.2416   55.2966   23.4936 H         1 UNK         0.0000 
     47 H47         5.6034   55.2968   22.3681 H         1 UNK         0.0000 
     48 H48         6.0080   52.9847   22.6382 H         1 UNK         0.0000 
     49 H49         5.0208   52.9009   24.0418 H         1 UNK         0.0000 
     50 H50         4.0806   53.0605   21.2435 H         1 UNK         0.0000 
     51 H51         0.3043   53.6837   22.8144 H         1 UNK         0.0000 
     52 H52        -0.3856   52.9334   21.3087 H         1 UNK         0.0000 
     53 H53         0.1607   49.4802   22.6658 H         1 UNK         0.0000 
     54 H54         1.2647   50.4491   23.6430 H         1 UNK         0.0000 
     55 H55         0.4147   49.3339   20.2819 H         1 UNK         0.0000 
     56 H56        -0.3742   50.8671   20.2822 H         1 UNK         0.0000 
     57 H57         0.7648   50.4077   18.0643 H         1 UNK         0.0000 
     58 H58         1.4000   51.8893   18.8033 H         1 UNK         0.0000 
     59 H59         2.6435   49.2005   18.8065 H         1 UNK         0.0000 
     60 H60         4.4874   50.0967   20.0819 H         1 UNK         0.0000 
     61 H61         3.6665   51.6138   20.1277 H         1 UNK         0.0000 
     62 H62         3.3523   50.1568   22.2929 H         1 UNK         0.0000 
     63 H63         2.5521   48.9493   21.3509 H         1 UNK         0.0000 
     64 H64        -1.9301   49.1052   22.4368 H         1 UNK         0.0000 
     65 H65        -2.8432   47.1694   23.6620 H         1 UNK         0.0000 
     66 H66        -3.6189   47.4949   26.0277 H         1 UNK         0.0000 
     67 H67        -1.9007   51.4786   29.0851 H         1 UNK         0.0000 
     68 H68         0.2533   51.5614   30.2745 H         1 UNK         0.0000 
     69 H69         2.3455   52.0243   29.0272 H         1 UNK         0.0000 
     70 H70         2.2645   52.4855   26.5932 H         1 UNK         0.0000 
     71 H71         0.1080   52.5018   25.4237 H         1 UNK         0.0000 
     72 H72         3.2393   50.4971   18.0881 H         1 UNK         0.0000 
@<TRIPOS>BOND
     1    1    6 ar   
     2    1    2 ar   
     3    1   39 1    
     4    2    3 ar   
     5    2   40 1    
     6    3    4 ar   
     7    3   41 1    
     8    4    5 ar   
     9    4    7 1    
    10    5    6 ar   
    11    5   42 1    
    12    6   43 1    
    13    7    8 1    
    14    7   44 1    
    15    7   45 1    
    16    8    9 1    
    17    8   46 1    
    18    8   47 1    
    19    9   10 1    
    20    9   48 1    
    21    9   49 1    
    22   10   11 am   BACKBONE|DICT|INTERRES
    23   10   50 1    
    24   11   12 2    
    25   11   13 1    
    26   13   14 1    
    27   13   18 1    
    28   13   15 1    
    29   15   16 1    
    30   15   51 1    
    31   15   52 1    
    32   16   17 1    
    33   16   24 am   BACKBONE|DICT|INTERRES
    34   17   18 1    
    35   17   53 1    
    36   17   54 1    
    37   18   23 1    
    38   18   19 1    
    39   19   20 1    
    40   19   55 1    
    41   19   56 1    
    42   20   21 1    
    43   20   57 1    
    44   20   58 1    
    45   21   22 1    
    46   21   59 1    
    47   21   72 1    
    48   22   23 1    
    49   22   60 1    
    50   22   61 1    
    51   23   62 1    
    52   23   63 1    
    53   24   25 2    
    54   24   26 1    
    55   26   31 ar   
    56   26   27 ar   
    57   27   28 ar   
    58   27   64 1    
    59   28   29 ar   
    60   28   65 1    
    61   29   30 ar   
    62   29   66 1    
    63   30   31 ar   
    64   31   32 1    
    65   32   33 1    
    66   33   38 ar   
    67   33   34 ar   
    68   34   35 ar   
    69   34   67 1    
    70   35   36 ar   
    71   35   68 1    
    72   36   37 ar   
    73   36   69 1    
    74   37   38 ar   
    75   37   70 1    
    76   38   71 1    
@<TRIPOS>SUBSTRUCTURE
     1 UNK         1 GROUP             0       ****    0 ROOT    
