@<TRIPOS>MOLECULE
ZINC39582255_1203
60   63    1
SMALL
USER_CHARGES


@<TRIPOS>ATOM
      1 C1          1.3105   49.4363   17.9676 C.3       1 UNK         0.0000 
      2 C2          0.4329   49.5320   19.2113 C.ar      1 UNK         0.0000 
      3 C3         -0.2755   48.3975   19.6109 C.ar      1 UNK         0.0000 
      4 C4         -1.0716   48.4289   20.7488 C.ar      1 UNK         0.0000 
      5 C5         -1.1545   49.5929   21.5055 C.ar      1 UNK         0.0000 
      6 C6         -0.4579   50.7537   21.1362 C.ar      1 UNK         0.0000 
      7 C7          0.3427   50.7196   19.9664 C.ar      1 UNK         0.0000 
      8 C8          1.0862   51.9683   19.4762 C.3       1 UNK         0.0000 
      9 N9         -0.4745   51.8704   21.9746 N.pl3     1 UNK         0.0000 
     10 C10         0.7732   52.2073   22.6761 C.3       1 UNK         0.0000 
     11 C11         0.8579   51.4975   24.0418 C.3       1 UNK         0.0000 
     12 N12        -0.1800   52.0563   24.9193 N.3       1 UNK         0.0000 
     13 C13        -1.4864   51.7197   24.3342 C.3       1 UNK         0.0000 
     14 C14        -1.6148   52.1990   22.8592 C.3       1 UNK         0.0000 
     15 C15        -0.1072   51.5473   26.3071 C.3       1 UNK         0.0000 
     16 C16         1.1049   52.0970   27.0978 C.2       1 UNK         0.0000 
     17 O17         1.4113   51.5467   28.1566 O.2       1 UNK         0.0000 
     18 N18         1.7966   53.1278   26.5615 N.am      1 UNK         0.0000 
     19 C19         3.0008   53.6177   26.9763 C.2       1 UNK         0.0000 
     20 C20         4.0386   54.0361   26.2315 C.2       1 UNK         0.0000 
     21 C21         4.2301   54.0969   24.7748 C.2       1 UNK         0.0000 
     22 C22         5.4039   54.4967   24.2449 C.2       1 UNK         0.0000 
     23 C23         6.4578   54.8964   25.1682 C.2       1 UNK         0.0000 
     24 C24         6.2957   54.8598   26.5186 C.2       1 UNK         0.0000 
     25 C25         5.0912   54.4134   27.0728 C.2       1 UNK         0.0000 
     26 N26         4.7532   54.2758   28.3386 N.pl3     1 UNK         0.0000 
     27 C27         3.3940   53.6912   28.4417 C.3       1 UNK         0.0000 
     28 H28         3.4897   52.7078   28.9034 H         1 UNK         0.0000 
     29 C29         2.4776   54.5719   29.3022 C.2       1 UNK         0.0000 
     30 O30         1.8915   54.0863   30.2674 O.2       1 UNK         0.0000 
     31 O31         2.3757   55.8473   28.8816 O.3       1 UNK         0.0000 
     32 C32         1.6571   56.8036   29.6445 C.3       1 UNK         0.0000 
     33 Br33        5.6982   54.4968   22.2947 Br        1 UNK         0.0000 
     34 H34         0.8879   50.0204   17.1498 H         1 UNK         0.0000 
     35 H35         2.3082   49.8280   18.1711 H         1 UNK         0.0000 
     36 H36         1.4441   48.4079   17.6299 H         1 UNK         0.0000 
     37 H37        -0.2100   47.4839   19.0379 H         1 UNK         0.0000 
     38 H38        -1.6127   47.5454   21.0542 H         1 UNK         0.0000 
     39 H39        -1.7569   49.5724   22.4001 H         1 UNK         0.0000 
     40 H40         2.1511   51.8932   19.6977 H         1 UNK         0.0000 
     41 H41         0.9805   52.0827   18.3976 H         1 UNK         0.0000 
     42 H42         0.6989   52.8924   19.9031 H         1 UNK         0.0000 
     43 H43         1.6359   51.9040   22.0830 H         1 UNK         0.0000 
     44 H44         0.8549   53.2887   22.7993 H         1 UNK         0.0000 
     45 H45         1.8505   51.6972   24.4425 H         1 UNK         0.0000 
     46 H46         0.7729   50.4136   23.9337 H         1 UNK         0.0000 
     47 H47        -1.6143   50.6359   24.3511 H         1 UNK         0.0000 
     48 H48        -2.2911   52.1684   24.9188 H         1 UNK         0.0000 
     49 H49        -2.5519   51.8425   22.4295 H         1 UNK         0.0000 
     50 H50        -1.6863   53.2869   22.8817 H         1 UNK         0.0000 
     51 H51        -0.0777   50.4544   26.3165 H         1 UNK         0.0000 
     52 H52        -0.9984   51.8473   26.8618 H         1 UNK         0.0000 
     53 H53         1.4431   53.4669   25.6784 H         1 UNK         0.0000 
     54 H54         3.4523   53.7906   24.0899 H         1 UNK         0.0000 
     55 H55         7.3973   55.2320   24.7505 H         1 UNK         0.0000 
     56 H56         7.1058   55.1689   27.1623 H         1 UNK         0.0000 
     57 H57         1.5041   57.6970   29.0433 H         1 UNK         0.0000 
     58 H58         0.6831   56.4284   29.9544 H         1 UNK         0.0000 
     59 H59         2.2132   57.0879   30.5386 H         1 UNK         0.0000 
     60 H60         5.3521   54.4904   29.1327 H         1 UNK         0.0000 
@<TRIPOS>BOND
     1    1    2 1    
     2    1   34 1    
     3    1   35 1    
     4    1   36 1    
     5    2    7 ar   
     6    2    3 ar   
     7    3    4 ar   
     8    3   37 1    
     9    4    5 ar   
    10    4   38 1    
    11    5    6 ar   
    12    5   39 1    
    13    6    7 ar   
    14    6    9 1    
    15    7    8 1    
    16    8   40 1    
    17    8   41 1    
    18    8   42 1    
    19    9   14 1    
    20    9   10 1    
    21   10   11 1    
    22   10   43 1    
    23   10   44 1    
    24   11   12 1    
    25   11   45 1    
    26   11   46 1    
    27   12   13 1    
    28   12   15 1    
    29   13   14 1    
    30   13   47 1    
    31   13   48 1    
    32   14   49 1    
    33   14   50 1    
    34   15   16 1    
    35   15   51 1    
    36   15   52 1    
    37   16   17 2    
    38   16   18 am   BACKBONE|DICT|INTERRES
    39   18   19 1    
    40   18   53 1    
    41   19   27 1    
    42   19   20 2    
    43   20   25 1    
    44   20   21 1    
    45   21   22 2    
    46   21   54 1    
    47   22   23 1    
    48   22   33 1    
    49   23   24 2    
    50   23   55 1    
    51   24   25 1    
    52   24   56 1    
    53   25   26 2    
    54   26   27 1    
    55   26   60 1    
    56   27   28 1    
    57   27   29 1    
    58   29   30 2    
    59   29   31 1    
    60   31   32 1    
    61   32   57 1    
    62   32   58 1    
    63   32   59 1    
@<TRIPOS>SUBSTRUCTURE
     1 UNK         1 GROUP             0       ****    0 ROOT    
