@<TRIPOS>MOLECULE
ZINC40291045_3776
39   41    1
SMALL
USER_CHARGES


@<TRIPOS>ATOM
      1 C1          5.6183   53.8008   23.6487 C.3       1 UNK         0.0000 
      2 C2          4.2067   53.8088   24.2555 C.ar      1 UNK         0.0000 
      3 C3          3.1122   53.7471   23.3782 C.ar      1 UNK         0.0000 
      4 N4          1.8350   53.6954   23.8114 N.ar      1 UNK         0.0000 
      5 N5          1.5817   53.6971   25.1196 N.ar      1 UNK         0.0000 
      6 C6          2.5746   53.7413   26.0517 C.ar      1 UNK         0.0000 
      7 C7          3.9479   53.7965   25.6604 C.ar      1 UNK         0.0000 
      8 C8          5.0515   53.8105   26.6845 C.2       1 UNK         0.0000 
      9 S9          6.3046   54.8966   26.6984 S.2       1 UNK         0.0000 
     10 N10         4.9302   52.9001   27.6776 N.pl3     1 UNK         0.0000 
     11 N11         2.1144   53.8455   27.3790 N.pl3     1 UNK         0.0000 
     12 C12         2.5030   55.0714   28.1002 C.3       1 UNK         0.0000 
     13 C13         2.6611   54.8151   29.5981 C.3       1 UNK         0.0000 
     14 C14         1.2843   54.4668   30.1541 C.3       1 UNK         0.0000 
     15 C15         0.6657   53.3522   29.3238 C.ar      1 UNK         0.0000 
     16 C16         1.0692   53.0993   27.9793 C.ar      1 UNK         0.0000 
     17 C17         0.4557   52.0293   27.3027 C.ar      1 UNK         0.0000 
     18 C18        -0.5700   51.2964   27.8840 C.ar      1 UNK         0.0000 
     19 C19        -0.9597   51.5613   29.1876 C.ar      1 UNK         0.0000 
     20 C20        -0.3265   52.5607   29.9081 C.ar      1 UNK         0.0000 
     21 C21         3.2632   53.6951   21.8629 C.3       1 UNK         0.0000 
     22 H22         5.6701   53.2527   22.7098 H         1 UNK         0.0000 
     23 H23         5.9626   54.8195   23.4710 H         1 UNK         0.0000 
     24 H24         6.3420   53.2971   24.2843 H         1 UNK         0.0000 
     25 H25         4.1354   52.2766   27.6860 H         1 UNK         0.0000 
     26 H26         5.6337   52.8532   28.3993 H         1 UNK         0.0000 
     27 H27         3.3981   55.5397   27.7094 H         1 UNK         0.0000 
     28 H28         1.7009   55.7941   27.9498 H         1 UNK         0.0000 
     29 H29         3.3648   54.0005   29.7760 H         1 UNK         0.0000 
     30 H30         3.0713   55.6972   30.0806 H         1 UNK         0.0000 
     31 H31         1.3380   54.1764   31.2034 H         1 UNK         0.0000 
     32 H32         0.6378   55.3453   30.1100 H         1 UNK         0.0000 
     33 H33         0.7565   51.7344   26.3112 H         1 UNK         0.0000 
     34 H34        -1.0385   50.4890   27.3403 H         1 UNK         0.0000 
     35 H35        -1.7278   50.9558   29.6512 H         1 UNK         0.0000 
     36 H36        -0.6260   52.7290   30.9334 H         1 UNK         0.0000 
     37 H37         3.8335   54.5503   21.5008 H         1 UNK         0.0000 
     38 H38         3.7750   52.7819   21.5599 H         1 UNK         0.0000 
     39 H39         2.3025   53.6962   21.3501 H         1 UNK         0.0000 
@<TRIPOS>BOND
     1    1    2 1    
     2    1   22 1    
     3    1   23 1    
     4    1   24 1    
     5    2    7 ar   
     6    2    3 ar   
     7    3    4 ar   
     8    3   21 1    
     9    4    5 ar   
    10    5    6 ar   
    11    6    7 ar   
    12    6   11 1    
    13    7    8 1    
    14    8    9 2    
    15    8   10 1    
    16   10   25 1    
    17   10   26 1    
    18   11   16 1    
    19   11   12 1    
    20   12   13 1    
    21   12   27 1    
    22   12   28 1    
    23   13   14 1    
    24   13   29 1    
    25   13   30 1    
    26   14   15 1    
    27   14   31 1    
    28   14   32 1    
    29   15   20 ar   
    30   15   16 ar   
    31   16   17 ar   
    32   17   18 ar   
    33   17   33 1    
    34   18   19 ar   
    35   18   34 1    
    36   19   20 ar   
    37   19   35 1    
    38   20   36 1    
    39   21   37 1    
    40   21   38 1    
    41   21   39 1    
@<TRIPOS>SUBSTRUCTURE
     1 UNK         1 GROUP             0       ****    0 ROOT    
