@<TRIPOS>MOLECULE
ZINC14544791_3412
61   66    1
SMALL
USER_CHARGES


@<TRIPOS>ATOM
      1 C1         -5.9764   50.7656   31.9901 C.3       1 UNK         0.0000 
      2 C2         -5.5979   50.9004   30.5252 C.ar      1 UNK         0.0000 
      3 C3         -4.3952   50.3725   30.0586 C.ar      1 UNK         0.0000 
      4 C4         -4.0842   50.4339   28.7021 C.ar      1 UNK         0.0000 
      5 C5         -4.9617   51.0198   27.7903 C.ar      1 UNK         0.0000 
      6 C6         -6.1634   51.5854   28.2588 C.ar      1 UNK         0.0000 
      7 C7         -6.4688   51.5193   29.6249 C.ar      1 UNK         0.0000 
      8 C8         -7.1836   52.2115   27.3158 C.3       1 UNK         0.0000 
      9 N9         -4.6629   50.9226   26.4229 N.pl3     1 UNK         0.0000 
     10 S10        -4.0430   52.2879   25.4775 S.o2      1 UNK         0.0000 
     11 O11        -4.3409   51.9753   24.0771 O.2       1 UNK         0.0000 
     12 O12        -4.5211   53.5351   26.0834 O.2       1 UNK         0.0000 
     13 C13        -2.2585   52.2741   25.6319 C.ar      1 UNK         0.0000 
     14 C14        -1.4587   52.4044   24.4946 C.ar      1 UNK         0.0000 
     15 C15        -0.0740   52.5029   24.6227 C.ar      1 UNK         0.0000 
     16 C16         0.5154   52.4762   25.8871 C.ar      1 UNK         0.0000 
     17 C17        -0.2737   52.3054   27.0421 C.ar      1 UNK         0.0000 
     18 C18        -1.6596   52.1983   26.8894 C.ar      1 UNK         0.0000 
     19 C19         0.4498   52.2449   28.3795 C.3       1 UNK         0.0000 
     20 H20         0.8662   51.2365   28.4419 H         1 UNK         0.0000 
     21 C21        -0.2491   52.5357   29.6875 C.2       1 UNK         0.0000 
     22 C22         0.6098   53.1487   30.5251 C.2       1 UNK         0.0000 
     23 C23         1.9312   53.4586   29.8321 C.3       1 UNK         0.0000 
     24 C24         1.5505   53.3060   28.3585 C.3       1 UNK         0.0000 
     25 H25         1.1324   54.2705   28.0504 H         1 UNK         0.0000 
     26 C26         2.5940   52.8978   27.2811 C.3       1 UNK         0.0000 
     27 H27         2.9456   51.9073   27.5674 H         1 UNK         0.0000 
     28 N28         1.9025   52.7222   25.9900 N.pl3     1 UNK         0.0000 
     29 C29         3.8545   53.7646   27.1616 C.ar      1 UNK         0.0000 
     30 C30         4.6482   54.2341   28.1992 C.ar      1 UNK         0.0000 
     31 N31         5.7514   54.8967   27.7261 N.pl3     1 UNK         0.0000 
     32 H32         6.4525   55.3004   28.3387 H         1 UNK         0.0000 
     33 C33         5.7392   54.8807   26.3517 C.ar      1 UNK         0.0000 
     34 C34         4.5509   54.1897   25.9547 C.ar      1 UNK         0.0000 
     35 C35         4.3175   54.0514   24.5691 C.ar      1 UNK         0.0000 
     36 C36         5.2683   54.4962   23.6558 C.ar      1 UNK         0.0000 
     37 C37         6.4072   55.1663   24.0817 C.ar      1 UNK         0.0000 
     38 C38         6.6487   55.4061   25.4296 C.ar      1 UNK         0.0000 
     39 H39        -5.2929   50.1083   32.5300 H         1 UNK         0.0000 
     40 H40        -6.9764   50.3407   32.0769 H         1 UNK         0.0000 
     41 H41        -5.9894   51.7348   32.4843 H         1 UNK         0.0000 
     42 H42        -3.7014   49.8927   30.7352 H         1 UNK         0.0000 
     43 H43        -3.1496   50.0118   28.3623 H         1 UNK         0.0000 
     44 H44        -7.4058   51.9219   29.9832 H         1 UNK         0.0000 
     45 H45        -7.1888   51.7157   26.3464 H         1 UNK         0.0000 
     46 H46        -8.1972   52.1209   27.7112 H         1 UNK         0.0000 
     47 H47        -6.9643   53.2682   27.1631 H         1 UNK         0.0000 
     48 H48        -4.1599   50.0812   26.1831 H         1 UNK         0.0000 
     49 H49        -1.9044   52.4663   23.5120 H         1 UNK         0.0000 
     50 H50         0.5342   52.6464   23.7412 H         1 UNK         0.0000 
     51 H51        -2.2736   52.0964   27.7706 H         1 UNK         0.0000 
     52 H52        -1.2371   52.1626   29.9279 H         1 UNK         0.0000 
     53 H53         0.4183   53.3996   31.5578 H         1 UNK         0.0000 
     54 H54         2.7261   52.7734   30.1305 H         1 UNK         0.0000 
     55 H55         2.2608   54.4772   30.0401 H         1 UNK         0.0000 
     56 H56         2.5104   52.5844   25.1985 H         1 UNK         0.0000 
     57 H57         4.5322   54.1264   29.2671 H         1 UNK         0.0000 
     58 H58         3.4397   53.5595   24.1875 H         1 UNK         0.0000 
     59 H59         5.1019   54.3516   22.5981 H         1 UNK         0.0000 
     60 H60         7.1132   55.5328   23.3470 H         1 UNK         0.0000 
     61 H61         7.5041   55.9765   25.7291 H         1 UNK         0.0000 
@<TRIPOS>BOND
     1    1    2 1    
     2    1   39 1    
     3    1   40 1    
     4    1   41 1    
     5    2    7 ar   
     6    2    3 ar   
     7    3    4 ar   
     8    3   42 1    
     9    4    5 ar   
    10    4   43 1    
    11    5    6 ar   
    12    5    9 1    
    13    6    7 ar   
    14    6    8 1    
    15    7   44 1    
    16    8   45 1    
    17    8   46 1    
    18    8   47 1    
    19    9   10 1    
    20    9   48 1    
    21   10   11 2    
    22   10   12 2    
    23   10   13 1    
    24   13   18 ar   
    25   13   14 ar   
    26   14   15 ar   
    27   14   49 1    
    28   15   16 ar   
    29   15   50 1    
    30   16   28 1    
    31   16   17 ar   
    32   17   18 ar   
    33   17   19 1    
    34   18   51 1    
    35   19   20 1    
    36   19   24 1    
    37   19   21 1    
    38   21   22 2    
    39   21   52 1    
    40   22   23 1    
    41   22   53 1    
    42   23   24 1    
    43   23   54 1    
    44   23   55 1    
    45   24   25 1    
    46   24   26 1    
    47   26   27 1    
    48   26   28 1    
    49   26   29 1    
    50   28   56 1    
    51   29   34 ar   
    52   29   30 ar   
    53   30   31 ar   
    54   30   57 1    
    55   31   32 1    
    56   31   33 ar   
    57   33   38 ar   
    58   33   34 ar   
    59   34   35 ar   
    60   35   36 ar   
    61   35   58 1    
    62   36   37 ar   
    63   36   59 1    
    64   37   38 ar   
    65   37   60 1    
    66   38   61 1    
@<TRIPOS>SUBSTRUCTURE
     1 UNK         1 GROUP             0       ****    0 ROOT    
