@<TRIPOS>MOLECULE
ZINC34681165_270
57   60    1
SMALL
USER_CHARGES


@<TRIPOS>ATOM
      1 C1         -8.0672   49.3917   29.3617 C.ar      1 UNK         0.0000 
      2 C2         -7.6348   50.3533   28.4513 C.ar      1 UNK         0.0000 
      3 C3         -6.2947   50.7317   28.4265 C.ar      1 UNK         0.0000 
      4 C4         -5.3865   50.1381   29.3161 C.ar      1 UNK         0.0000 
      5 C5         -5.8328   49.1819   30.2322 C.ar      1 UNK         0.0000 
      6 C6         -7.1730   48.8063   30.2542 C.ar      1 UNK         0.0000 
      7 N7         -4.0192   50.4536   29.3779 N.am      1 UNK         0.0000 
      8 C8         -3.2445   51.0920   28.4816 C.2       1 UNK         0.0000 
      9 O9         -3.5982   51.4733   27.3643 O.2       1 UNK         0.0000 
     10 N10        -2.0217   51.2966   29.0121 N.am      1 UNK         0.0000 
     11 C11        -0.8896   51.8512   28.4039 C.ar      1 UNK         0.0000 
     12 C12         0.0839   52.4142   29.2355 C.ar      1 UNK         0.0000 
     13 C13         1.1814   53.0661   28.6669 C.ar      1 UNK         0.0000 
     14 C14         1.3083   53.1471   27.2677 C.ar      1 UNK         0.0000 
     15 N15         0.3870   52.4964   26.5189 N.pl3     1 UNK         0.0000 
     16 C16        -0.6895   51.8641   27.0182 C.ar      1 UNK         0.0000 
     17 N17         2.3479   53.9081   26.6202 N.pl3     1 UNK         0.0000 
     18 C18         3.1770   54.8410   27.4040 C.3       1 UNK         0.0000 
     19 C19         4.6326   54.4141   27.5966 C.3       1 UNK         0.0000 
     20 C20         5.1853   53.5158   26.4884 C.3       1 UNK         0.0000 
     21 N21         4.9785   53.9199   25.0686 N.am      1 UNK         0.0000 
     22 C22         3.6533   53.6032   24.4618 C.3       1 UNK         0.0000 
     23 C23         2.3889   54.0805   25.1452 C.3       1 UNK         0.0000 
     24 C24         6.0308   54.4946   24.4043 C.2       1 UNK         0.0000 
     25 O25         6.9938   54.9451   25.0361 O.2       1 UNK         0.0000 
     26 C26         6.0884   54.5737   22.8750 C.ar      1 UNK         0.0000 
     27 C27         6.9440   55.5183   22.2844 C.ar      1 UNK         0.0000 
     28 C28         6.9948   55.6956   20.9044 C.ar      1 UNK         0.0000 
     29 C29         6.2030   54.9052   20.0823 C.ar      1 UNK         0.0000 
     30 C30         5.4055   53.9067   20.6297 C.ar      1 UNK         0.0000 
     31 C31         5.3805   53.7150   22.0113 C.ar      1 UNK         0.0000 
     32 F32         6.2424   55.0786   18.7428 F         1 UNK         0.0000 
     33 H33        -9.1072   49.0990   29.3775 H         1 UNK         0.0000 
     34 H34        -8.3365   50.8045   27.7661 H         1 UNK         0.0000 
     35 H35        -5.9858   51.4852   27.7196 H         1 UNK         0.0000 
     36 H36        -5.1429   48.7174   30.9232 H         1 UNK         0.0000 
     37 H37        -7.5158   48.0622   30.9581 H         1 UNK         0.0000 
     38 H38        -3.5282   50.0165   30.1462 H         1 UNK         0.0000 
     39 H39        -1.9005   51.0066   29.9729 H         1 UNK         0.0000 
     40 H40        -0.0281   52.3830   30.3121 H         1 UNK         0.0000 
     41 H41         1.9045   53.5172   29.3280 H         1 UNK         0.0000 
     42 H42        -1.3547   51.4112   26.2954 H         1 UNK         0.0000 
     43 H43         2.6923   55.1936   28.3138 H         1 UNK         0.0000 
     44 H44         3.1999   55.6963   26.7518 H         1 UNK         0.0000 
     45 H45         4.7286   53.8777   28.5420 H         1 UNK         0.0000 
     46 H46         5.2685   55.2927   27.7068 H         1 UNK         0.0000 
     47 H47         4.7799   52.5116   26.5892 H         1 UNK         0.0000 
     48 H48         6.2480   53.3556   26.6849 H         1 UNK         0.0000 
     49 H49         3.5501   54.0047   23.4588 H         1 UNK         0.0000 
     50 H50         3.5042   52.5186   24.4414 H         1 UNK         0.0000 
     51 H51         2.3465   55.1294   24.8815 H         1 UNK         0.0000 
     52 H52         1.5229   53.6154   24.6785 H         1 UNK         0.0000 
     53 H53         7.5839   56.1261   22.9045 H         1 UNK         0.0000 
     54 H54         7.6525   56.4304   20.4670 H         1 UNK         0.0000 
     55 H55         4.8382   53.2575   19.9775 H         1 UNK         0.0000 
     56 H56         4.8158   52.8718   22.3735 H         1 UNK         0.0000 
     57 H57         0.4956   52.5164   25.5155 H         1 UNK         0.0000 
@<TRIPOS>BOND
     1    1    6 ar   
     2    1    2 ar   
     3    1   33 1    
     4    2    3 ar   
     5    2   34 1    
     6    3    4 ar   
     7    3   35 1    
     8    4    5 ar   
     9    4    7 1    
    10    5    6 ar   
    11    5   36 1    
    12    6   37 1    
    13    7    8 am   BACKBONE|DICT|INTERRES
    14    7   38 1    
    15    8    9 2    
    16    8   10 am   BACKBONE|DICT|INTERRES
    17   10   11 1    
    18   10   39 1    
    19   11   16 ar   
    20   11   12 ar   
    21   12   13 ar   
    22   12   40 1    
    23   13   14 ar   
    24   13   41 1    
    25   14   15 ar   
    26   14   17 1    
    27   15   16 ar   
    28   15   57 1    
    29   16   42 1    
    30   17   23 1    
    31   17   18 1    
    32   18   19 1    
    33   18   43 1    
    34   18   44 1    
    35   19   20 1    
    36   19   45 1    
    37   19   46 1    
    38   20   21 1    
    39   20   47 1    
    40   20   48 1    
    41   21   22 1    
    42   21   24 am   BACKBONE|DICT|INTERRES
    43   22   23 1    
    44   22   49 1    
    45   22   50 1    
    46   23   51 1    
    47   23   52 1    
    48   24   25 2    
    49   24   26 1    
    50   26   31 ar   
    51   26   27 ar   
    52   27   28 ar   
    53   27   53 1    
    54   28   29 ar   
    55   28   54 1    
    56   29   30 ar   
    57   29   32 1    
    58   30   31 ar   
    59   30   55 1    
    60   31   56 1    
@<TRIPOS>SUBSTRUCTURE
     1 UNK         1 GROUP             0       ****    0 ROOT    
