@<TRIPOS>MOLECULE
ZINC36063053_5659
62   65    1
SMALL
USER_CHARGES


@<TRIPOS>ATOM
      1 C1          5.9779   55.3054   20.6124 C.3       1 UNK         0.0000 
      2 C2          4.9707   54.7390   19.5988 C.3       1 UNK         0.0000 
      3 O3          3.9045   54.0210   20.2167 O.3       1 UNK         0.0000 
      4 C4          4.0636   52.7438   20.6244 C.2       1 UNK         0.0000 
      5 O5          5.1249   52.1254   20.6211 O.2       1 UNK         0.0000 
      6 C6          2.8271   52.1117   21.0379 C.2       1 UNK         0.0000 
      7 C7          2.2191   52.2206   22.2725 C.2       1 UNK         0.0000 
      8 N8          1.0832   51.4832   22.5277 N.2       1 UNK         0.0000 
      9 C9          0.7487   50.5173   21.7606 C.2       1 UNK         0.0000 
     10 N10         1.3538   50.1762   20.5604 N.pl3     1 UNK         0.0000 
     11 C11         2.2997   51.1402   19.9473 C.3       1 UNK         0.0000 
     12 H12         3.1352   50.5318   19.5909 H         1 UNK         0.0000 
     13 C13         1.7051   51.8464   18.7196 C.ar      1 UNK         0.0000 
     14 C14         0.4697   52.4965   18.8000 C.ar      1 UNK         0.0000 
     15 C15        -0.0597   53.1363   17.6824 C.ar      1 UNK         0.0000 
     16 C16         0.6453   53.1283   16.4780 C.ar      1 UNK         0.0000 
     17 C17         1.8722   52.4691   16.3895 C.ar      1 UNK         0.0000 
     18 C18         2.4006   51.8323   17.5083 C.ar      1 UNK         0.0000 
     19 C19         0.0651   53.8152   15.2554 C.3       1 UNK         0.0000 
     20 C20         0.8626   49.0463   19.9306 C.2       1 UNK         0.0000 
     21 C21        -0.2170   48.5542   20.5657 C.2       1 UNK         0.0000 
     22 S22        -0.6597   49.4679   22.0102 S.3       1 UNK         0.0000 
     23 C23         1.4682   48.4650   18.7392 C.2       1 UNK         0.0000 
     24 C24         1.3646   47.2124   18.2670 C.2       1 UNK         0.0000 
     25 O25         0.7062   46.1946   18.7007 O.co2     1 UNK         0.0000 
     26 N26         2.0741   46.8770   17.1388 N.pl3     1 UNK         0.0000 
     27 C27         1.5469   46.3066   15.9072 C.3       1 UNK         0.0000 
     28 C28         0.8302   47.3746   15.0629 C.3       1 UNK         0.0000 
     29 C29         2.6778   45.6472   15.1058 C.3       1 UNK         0.0000 
     30 C30         2.6704   53.0282   23.4928 C.ar      1 UNK         0.0000 
     31 C31         3.9043   53.7088   23.5763 C.ar      1 UNK         0.0000 
     32 C32         4.3201   54.3578   24.7363 C.ar      1 UNK         0.0000 
     33 C33         3.5147   54.3408   25.8653 C.ar      1 UNK         0.0000 
     34 C34         2.2858   53.6964   25.8283 C.ar      1 UNK         0.0000 
     35 C35         1.8676   53.0723   24.6570 C.ar      1 UNK         0.0000 
     36 H36         6.7871   55.8247   20.0985 H         1 UNK         0.0000 
     37 H37         5.5043   56.0212   21.2813 H         1 UNK         0.0000 
     38 H38         6.4236   54.5140   21.2174 H         1 UNK         0.0000 
     39 H39         5.4790   54.1054   18.8688 H         1 UNK         0.0000 
     40 H40         4.5323   55.5606   19.0317 H         1 UNK         0.0000 
     41 H41        -0.0734   52.5102   19.7331 H         1 UNK         0.0000 
     42 H42        -1.0118   53.6410   17.7548 H         1 UNK         0.0000 
     43 H43         2.4190   52.4448   15.4581 H         1 UNK         0.0000 
     44 H44         3.3475   51.3148   17.4281 H         1 UNK         0.0000 
     45 H45        -1.0253   53.7795   15.2697 H         1 UNK         0.0000 
     46 H46         0.3814   54.8581   15.2164 H         1 UNK         0.0000 
     47 H47         0.3826   53.3166   14.3382 H         1 UNK         0.0000 
     48 H48        -0.7831   47.6819   20.2753 H         1 UNK         0.0000 
     49 H49         2.0949   49.1258   18.1567 H         1 UNK         0.0000 
     50 H50         2.8022   47.5446   16.9118 H         1 UNK         0.0000 
     51 H51         0.8244   45.5318   16.1727 H         1 UNK         0.0000 
     52 H52         0.4163   46.9463   14.1502 H         1 UNK         0.0000 
     53 H53         1.5095   48.1805   14.7794 H         1 UNK         0.0000 
     54 H54         0.0031   47.8234   15.6157 H         1 UNK         0.0000 
     55 H55         2.3007   45.1954   14.1878 H         1 UNK         0.0000 
     56 H56         3.4525   46.3699   14.8393 H         1 UNK         0.0000 
     57 H57         3.1555   44.8568   15.6870 H         1 UNK         0.0000 
     58 H58         4.6185   53.7438   22.7784 H         1 UNK         0.0000 
     59 H59         5.2786   54.8551   24.7624 H         1 UNK         0.0000 
     60 H60         3.8420   54.8291   26.7712 H         1 UNK         0.0000 
     61 H61         1.6538   53.6800   26.7038 H         1 UNK         0.0000 
     62 H62         0.9048   52.5848   24.6890 H         1 UNK         0.0000 
@<TRIPOS>BOND
     1    1    2 1    
     2    1   36 1    
     3    1   37 1    
     4    1   38 1    
     5    2    3 1    
     6    2   39 1    
     7    2   40 1    
     8    3    4 1    
     9    4    5 2    
    10    4    6 1    
    11    6   11 1    
    12    6    7 2    
    13    7    8 1    
    14    7   30 1    
    15    8    9 2    
    16    9   22 1    
    17    9   10 1    
    18   10   11 1    
    19   10   20 1    
    20   11   12 1    
    21   11   13 1    
    22   13   18 ar   
    23   13   14 ar   
    24   14   15 ar   
    25   14   41 1    
    26   15   16 ar   
    27   15   42 1    
    28   16   17 ar   
    29   16   19 1    
    30   17   18 ar   
    31   17   43 1    
    32   18   44 1    
    33   19   45 1    
    34   19   46 1    
    35   19   47 1    
    36   20   21 2    
    37   20   23 1    
    38   21   22 1    
    39   21   48 1    
    40   23   24 2    
    41   23   49 1    
    42   24   25 1    
    43   24   26 1    
    44   26   27 1    
    45   26   50 1    
    46   27   28 1    
    47   27   29 1    
    48   27   51 1    
    49   28   52 1    
    50   28   53 1    
    51   28   54 1    
    52   29   55 1    
    53   29   56 1    
    54   29   57 1    
    55   30   35 ar   
    56   30   31 ar   
    57   31   32 ar   
    58   31   58 1    
    59   32   33 ar   
    60   32   59 1    
    61   33   34 ar   
    62   33   60 1    
    63   34   35 ar   
    64   34   61 1    
    65   35   62 1    
@<TRIPOS>SUBSTRUCTURE
     1 UNK         1 GROUP             0       ****    0 ROOT    
