@<TRIPOS>MOLECULE
ZINC37136564_1832
42   44    1
SMALL
USER_CHARGES


@<TRIPOS>ATOM
      1 C1          5.4192   54.4974   24.6359 C.ar      1 UNK         0.0000 
      2 C2          5.2049   54.1413   23.3060 C.ar      1 UNK         0.0000 
      3 C3          3.9226   53.7762   22.8840 C.ar      1 UNK         0.0000 
      4 C4          2.8721   53.7316   23.7973 C.ar      1 UNK         0.0000 
      5 C5          3.1032   54.0497   25.1332 C.ar      1 UNK         0.0000 
      6 C6          4.3720   54.4598   25.5617 C.ar      1 UNK         0.0000 
      7 N7          4.6724   54.8692   26.8779 N.pl3     1 UNK         0.0000 
      8 C8          3.9880   54.4324   28.1032 C.3       1 UNK         0.0000 
      9 C9          3.9476   52.8971   28.1889 C.3       1 UNK         0.0000 
     10 C10         3.3027   52.4274   29.5120 C.3       1 UNK         0.0000 
     11 C11         1.9006   53.0303   29.6286 C.3       1 UNK         0.0000 
     12 C12         1.9562   54.5673   29.6413 C.3       1 UNK         0.0000 
     13 C13         2.6016   55.0872   28.3423 C.3       1 UNK         0.0000 
     14 O14         1.1141   52.6092   28.5558 O.3       1 UNK         0.0000 
     15 C15        -0.0890   52.0342   29.0084 C.3       1 UNK         0.0000 
     16 C16        -0.0952   52.3703   30.4906 C.3       1 UNK         0.0000 
     17 O17         1.2706   52.5725   30.7770 O.3       1 UNK         0.0000 
     18 N18         3.6564   53.4834   21.5402 N.am      1 UNK         0.0000 
     19 C19         4.2743   52.5223   20.8338 C.2       1 UNK         0.0000 
     20 O20         5.1042   51.7379   21.2811 O.2       1 UNK         0.0000 
     21 N21         3.9060   52.4967   19.5589 N.am      1 UNK         0.0000 
     22 H22         6.4099   54.7988   24.9406 H         1 UNK         0.0000 
     23 H23         6.0253   54.1727   22.6028 H         1 UNK         0.0000 
     24 H24         1.8812   53.4391   23.4801 H         1 UNK         0.0000 
     25 H25         2.2716   53.9695   25.8072 H         1 UNK         0.0000 
     26 H26         5.6571   55.0303   27.0222 H         1 UNK         0.0000 
     27 H27         4.6289   54.7327   28.9351 H         1 UNK         0.0000 
     28 H28         3.3670   52.4913   27.3631 H         1 UNK         0.0000 
     29 H29         4.9549   52.4909   28.0977 H         1 UNK         0.0000 
     30 H30         3.2363   51.3399   29.5583 H         1 UNK         0.0000 
     31 H31         3.9052   52.7635   30.3572 H         1 UNK         0.0000 
     32 H32         2.5646   54.8913   30.4815 H         1 UNK         0.0000 
     33 H33         0.9537   54.9743   29.7852 H         1 UNK         0.0000 
     34 H34         2.6977   56.1650   28.4320 H         1 UNK         0.0000 
     35 H35         1.8943   54.8964   27.5421 H         1 UNK         0.0000 
     36 H36        -0.9458   52.4961   28.5204 H         1 UNK         0.0000 
     37 H37        -0.0897   50.9560   28.8441 H         1 UNK         0.0000 
     38 H38        -0.6754   53.2570   30.7413 H         1 UNK         0.0000 
     39 H39        -0.4952   51.5296   31.0572 H         1 UNK         0.0000 
     40 H40         2.8757   53.9594   21.1117 H         1 UNK         0.0000 
     41 H41         3.2152   53.1305   19.1926 H         1 UNK         0.0000 
     42 H42         4.3473   51.8096   18.9510 H         1 UNK         0.0000 
@<TRIPOS>BOND
     1    1    6 ar   
     2    1    2 ar   
     3    1   22 1    
     4    2    3 ar   
     5    2   23 1    
     6    3    4 ar   
     7    3   18 1    
     8    4    5 ar   
     9    4   24 1    
    10    5    6 ar   
    11    5   25 1    
    12    6    7 1    
    13    7    8 1    
    14    7   26 1    
    15    8   13 1    
    16    8    9 1    
    17    8   27 1    
    18    9   10 1    
    19    9   28 1    
    20    9   29 1    
    21   10   11 1    
    22   10   30 1    
    23   10   31 1    
    24   11   17 1    
    25   11   12 1    
    26   11   14 1    
    27   12   13 1    
    28   12   32 1    
    29   12   33 1    
    30   13   34 1    
    31   13   35 1    
    32   14   15 1    
    33   15   16 1    
    34   15   36 1    
    35   15   37 1    
    36   16   17 1    
    37   16   38 1    
    38   16   39 1    
    39   18   19 am   BACKBONE|DICT|INTERRES
    40   18   40 1    
    41   19   20 2    
    42   19   21 am   BACKBONE|DICT|INTERRES
    43   21   41 1    
    44   21   42 1    
@<TRIPOS>SUBSTRUCTURE
     1 UNK         1 GROUP             0       ****    0 ROOT    
