@<TRIPOS>MOLECULE
ZINC58900646_852
51   53    1
SMALL
USER_CHARGES


@<TRIPOS>ATOM
      1 C1         -5.8778   43.1936   19.2099 C.3       1 UNK         0.0000 
      2 O2         -4.5180   43.2331   19.6324 O.3       1 UNK         0.0000 
      3 C3         -4.1406   44.1419   20.6081 C.ar      1 UNK         0.0000 
      4 C4         -5.0560   44.9328   21.3219 C.ar      1 UNK         0.0000 
      5 C5         -4.6185   45.8435   22.2803 C.ar      1 UNK         0.0000 
      6 C6         -3.2586   45.9881   22.5636 C.ar      1 UNK         0.0000 
      7 C7         -2.3472   45.1987   21.8502 C.ar      1 UNK         0.0000 
      8 C8         -2.7690   44.2766   20.8759 C.ar      1 UNK         0.0000 
      9 O9         -1.8954   43.4871   20.1460 O.3       1 UNK         0.0000 
     10 C10        -0.4930   43.6927   20.2736 C.3       1 UNK         0.0000 
     11 C11        -2.8310   46.9670   23.5710 C.2       1 UNK         0.0000 
     12 N12        -1.6546   47.0190   24.0794 N.2       1 UNK         0.0000 
     13 N13        -1.2963   48.0747   24.9024 N.am      1 UNK         0.0000 
     14 C14        -1.5829   49.4021   24.7631 C.2       1 UNK         0.0000 
     15 O15        -2.3495   49.8640   23.9116 O.2       1 UNK         0.0000 
     16 C16        -0.9288   50.3410   25.7516 C.ar      1 UNK         0.0000 
     17 C17        -1.5743   51.5378   26.0845 C.ar      1 UNK         0.0000 
     18 C18        -1.0190   52.4013   27.0207 C.ar      1 UNK         0.0000 
     19 C19         0.2003   52.1016   27.6191 C.ar      1 UNK         0.0000 
     20 C20         0.8671   50.9237   27.2816 C.ar      1 UNK         0.0000 
     21 C21         0.3043   50.0465   26.3531 C.ar      1 UNK         0.0000 
     22 N22         0.6501   52.9590   28.6301 N.am      1 UNK         0.0000 
     23 C23         1.8997   53.3669   28.9351 C.2       1 UNK         0.0000 
     24 O24         2.1322   53.7293   30.0860 O.2       1 UNK         0.0000 
     25 C25         2.9914   53.5043   27.8896 C.ar      1 UNK         0.0000 
     26 C26         2.7045   53.7060   26.5301 C.ar      1 UNK         0.0000 
     27 C27         3.7271   54.0136   25.6326 C.ar      1 UNK         0.0000 
     28 C28         5.0446   54.0963   26.0799 C.ar      1 UNK         0.0000 
     29 C29         5.3501   53.8553   27.4152 C.ar      1 UNK         0.0000 
     30 C30         4.3292   53.5620   28.3131 C.ar      1 UNK         0.0000 
     31 Br31        6.4431   54.5370   24.8658 Br        1 UNK         0.0000 
     32 H32        -5.9796   42.4963   18.3789 H         1 UNK         0.0000 
     33 H33        -6.5343   42.8527   20.0117 H         1 UNK         0.0000 
     34 H34        -6.2183   44.1684   18.8562 H         1 UNK         0.0000 
     35 H35        -6.1180   44.8605   21.1451 H         1 UNK         0.0000 
     36 H36        -5.3559   46.4391   22.8013 H         1 UNK         0.0000 
     37 H37        -1.2958   45.3219   22.0576 H         1 UNK         0.0000 
     38 H38         0.0304   43.0433   19.5720 H         1 UNK         0.0000 
     39 H39        -0.2141   44.7208   20.0371 H         1 UNK         0.0000 
     40 H40        -0.1438   43.4429   21.2766 H         1 UNK         0.0000 
     41 H41        -3.6117   47.6623   23.8713 H         1 UNK         0.0000 
     42 H42        -0.5025   47.8602   25.4903 H         1 UNK         0.0000 
     43 H43        -2.5262   51.7941   25.6404 H         1 UNK         0.0000 
     44 H44        -1.5470   53.3025   27.2802 H         1 UNK         0.0000 
     45 H45         1.8014   50.6657   27.7581 H         1 UNK         0.0000 
     46 H46         0.8345   49.1313   26.1277 H         1 UNK         0.0000 
     47 H47        -0.0498   53.2000   29.3139 H         1 UNK         0.0000 
     48 H48         1.6897   53.6949   26.1611 H         1 UNK         0.0000 
     49 H49         3.4969   54.1984   24.5935 H         1 UNK         0.0000 
     50 H50         6.3724   53.9156   27.7598 H         1 UNK         0.0000 
     51 H51         4.5876   53.4165   29.3530 H         1 UNK         0.0000 
@<TRIPOS>BOND
     1    1    2 1    
     2    1   32 1    
     3    1   33 1    
     4    1   34 1    
     5    2    3 1    
     6    3    8 ar   
     7    3    4 ar   
     8    4    5 ar   
     9    4   35 1    
    10    5    6 ar   
    11    5   36 1    
    12    6    7 ar   
    13    6   11 1    
    14    7    8 ar   
    15    7   37 1    
    16    8    9 1    
    17    9   10 1    
    18   10   38 1    
    19   10   39 1    
    20   10   40 1    
    21   11   12 2    
    22   11   41 1    
    23   12   13 1    
    24   13   14 am   BACKBONE|DICT|INTERRES
    25   13   42 1    
    26   14   15 2    
    27   14   16 1    
    28   16   21 ar   
    29   16   17 ar   
    30   17   18 ar   
    31   17   43 1    
    32   18   19 ar   
    33   18   44 1    
    34   19   20 ar   
    35   19   22 1    
    36   20   21 ar   
    37   20   45 1    
    38   21   46 1    
    39   22   23 am   BACKBONE|DICT|INTERRES
    40   22   47 1    
    41   23   24 2    
    42   23   25 1    
    43   25   30 ar   
    44   25   26 ar   
    45   26   27 ar   
    46   26   48 1    
    47   27   28 ar   
    48   27   49 1    
    49   28   29 ar   
    50   28   31 1    
    51   29   30 ar   
    52   29   50 1    
    53   30   51 1    
@<TRIPOS>SUBSTRUCTURE
     1 UNK         1 GROUP             0       ****    0 ROOT    
