@<TRIPOS>MOLECULE
ZINC00675116_3146
50   53    1
SMALL
USER_CHARGES


@<TRIPOS>ATOM
      1 C1          0.5076   52.9055   31.1439 C.3       1 UNK         0.0000 
      2 O2          1.7299   53.2863   30.5142 O.3       1 UNK         0.0000 
      3 C3          1.8280   53.2719   29.1342 C.ar      1 UNK         0.0000 
      4 C4          0.7893   52.8415   28.2908 C.ar      1 UNK         0.0000 
      5 C5          0.9496   52.8517   26.9071 C.ar      1 UNK         0.0000 
      6 C6          2.1460   53.2967   26.3370 C.ar      1 UNK         0.0000 
      7 C7          3.1879   53.6990   27.1703 C.ar      1 UNK         0.0000 
      8 C8          3.0381   53.7035   28.5675 C.ar      1 UNK         0.0000 
      9 O9          4.0325   54.1201   29.4362 O.3       1 UNK         0.0000 
     10 C10         5.2967   54.5053   28.9102 C.3       1 UNK         0.0000 
     11 N11         2.3984   53.2935   24.9576 N.am      1 UNK         0.0000 
     12 C12         1.5115   53.3962   23.9473 C.2       1 UNK         0.0000 
     13 O13         0.3230   53.6954   24.0817 O.2       1 UNK         0.0000 
     14 C14         2.0534   53.0725   22.6479 C.ar      1 UNK         0.0000 
     15 C15         3.3622   53.3239   22.1685 C.ar      1 UNK         0.0000 
     16 C16         3.3453   52.9124   20.8458 C.ar      1 UNK         0.0000 
     17 N17         2.0791   52.4113   20.6091 N.pl3     1 UNK         0.0000 
     18 N18         1.3118   52.5379   21.6973 N.2       1 UNK         0.0000 
     19 C19         1.5152   52.0540   19.2949 C.3       1 UNK         0.0000 
     20 H20         0.9835   52.9385   18.9424 H         1 UNK         0.0000 
     21 C21         2.7069   51.8026   18.3354 C.3       1 UNK         0.0000 
     22 C22         3.8352   52.8615   18.4636 C.3       1 UNK         0.0000 
     23 H23         4.6860   52.4959   17.8837 H         1 UNK         0.0000 
     24 N24         4.3063   52.8965   19.8535 N.pl3     1 UNK         0.0000 
     25 C25         3.5024   54.2302   17.8848 C.2       1 UNK         0.0000 
     26 C26         2.4086   54.7592   17.2086 C.2       1 UNK         0.0000 
     27 C27         2.7271   56.0761   16.8816 C.2       1 UNK         0.0000 
     28 C28         4.0022   56.3017   17.3600 C.2       1 UNK         0.0000 
     29 O29         4.4722   55.1820   17.9700 O.3       1 UNK         0.0000 
     30 Br30        5.1382   57.8276   17.2804 Br        1 UNK         0.0000 
     31 C31         0.4805   50.8987   19.3239 C.3       1 UNK         0.0000 
     32 F32         0.0935   50.5777   18.0880 F         1 UNK         0.0000 
     33 F33         0.9849   49.7945   19.8753 F         1 UNK         0.0000 
     34 F34        -0.6222   51.2283   19.9983 F         1 UNK         0.0000 
     35 Br35        4.8561   54.0964   23.0736 Br        1 UNK         0.0000 
     36 H36         0.6203   52.9724   32.2264 H         1 UNK         0.0000 
     37 H37         0.2336   51.8768   30.9090 H         1 UNK         0.0000 
     38 H38        -0.3115   53.5637   30.8556 H         1 UNK         0.0000 
     39 H39        -0.1465   52.4853   28.6891 H         1 UNK         0.0000 
     40 H40         0.1396   52.4963   26.2883 H         1 UNK         0.0000 
     41 H41         4.1124   54.0123   26.7134 H         1 UNK         0.0000 
     42 H42         5.9051   54.8970   29.7197 H         1 UNK         0.0000 
     43 H43         5.8223   53.6509   28.4764 H         1 UNK         0.0000 
     44 H44         5.2195   55.2960   28.1658 H         1 UNK         0.0000 
     45 H45         3.3617   53.1577   24.6937 H         1 UNK         0.0000 
     46 H46         3.1045   50.8041   18.5278 H         1 UNK         0.0000 
     47 H47         2.3575   51.7398   17.3049 H         1 UNK         0.0000 
     48 H48         5.1738   53.3999   19.9669 H         1 UNK         0.0000 
     49 H49         1.4907   54.2437   16.9689 H         1 UNK         0.0000 
     50 H50         2.1088   56.7824   16.3476 H         1 UNK         0.0000 
@<TRIPOS>BOND
     1    1    2 1    
     2    1   36 1    
     3    1   37 1    
     4    1   38 1    
     5    2    3 1    
     6    3    8 ar   
     7    3    4 ar   
     8    4    5 ar   
     9    4   39 1    
    10    5    6 ar   
    11    5   40 1    
    12    6    7 ar   
    13    6   11 1    
    14    7    8 ar   
    15    7   41 1    
    16    8    9 1    
    17    9   10 1    
    18   10   42 1    
    19   10   43 1    
    20   10   44 1    
    21   11   12 am   BACKBONE|DICT|INTERRES
    22   11   45 1    
    23   12   13 2    
    24   12   14 1    
    25   14   18 ar   
    26   14   15 ar   
    27   15   16 ar   
    28   15   35 1    
    29   16   24 1    
    30   16   17 ar   
    31   17   18 ar   
    32   17   19 1    
    33   19   20 1    
    34   19   21 1    
    35   19   31 1    
    36   21   22 1    
    37   21   46 1    
    38   21   47 1    
    39   22   23 1    
    40   22   24 1    
    41   22   25 1    
    42   24   48 1    
    43   25   29 1    
    44   25   26 2    
    45   26   27 1    
    46   26   49 1    
    47   27   28 2    
    48   27   50 1    
    49   28   29 1    
    50   28   30 1    
    51   31   32 1    
    52   31   33 1    
    53   31   34 1    
@<TRIPOS>SUBSTRUCTURE
     1 UNK         1 GROUP             0       ****    0 ROOT    
