@<TRIPOS>MOLECULE
ZINC14005141_3609
51   53    1
SMALL
USER_CHARGES


@<TRIPOS>ATOM
      1 C1          4.1026   54.3312   22.0469 C.3       1 UNK         0.0000 
      2 C2          3.6813   54.0968   23.4931 C.ar      1 UNK         0.0000 
      3 C3          4.5808   54.4285   24.5104 C.ar      1 UNK         0.0000 
      4 C4          4.2421   54.2327   25.8436 C.ar      1 UNK         0.0000 
      5 C5          3.0012   53.6969   26.1704 C.ar      1 UNK         0.0000 
      6 C6          2.0898   53.3419   25.1713 C.ar      1 UNK         0.0000 
      7 C7          2.4204   53.5567   23.8165 C.ar      1 UNK         0.0000 
      8 N8          1.5050   53.2834   22.7836 N.pl3     1 UNK         0.0000 
      9 S9          1.4357   51.6698   22.0551 S.o2      1 UNK         0.0000 
     10 O10         2.8031   51.1421   22.0238 O.2       1 UNK         0.0000 
     11 O11         0.6645   51.8321   20.8179 O.2       1 UNK         0.0000 
     12 C12         0.4668   50.6302   23.1387 C.ar      1 UNK         0.0000 
     13 C13        -0.9246   50.7469   23.1371 C.ar      1 UNK         0.0000 
     14 C14        -1.6855   49.9397   23.9770 C.ar      1 UNK         0.0000 
     15 C15        -1.0487   49.0140   24.8095 C.ar      1 UNK         0.0000 
     16 C16         0.3382   48.9064   24.8184 C.ar      1 UNK         0.0000 
     17 C17         1.1012   49.7062   23.9711 C.ar      1 UNK         0.0000 
     18 N18        -1.7866   48.2055   25.6816 N.pl3     1 UNK         0.0000 
     19 C19        -2.6960   47.2268   25.4028 C.2       1 UNK         0.0000 
     20 S20        -3.0415   46.6899   23.8394 S.2       1 UNK         0.0000 
     21 N21        -3.2904   46.8056   26.5647 N.am      1 UNK         0.0000 
     22 C22        -4.2538   45.8894   26.8186 C.2       1 UNK         0.0000 
     23 O23        -4.4877   44.8973   26.1205 O.2       1 UNK         0.0000 
     24 C24        -5.1036   46.1956   28.0342 C.ar      1 UNK         0.0000 
     25 C25        -4.6032   46.9546   29.1088 C.ar      1 UNK         0.0000 
     26 C26        -5.4257   47.3011   30.1770 C.ar      1 UNK         0.0000 
     27 C27        -6.7561   46.8861   30.2020 C.ar      1 UNK         0.0000 
     28 C28        -7.2587   46.1053   29.1590 C.ar      1 UNK         0.0000 
     29 C29        -6.4386   45.7620   28.0833 C.ar      1 UNK         0.0000 
     30 Cl30       -8.8950   45.5654   29.2042 Cl        1 UNK         0.0000 
     31 C31         0.7433   52.7852   25.6133 C.3       1 UNK         0.0000 
     32 H32         5.0338   54.8928   21.9691 H         1 UNK         0.0000 
     33 H33         4.2233   53.3830   21.5261 H         1 UNK         0.0000 
     34 H34         3.3372   54.8964   21.5191 H         1 UNK         0.0000 
     35 H35         5.5509   54.8400   24.2685 H         1 UNK         0.0000 
     36 H36         4.9421   54.4924   26.6253 H         1 UNK         0.0000 
     37 H37         2.7531   53.5458   27.2117 H         1 UNK         0.0000 
     38 H38         1.7115   53.8797   21.9960 H         1 UNK         0.0000 
     39 H39        -1.4115   51.4605   22.4876 H         1 UNK         0.0000 
     40 H40        -2.7613   50.0318   23.9810 H         1 UNK         0.0000 
     41 H41         0.8315   48.1980   25.4704 H         1 UNK         0.0000 
     42 H42         2.1785   49.6237   23.9769 H         1 UNK         0.0000 
     43 H43        -1.5506   48.3199   26.6664 H         1 UNK         0.0000 
     44 H44        -3.1077   47.4301   27.3420 H         1 UNK         0.0000 
     45 H45        -3.5769   47.2982   29.1279 H         1 UNK         0.0000 
     46 H46        -5.0301   47.9026   30.9810 H         1 UNK         0.0000 
     47 H47        -7.3928   47.1565   31.0341 H         1 UNK         0.0000 
     48 H48        -6.8561   45.1752   27.2747 H         1 UNK         0.0000 
     49 H49         0.4380   53.2207   26.5662 H         1 UNK         0.0000 
     50 H50        -0.0487   53.0130   24.8985 H         1 UNK         0.0000 
     51 H51         0.8052   51.7075   25.7593 H         1 UNK         0.0000 
@<TRIPOS>BOND
     1    1    2 1    
     2    1   32 1    
     3    1   33 1    
     4    1   34 1    
     5    2    7 ar   
     6    2    3 ar   
     7    3    4 ar   
     8    3   35 1    
     9    4    5 ar   
    10    4   36 1    
    11    5    6 ar   
    12    5   37 1    
    13    6    7 ar   
    14    6   31 1    
    15    7    8 1    
    16    8    9 1    
    17    8   38 1    
    18    9   10 2    
    19    9   11 2    
    20    9   12 1    
    21   12   17 ar   
    22   12   13 ar   
    23   13   14 ar   
    24   13   39 1    
    25   14   15 ar   
    26   14   40 1    
    27   15   16 ar   
    28   15   18 1    
    29   16   17 ar   
    30   16   41 1    
    31   17   42 1    
    32   18   19 1    
    33   18   43 1    
    34   19   20 2    
    35   19   21 am   BACKBONE|DICT|INTERRES
    36   21   22 am   BACKBONE|DICT|INTERRES
    37   21   44 1    
    38   22   23 2    
    39   22   24 1    
    40   24   29 ar   
    41   24   25 ar   
    42   25   26 ar   
    43   25   45 1    
    44   26   27 ar   
    45   26   46 1    
    46   27   28 ar   
    47   27   47 1    
    48   28   29 ar   
    49   28   30 1    
    50   29   48 1    
    51   31   49 1    
    52   31   50 1    
    53   31   51 1    
@<TRIPOS>SUBSTRUCTURE
     1 UNK         1 GROUP             0       ****    0 ROOT    
