ZINC16007103_723
                    3D
 Schrodinger Suite 2024-2.
 60 66  0  0  1  0            999 V2000
   -7.0157   46.8164   24.1324 C   0  0  0  0  0  0
   -6.1425   47.2495   25.1259 C   0  0  0  0  0  0
   -4.8811   47.7328   24.7825 C   0  0  0  0  0  0
   -4.4657   47.8097   23.4449 C   0  0  0  0  0  0
   -5.3512   47.3344   22.4550 C   0  0  0  0  0  0
   -6.6214   46.8598   22.7976 C   0  0  0  0  0  0
   -4.9641   47.4101   21.0381 C   0  0  0  0  0  0
   -3.9122   48.1250   20.6035 C   0  0  0  0  0  0
   -3.0631   48.3018   23.0062 C   0  0  2  0  0  0
   -2.4774   47.3878   22.8764 H   0  0  0  0  0  0
   -2.2579   49.3985   23.7753 C   0  0  1  0  0  0
   -3.0972   50.4250   24.5093 C   0  0  0  0  0  0
   -4.0330   51.3589   24.0571 C   0  0  0  0  0  0
   -4.6810   52.1895   24.9747 C   0  0  0  0  0  0
   -4.4029   52.0790   26.3404 C   0  0  0  0  0  0
   -3.4769   51.1361   26.7951 C   0  0  0  0  0  0
   -2.8370   50.3200   25.8636 C   0  0  0  0  0  0
   -1.9304   49.2979   26.0815 N   0  0  0  0  0  0
   -1.5087   48.7133   24.9438 C   0  0  0  0  0  0
   -0.7108   47.7854   24.8317 O   0  0  0  0  0  0
   -1.2104   49.8958   22.6861 C   0  0  1  0  0  0
   -0.2146   49.4994   22.9011 H   0  0  0  0  0  0
   -1.6842   49.3684   21.2894 C   0  0  1  0  0  0
   -1.7937   50.1204   20.5059 H   0  0  0  0  0  0
   -0.7795   48.2368   20.7226 C   0  0  0  0  0  0
   -1.1243   47.0542   20.7627 O   0  0  0  0  0  0
    0.4869   48.6362   20.1176 C   0  0  0  0  0  0
    1.1429   49.8607   20.0257 C   0  0  0  0  0  0
    2.3041   49.6405   19.2849 C   0  0  0  0  0  0
    2.3044   48.2989   18.9469 C   0  0  0  0  0  0
    1.2106   47.6842   19.4667 O   0  0  0  0  0  0
   -1.0192   51.4388   22.6169 C   0  0  0  0  0  0
   -1.7304   52.0964   21.8529 O   0  0  0  0  0  0
    0.1931   52.0259   23.2567 C   0  0  0  0  0  0
    0.4489   51.8271   24.6181 C   0  0  0  0  0  0
    1.5025   52.4976   25.2354 C   0  0  0  0  0  0
    2.3045   53.3618   24.4960 C   0  0  0  0  0  0
    2.0659   53.5596   23.1401 C   0  0  0  0  0  0
    1.0090   52.8973   22.5224 C   0  0  0  0  0  0
    3.3191   54.0194   25.1010 F   0  0  0  0  0  0
   -7.9958   46.4453   24.3966 H   0  0  0  0  0  0
   -6.4402   47.2091   26.1638 H   0  0  0  0  0  0
   -4.2272   48.0400   25.5820 H   0  0  0  0  0  0
   -7.3086   46.5239   22.0338 H   0  0  0  0  0  0
   -5.5538   46.8780   20.3040 H   0  0  0  0  0  0
   -3.6362   48.2207   19.5617 H   0  0  0  0  0  0
   -4.2657   51.4460   23.0074 H   0  0  0  0  0  0
   -5.4069   52.9111   24.6274 H   0  0  0  0  0  0
   -4.9154   52.7180   27.0437 H   0  0  0  0  0  0
   -3.2755   51.0365   27.8527 H   0  0  0  0  0  0
   -1.6958   48.9257   27.0180 H   0  0  0  0  0  0
    0.8229   50.8083   20.4303 H   0  0  0  0  0  0
    3.0572   50.3652   19.0007 H   0  0  0  0  0  0
    2.9876   47.6903   18.3709 H   0  0  0  0  0  0
   -0.1776   51.1889   25.2207 H   0  0  0  0  0  0
    1.6942   52.3570   26.2889 H   0  0  0  0  0  0
    2.6884   54.2374   22.5733 H   0  0  0  0  0  0
    0.8196   53.0905   21.4746 H   0  0  0  0  0  0
   -3.1289   48.9008   21.5804 N   0  3  1  0  0  0
   -3.6445   49.7616   21.7020 H   0  0  0  0  0  0
  1  6  2  0  0  0
  1  2  1  0  0  0
  1 41  1  0  0  0
  2  3  2  0  0  0
  2 42  1  0  0  0
  3  4  1  0  0  0
  3 43  1  0  0  0
  4  9  1  0  0  0
  4  5  2  0  0  0
  5  6  1  0  0  0
  5  7  1  0  0  0
  6 44  1  0  0  0
  7  8  2  0  0  0
  7 45  1  0  0  0
  8 46  1  0  0  0
  8 59  1  0  0  0
  9 10  1  0  0  0
  9 11  1  0  0  0
  9 59  1  0  0  0
 11 19  1  0  0  0
 11 12  1  0  0  0
 11 21  1  0  0  0
 12 17  2  0  0  0
 12 13  1  0  0  0
 13 14  2  0  0  0
 13 47  1  0  0  0
 14 15  1  0  0  0
 14 48  1  0  0  0
 15 16  2  0  0  0
 15 49  1  0  0  0
 16 17  1  0  0  0
 16 50  1  0  0  0
 17 18  1  0  0  0
 18 19  1  0  0  0
 18 51  1  0  0  0
 19 20  2  0  0  0
 21 22  1  0  0  0
 21 23  1  0  0  0
 21 32  1  0  0  0
 23 24  1  0  0  0
 23 25  1  0  0  0
 23 59  1  0  0  0
 25 26  2  0  0  0
 25 27  1  0  0  0
 27 31  1  0  0  0
 27 28  2  0  0  0
 28 29  1  0  0  0
 28 52  1  0  0  0
 29 30  2  0  0  0
 29 53  1  0  0  0
 30 31  1  0  0  0
 30 54  1  0  0  0
 32 33  2  0  0  0
 32 34  1  0  0  0
 34 39  2  0  0  0
 34 35  1  0  0  0
 35 36  2  0  0  0
 35 55  1  0  0  0
 36 37  1  0  0  0
 36 56  1  0  0  0
 37 38  2  0  0  0
 37 40  1  0  0  0
 38 39  1  0  0  0
 38 57  1  0  0  0
 39 58  1  0  0  0
 59 60  1  0  0  0
M  CHG  1  59   1
M  END
> <i_i_glide_confnum>
5

> <i_i_glide_lignum>
724

> <i_i_glide_posenum>
363

> <i_i_glide_rotatable_bonds>
4

> <i_m_Source_File_Index>
3849

> <b_m_subgroup_collapsed>
0

> <r_i_docking_score>
-3.96106

> <r_i_glide_ecoul>
-9.95616

> <r_i_glide_eff_state_penalty>
0

> <r_i_glide_einternal>
4.44735

> <r_i_glide_emodel>
-44.8932

> <r_i_glide_energy>
-36.453

> <r_i_glide_erotb>
0.320159

> <r_i_glide_esite>
-0.158941

> <r_i_glide_evdw>
-26.4968

> <r_i_glide_gscore>
-3.96106

> <r_i_glide_hbond>
-0.145591

> <r_i_glide_ligand_efficiency>
-0.104238

> <r_i_glide_ligand_efficiency_ln>
-0.854121

> <r_i_glide_ligand_efficiency_sa>
-0.350447

> <r_i_glide_lipo>
-0.82062

> <r_i_glide_metal>
0

> <r_i_glide_rewards>
-0.337803

> <s_i_glide_gridfile>
wee1_glide-grid

> <s_m_Source_File>
wee1_decoys_glide_SP.sdf

> <s_m_Source_Path>
/Users/zhangxujun/Desktop

> <s_m_entry_id>
4124

> <s_m_entry_name>
wee1_decoys_glide_SP.3849

> <s_m_subgroup_title>
wee1_decoys_glide_SP

> <s_m_subgroupid>
wee1_decoys_glide_SP


$$$$
