ZINC02636033_913
                    3D
 Schrodinger Suite 2024-2.
 63 66  0  0  1  0            999 V2000
   -2.4913   50.7273   26.6132 C   0  0  0  0  0  0
   -1.2573   51.2980   27.2878 C   0  0  0  0  0  0
   -0.0809   51.4737   26.5597 C   0  0  0  0  0  0
    1.0568   51.9626   27.1938 C   0  0  0  0  0  0
    1.0147   52.2708   28.5523 C   0  0  0  0  0  0
   -0.1594   52.0970   29.2852 C   0  0  0  0  0  0
   -1.2956   51.6144   28.6459 C   0  0  0  0  0  0
    2.4822   52.8633   29.3708 S   0  0  0  0  0  0
    3.3388   51.6976   29.6168 O   0  0  0  0  0  0
    2.0193   53.6947   30.4817 O   0  0  0  0  0  0
    3.2650   53.9440   28.2161 N   0  0  0  0  0  0
    2.6991   55.2961   28.0819 C   0  0  0  0  0  0
    4.6945   53.7493   27.8746 C   0  0  0  0  0  0
    5.0455   54.0913   26.4260 C   0  0  0  0  0  0
    4.1292   53.9191   25.3823 C   0  0  0  0  0  0
    4.5192   54.1158   24.0598 C   0  0  0  0  0  0
    5.8319   54.5154   23.7603 C   0  0  0  0  0  0
    6.7199   54.7315   24.8197 C   0  0  0  0  0  0
    6.3402   54.5107   26.1389 C   0  0  0  0  0  0
    6.3039   54.7264   22.3317 C   0  0  0  0  0  0
    7.5024   54.8969   22.0838 O   0  0  0  0  0  0
    5.3484   54.7171   21.3712 N   0  0  0  0  0  0
    5.6752   54.9041   20.0151 N   0  0  0  0  0  0
    6.1163   56.0975   19.5503 C   0  0  0  0  0  0
    6.3108   57.0901   20.2557 O   0  0  0  0  0  0
    6.3384   56.2001   18.0378 C   0  0  0  0  0  0
    5.1691   56.8919   17.3596 C   0  0  0  0  0  0
    5.0942   58.1984   16.8812 C   0  0  0  0  0  0
    3.8772   58.4981   16.3494 O   0  0  0  0  0  0
    3.1273   57.3743   16.4785 C   0  0  0  0  0  0
    3.8716   56.3368   17.0837 C   0  0  0  0  0  0
    3.2428   55.0955   17.2800 C   0  0  0  0  0  0
    1.9108   54.9437   16.8805 C   0  0  0  0  0  0
    1.1919   55.9935   16.3014 C   0  0  0  0  0  0
    1.7935   57.2345   16.0805 C   0  0  0  0  0  0
   -0.2534   55.7802   15.8920 C   0  0  0  0  0  0
   -2.2203   50.1024   25.7615 H   0  0  0  0  0  0
   -3.0353   50.0844   27.3060 H   0  0  0  0  0  0
   -3.1548   51.5257   26.2806 H   0  0  0  0  0  0
   -0.0454   51.2191   25.5103 H   0  0  0  0  0  0
    1.9669   52.0958   26.6325 H   0  0  0  0  0  0
   -0.1971   52.3176   30.3440 H   0  0  0  0  0  0
   -2.1969   51.4447   29.2167 H   0  0  0  0  0  0
    2.9719   55.6965   27.1123 H   0  0  0  0  0  0
    1.6136   55.2589   28.1694 H   0  0  0  0  0  0
    3.0825   55.9331   28.8813 H   0  0  0  0  0  0
    4.9794   52.7158   28.0743 H   0  0  0  0  0  0
    5.2872   54.3638   28.5541 H   0  0  0  0  0  0
    3.1201   53.5949   25.5767 H   0  0  0  0  0  0
    3.7876   53.9432   23.2823 H   0  0  0  0  0  0
    7.7305   55.0560   24.6268 H   0  0  0  0  0  0
    7.0586   54.6458   26.9356 H   0  0  0  0  0  0
    4.3852   54.9547   21.5613 H   0  0  0  0  0  0
    5.6270   54.0584   19.4670 H   0  0  0  0  0  0
    6.5234   55.2145   17.6081 H   0  0  0  0  0  0
    7.2647   56.7564   17.8872 H   0  0  0  0  0  0
    5.8004   59.0194   16.8765 H   0  0  0  0  0  0
    3.7725   54.2704   17.7340 H   0  0  0  0  0  0
    1.4268   53.9889   17.0371 H   0  0  0  0  0  0
    1.2583   58.0590   15.6322 H   0  0  0  0  0  0
   -0.5020   56.3784   15.0146 H   0  0  0  0  0  0
   -0.4350   54.7390   15.6224 H   0  0  0  0  0  0
   -0.9230   56.0562   16.7070 H   0  0  0  0  0  0
  1  2  1  0  0  0
  1 37  1  0  0  0
  1 38  1  0  0  0
  1 39  1  0  0  0
  2  7  2  0  0  0
  2  3  1  0  0  0
  3  4  2  0  0  0
  3 40  1  0  0  0
  4  5  1  0  0  0
  4 41  1  0  0  0
  5  6  2  0  0  0
  5  8  1  0  0  0
  6  7  1  0  0  0
  6 42  1  0  0  0
  7 43  1  0  0  0
  8  9  2  0  0  0
  8 10  2  0  0  0
  8 11  1  0  0  0
 11 12  1  0  0  0
 11 13  1  0  0  0
 12 44  1  0  0  0
 12 45  1  0  0  0
 12 46  1  0  0  0
 13 14  1  0  0  0
 13 47  1  0  0  0
 13 48  1  0  0  0
 14 19  2  0  0  0
 14 15  1  0  0  0
 15 16  2  0  0  0
 15 49  1  0  0  0
 16 17  1  0  0  0
 16 50  1  0  0  0
 17 18  2  0  0  0
 17 20  1  0  0  0
 18 19  1  0  0  0
 18 51  1  0  0  0
 19 52  1  0  0  0
 20 21  2  0  0  0
 20 22  1  0  0  0
 22 23  1  0  0  0
 22 53  1  0  0  0
 23 24  1  0  0  0
 23 54  1  0  0  0
 24 25  2  0  0  0
 24 26  1  0  0  0
 26 27  1  0  0  0
 26 55  1  0  0  0
 26 56  1  0  0  0
 27 31  1  0  0  0
 27 28  2  0  0  0
 28 29  1  0  0  0
 28 57  1  0  0  0
 29 30  1  0  0  0
 30 35  2  0  0  0
 30 31  1  0  0  0
 31 32  2  0  0  0
 32 33  1  0  0  0
 32 58  1  0  0  0
 33 34  2  0  0  0
 33 59  1  0  0  0
 34 35  1  0  0  0
 34 36  1  0  0  0
 35 60  1  0  0  0
 36 61  1  0  0  0
 36 62  1  0  0  0
 36 63  1  0  0  0
M  END
> <i_i_glide_confnum>
168

> <i_i_glide_lignum>
914

> <i_i_glide_posenum>
382

> <i_i_glide_rotatable_bonds>
10

> <i_m_Source_File_Index>
2007

> <b_m_subgroup_collapsed>
0

> <r_i_docking_score>
-5.50469

> <r_i_glide_ecoul>
-8.2023

> <r_i_glide_eff_state_penalty>
0

> <r_i_glide_einternal>
8.43529

> <r_i_glide_emodel>
-66.2514

> <r_i_glide_energy>
-53.9879

> <r_i_glide_erotb>
0.800193

> <r_i_glide_esite>
-0.013011

> <r_i_glide_evdw>
-45.7856

> <r_i_glide_gscore>
-5.50469

> <r_i_glide_hbond>
-0.216266

> <r_i_glide_ligand_efficiency>
-0.152908

> <r_i_glide_ligand_efficiency_ln>
-1.20098

> <r_i_glide_ligand_efficiency_sa>
-0.504892

> <r_i_glide_lipo>
-2.47984

> <r_i_glide_metal>
0

> <r_i_glide_rewards>
-0.0761427

> <s_i_glide_gridfile>
wee1_glide-grid

> <s_m_Source_File>
wee1_decoys_glide_SP.sdf

> <s_m_Source_Path>
/Users/zhangxujun/Desktop

> <s_m_entry_id>
2282

> <s_m_entry_name>
wee1_decoys_glide_SP.2007

> <s_m_subgroup_title>
wee1_decoys_glide_SP

> <s_m_subgroupid>
wee1_decoys_glide_SP


$$$$
