ZINC39733319_5352
                    3D
 Schrodinger Suite 2024-2.
 59 63  0  0  1  0            999 V2000
    0.7312   51.4235   18.1638 C   0  0  0  0  0  0
    2.0818   50.7071   18.2968 C   0  0  2  0  0  0
    2.6410   50.7953   17.3620 H   0  0  0  0  0  0
    1.8272   49.1865   18.5367 C   0  0  0  0  0  0
    1.9118   48.6927   19.6627 O   0  0  0  0  0  0
    1.5044   48.4645   17.4396 N   0  0  0  0  0  0
    1.2094   47.0890   17.3651 C   0  0  0  0  0  0
    0.5630   46.3898   18.3979 C   0  0  0  0  0  0
    0.3016   45.0257   18.2697 C   0  0  0  0  0  0
    0.6852   44.3462   17.1139 C   0  0  0  0  0  0
    1.3252   45.0327   16.0831 C   0  0  0  0  0  0
    1.5837   46.3988   16.2026 C   0  0  0  0  0  0
    2.2037   47.0397   15.1823 F   0  0  0  0  0  0
    3.0978   51.2975   19.3318 N   0  3  0  0  0  0
    3.6480   52.6780   18.8799 C   0  0  0  0  0  0
    4.6382   53.2359   19.9377 C   0  0  0  0  0  0
    4.0474   53.3062   21.2897 N   0  0  0  0  0  0
    3.5901   51.9633   21.6819 C   0  0  0  0  0  0
    2.4857   51.4845   20.7405 C   0  0  0  0  0  0
    5.0401   53.8589   22.2407 C   0  0  0  0  0  0
    4.6259   54.0967   23.7116 C   0  0  0  0  0  0
    3.3805   54.0004   24.0421 N   0  0  0  0  0  0
    3.0179   53.9310   25.4012 C   0  0  0  0  0  0
    1.8908   53.6962   25.8250 O   0  0  0  0  0  0
    4.1181   54.1012   26.3747 C   0  0  0  0  0  0
    4.1407   54.0429   27.7317 C   0  0  0  0  0  0
    5.5128   54.2011   28.3601 C   0  0  0  0  0  0
    6.7046   54.4969   27.0498 S   0  0  0  0  0  0
    5.4438   54.3088   25.8251 C   0  0  0  0  0  0
    5.7005   54.3388   24.5680 N   0  0  0  0  0  0
    3.0082   53.8273   28.6268 C   0  0  0  0  0  0
    1.8200   54.5517   28.7125 C   0  0  0  0  0  0
    0.9439   54.0685   29.6906 C   0  0  0  0  0  0
    1.4533   52.9726   30.3698 C   0  0  0  0  0  0
    3.0341   52.5401   29.8021 S   0  0  0  0  0  0
    0.1513   51.0011   17.3404 H   0  0  0  0  0  0
    0.1444   51.3339   19.0790 H   0  0  0  0  0  0
    0.8796   52.4811   17.9485 H   0  0  0  0  0  0
    1.7084   48.8984   16.5504 H   0  0  0  0  0  0
    0.2473   46.8955   19.2982 H   0  0  0  0  0  0
   -0.2002   44.4972   19.0669 H   0  0  0  0  0  0
    0.4859   43.2897   17.0128 H   0  0  0  0  0  0
    1.6197   44.5092   15.1857 H   0  0  0  0  0  0
    4.1698   52.4960   17.9382 H   0  0  0  0  0  0
    2.8059   53.3538   18.7259 H   0  0  0  0  0  0
    5.4940   52.5576   19.9821 H   0  0  0  0  0  0
    4.9836   54.2196   19.6155 H   0  0  0  0  0  0
    3.1289   51.9746   22.6681 H   0  0  0  0  0  0
    4.4248   51.2588   21.6838 H   0  0  0  0  0  0
    1.6609   52.1976   20.6753 H   0  0  0  0  0  0
    2.1091   50.5352   21.1130 H   0  0  0  0  0  0
    5.9033   53.1894   22.2484 H   0  0  0  0  0  0
    5.4267   54.7965   21.8392 H   0  0  0  0  0  0
    5.8168   53.2942   28.8818 H   0  0  0  0  0  0
    5.5481   55.0358   29.0618 H   0  0  0  0  0  0
    1.5921   55.3970   28.0796 H   0  0  0  0  0  0
   -0.0271   54.4958   29.8930 H   0  0  0  0  0  0
    0.9762   52.4104   31.1618 H   0  0  0  0  0  0
    3.8850   50.6564   19.3679 H   0  0  0  0  0  0
  1  2  1  0  0  0
  1 36  1  0  0  0
  1 37  1  0  0  0
  1 38  1  0  0  0
  2  3  1  0  0  0
  2  4  1  0  0  0
  2 14  1  0  0  0
  4  5  2  0  0  0
  4  6  1  0  0  0
  6  7  1  0  0  0
  6 39  1  0  0  0
  7 12  2  0  0  0
  7  8  1  0  0  0
  8  9  2  0  0  0
  8 40  1  0  0  0
  9 10  1  0  0  0
  9 41  1  0  0  0
 10 11  2  0  0  0
 10 42  1  0  0  0
 11 12  1  0  0  0
 11 43  1  0  0  0
 12 13  1  0  0  0
 14 19  1  0  0  0
 14 15  1  0  0  0
 14 59  1  0  0  0
 15 16  1  0  0  0
 15 44  1  0  0  0
 15 45  1  0  0  0
 16 17  1  0  0  0
 16 46  1  0  0  0
 16 47  1  0  0  0
 17 18  1  0  0  0
 17 20  1  0  0  0
 18 19  1  0  0  0
 18 48  1  0  0  0
 18 49  1  0  0  0
 19 50  1  0  0  0
 19 51  1  0  0  0
 20 21  1  0  0  0
 20 52  1  0  0  0
 20 53  1  0  0  0
 21 30  1  0  0  0
 21 22  2  0  0  0
 22 23  1  0  0  0
 23 24  2  0  0  0
 23 25  1  0  0  0
 25 29  1  0  0  0
 25 26  2  0  0  0
 26 27  1  0  0  0
 26 31  1  0  0  0
 27 28  1  0  0  0
 27 54  1  0  0  0
 27 55  1  0  0  0
 28 29  1  0  0  0
 29 30  2  0  0  0
 31 35  1  0  0  0
 31 32  2  0  0  0
 32 33  1  0  0  0
 32 56  1  0  0  0
 33 34  2  0  0  0
 33 57  1  0  0  0
 34 35  1  0  0  0
 34 58  1  0  0  0
M  CHG  1  14   1
M  END
> <i_i_glide_confnum>
16

> <i_i_glide_lignum>
5353

> <i_i_glide_posenum>
165

> <i_i_glide_rotatable_bonds>
7

> <i_m_Source_File_Index>
3440

> <b_m_subgroup_collapsed>
0

> <r_i_docking_score>
-6.0368

> <r_i_glide_ecoul>
-1.83323

> <r_i_glide_eff_state_penalty>
0

> <r_i_glide_einternal>
14.804

> <r_i_glide_emodel>
-66.7521

> <r_i_glide_energy>
-52.3965

> <r_i_glide_erotb>
0.492492

> <r_i_glide_esite>
-0.342808

> <r_i_glide_evdw>
-50.5633

> <r_i_glide_gscore>
-6.0368

> <r_i_glide_hbond>
-0.131569

> <r_i_glide_ligand_efficiency>
-0.177553

> <r_i_glide_ligand_efficiency_ln>
-1.3337

> <r_i_glide_ligand_efficiency_sa>
-0.575202

> <r_i_glide_lipo>
-2.15575

> <r_i_glide_metal>
0

> <r_i_glide_rewards>
-1.09601

> <s_i_glide_gridfile>
wee1_glide-grid

> <s_m_Source_File>
wee1_decoys_glide_SP.sdf

> <s_m_Source_Path>
/Users/zhangxujun/Desktop

> <s_m_entry_id>
3715

> <s_m_entry_name>
wee1_decoys_glide_SP.3440

> <s_m_subgroup_title>
wee1_decoys_glide_SP

> <s_m_subgroupid>
wee1_decoys_glide_SP


$$$$
