@<TRIPOS>MOLECULE
ZINC38700682_2477
54   58    1
SMALL
USER_CHARGES


@<TRIPOS>ATOM
      1 C1          9.8896   49.5362   13.9282 C.3       1 UNK         0.0000 
      2 S2         10.4134   50.4118   15.4332 S.3       1 UNK         0.0000 
      3 C3          9.1990   51.6339   15.8610 C.ar      1 UNK         0.0000 
      4 C4          9.4978   52.5366   16.8817 C.ar      1 UNK         0.0000 
      5 C5          8.5563   53.4870   17.2705 C.ar      1 UNK         0.0000 
      6 C6          7.3095   53.5416   16.6349 C.ar      1 UNK         0.0000 
      7 C7          7.0254   52.6454   15.5960 C.ar      1 UNK         0.0000 
      8 C8          7.9671   51.6972   15.2077 C.ar      1 UNK         0.0000 
      9 C9          6.2559   54.5621   17.0794 C.3       1 UNK         0.0000 
     10 H10         5.3306   54.3012   16.5549 H         1 UNK         0.0000 
     11 C11         5.9417   54.4826   18.5808 C.ar      1 UNK         0.0000 
     12 C12         5.3386   53.3546   19.1518 C.ar      1 UNK         0.0000 
     13 C13         5.0286   53.3107   20.5098 C.ar      1 UNK         0.0000 
     14 C14         5.3432   54.3915   21.3359 C.ar      1 UNK         0.0000 
     15 C15         5.9391   55.5283   20.7839 C.ar      1 UNK         0.0000 
     16 C16         6.2166   55.5805   19.4212 C.ar      1 UNK         0.0000 
     17 O17         6.7215   56.7754   18.9477 O.3       1 UNK         0.0000 
     18 C18         6.7869   56.9652   17.6049 C.2       1 UNK         0.0000 
     19 C19         6.5799   56.0052   16.6805 C.2       1 UNK         0.0000 
     20 C20         6.6549   56.3155   15.2873 C.1       1 UNK         0.0000 
     21 N21         6.7263   56.5806   14.1641 N.1       1 UNK         0.0000 
     22 N22         7.0518   58.2918   17.3711 N.pl3     1 UNK         0.0000 
     23 O23         4.9945   54.3663   22.6651 O.3       1 UNK         0.0000 
     24 C24         5.9532   54.1974   23.6144 C.2       1 UNK         0.0000 
     25 O25         7.1036   53.7888   23.4190 O.2       1 UNK         0.0000 
     26 C26         5.4454   54.5779   25.0162 C.3       1 UNK         0.0000 
     27 H27         5.3820   55.6666   25.0343 H         1 UNK         0.0000 
     28 C28         6.4106   54.1363   26.1508 C.3       1 UNK         0.0000 
     29 O29         5.8985   54.5711   27.4118 O.3       1 UNK         0.0000 
     30 C30         4.5759   54.2336   27.6028 C.ar      1 UNK         0.0000 
     31 C31         4.1084   54.1457   28.9148 C.ar      1 UNK         0.0000 
     32 C32         2.7702   53.8190   29.1498 C.ar      1 UNK         0.0000 
     33 C33         1.9030   53.5918   28.0783 C.ar      1 UNK         0.0000 
     34 C34         2.3647   53.6967   26.7657 C.ar      1 UNK         0.0000 
     35 C35         3.6973   54.0269   26.5268 C.ar      1 UNK         0.0000 
     36 O36         4.1065   54.0927   25.2113 O.3       1 UNK         0.0000 
     37 H37        10.6751   48.8506   13.6149 H         1 UNK         0.0000 
     38 H38         9.7137   50.2355   13.1110 H         1 UNK         0.0000 
     39 H39         8.9830   48.9563   14.1096 H         1 UNK         0.0000 
     40 H40        10.4524   52.4905   17.3863 H         1 UNK         0.0000 
     41 H41         8.7928   54.1735   18.0708 H         1 UNK         0.0000 
     42 H42         6.0706   52.6754   15.0924 H         1 UNK         0.0000 
     43 H43         7.7217   51.0066   14.4164 H         1 UNK         0.0000 
     44 H44         5.1013   52.4990   18.5309 H         1 UNK         0.0000 
     45 H45         4.5462   52.4353   20.9197 H         1 UNK         0.0000 
     46 H46         6.1583   56.3815   21.4097 H         1 UNK         0.0000 
     47 H47         7.1845   58.6111   16.4226 H         1 UNK         0.0000 
     48 H48         6.7679   58.9975   18.0394 H         1 UNK         0.0000 
     49 H49         6.5061   53.0500   26.1637 H         1 UNK         0.0000 
     50 H50         7.4074   54.5520   26.0101 H         1 UNK         0.0000 
     51 H51         4.7802   54.3326   29.7377 H         1 UNK         0.0000 
     52 H52         2.3988   53.7372   30.1604 H         1 UNK         0.0000 
     53 H53         0.8698   53.3344   28.2668 H         1 UNK         0.0000 
     54 H54         1.6933   53.5179   25.9377 H         1 UNK         0.0000 
@<TRIPOS>BOND
     1    1    2 1    
     2    1   37 1    
     3    1   38 1    
     4    1   39 1    
     5    2    3 1    
     6    3    8 ar   
     7    3    4 ar   
     8    4    5 ar   
     9    4   40 1    
    10    5    6 ar   
    11    5   41 1    
    12    6    7 ar   
    13    6    9 1    
    14    7    8 ar   
    15    7   42 1    
    16    8   43 1    
    17    9   10 1    
    18    9   19 1    
    19    9   11 1    
    20   11   16 ar   
    21   11   12 ar   
    22   12   13 ar   
    23   12   44 1    
    24   13   14 ar   
    25   13   45 1    
    26   14   15 ar   
    27   14   23 1    
    28   15   16 ar   
    29   15   46 1    
    30   16   17 1    
    31   17   18 1    
    32   18   19 2    
    33   18   22 1    
    34   19   20 1    
    35   20   21 3    
    36   22   47 1    
    37   22   48 1    
    38   23   24 1    
    39   24   25 2    
    40   24   26 1    
    41   26   27 1    
    42   26   36 1    
    43   26   28 1    
    44   28   29 1    
    45   28   49 1    
    46   28   50 1    
    47   29   30 1    
    48   30   35 ar   
    49   30   31 ar   
    50   31   32 ar   
    51   31   51 1    
    52   32   33 ar   
    53   32   52 1    
    54   33   34 ar   
    55   33   53 1    
    56   34   35 ar   
    57   34   54 1    
    58   35   36 1    
@<TRIPOS>SUBSTRUCTURE
     1 UNK         1 GROUP             0       ****    0 ROOT    
