@<TRIPOS>MOLECULE
ZINC46810199_224
60   62    1
SMALL
USER_CHARGES


@<TRIPOS>ATOM
      1 C1         -0.1600   52.3991   30.4888 C.3       1 UNK         0.0000 
      2 C2          0.4021   51.9137   29.1426 C.3       1 UNK         0.0000 
      3 C3         -0.6758   51.8345   28.0507 C.3       1 UNK         0.0000 
      4 N4          1.5399   52.7095   28.6936 N.am      1 UNK         0.0000 
      5 C5          2.7927   52.6669   29.1932 C.2       1 UNK         0.0000 
      6 O6          3.1156   51.8697   30.0771 O.2       1 UNK         0.0000 
      7 N7          3.6703   53.5255   28.6078 N.am      1 UNK         0.0000 
      8 C8          3.2570   54.7724   27.9177 C.3       1 UNK         0.0000 
      9 C9          3.9871   54.7799   26.5587 C.3       1 UNK         0.0000 
     10 C10         5.5184   54.7568   26.8044 C.3       1 UNK         0.0000 
     11 C11         5.8541   53.4348   27.5268 C.3       1 UNK         0.0000 
     12 C12         5.1177   53.4134   28.8841 C.3       1 UNK         0.0000 
     13 C13         6.2532   54.8240   25.4546 C.2       1 UNK         0.0000 
     14 O14         7.0958   55.6967   25.2782 O.2       1 UNK         0.0000 
     15 N15         5.9249   53.9256   24.5105 N.am      1 UNK         0.0000 
     16 C16         6.3884   53.9432   23.1160 C.3       1 UNK         0.0000 
     17 C17         5.3828   53.3694   22.0543 C.3       1 UNK         0.0000 
     18 H18         5.5954   52.3046   21.9422 H         1 UNK         0.0000 
     19 C19         5.4107   54.0430   20.6744 C.2       1 UNK         0.0000 
     20 C20         5.1178   53.4856   19.4251 C.2       1 UNK         0.0000 
     21 C21         5.2490   54.3507   18.3382 C.2       1 UNK         0.0000 
     22 C22         5.6667   55.6089   18.7172 C.2       1 UNK         0.0000 
     23 S23         5.9054   55.6991   20.4246 S.3       1 UNK         0.0000 
     24 N24         3.9309   53.2967   22.6079 N.4       1 UNK         0.0000 
     25 C25         3.1692   54.6118   22.7926 C.3       1 UNK         0.0000 
     26 C26         1.7692   54.1337   23.1422 C.3       1 UNK         0.0000 
     27 C27         1.5451   52.8621   22.3261 C.3       1 UNK         0.0000 
     28 C28         2.9281   52.3876   21.8636 C.3       1 UNK         0.0000 
     29 H29        -1.0230   51.8020   30.7836 H         1 UNK         0.0000 
     30 H30        -0.4896   53.4357   30.4412 H         1 UNK         0.0000 
     31 H31         0.5687   52.2964   31.2928 H         1 UNK         0.0000 
     32 H32         0.7624   50.8960   29.2813 H         1 UNK         0.0000 
     33 H33        -1.5635   51.3208   28.4225 H         1 UNK         0.0000 
     34 H34        -0.9953   52.8216   27.7180 H         1 UNK         0.0000 
     35 H35        -0.3307   51.2583   27.1918 H         1 UNK         0.0000 
     36 H36         1.3677   53.3098   27.9037 H         1 UNK         0.0000 
     37 H37         2.1810   54.8679   27.7687 H         1 UNK         0.0000 
     38 H38         3.5753   55.6193   28.5266 H         1 UNK         0.0000 
     39 H39         3.6292   53.9048   26.0134 H         1 UNK         0.0000 
     40 H40         3.6784   55.6972   26.0612 H         1 UNK         0.0000 
     41 H41         5.8473   55.6386   27.3637 H         1 UNK         0.0000 
     42 H42         6.9186   53.3700   27.7617 H         1 UNK         0.0000 
     43 H43         5.5172   52.5489   26.9833 H         1 UNK         0.0000 
     44 H44         5.4193   54.2727   29.4857 H         1 UNK         0.0000 
     45 H45         5.3711   52.4984   29.4204 H         1 UNK         0.0000 
     46 H46         5.4414   53.0993   24.8250 H         1 UNK         0.0000 
     47 H47         6.6930   54.9576   22.8541 H         1 UNK         0.0000 
     48 H48         7.3226   53.3803   23.0695 H         1 UNK         0.0000 
     49 H49         4.8045   52.4610   19.2960 H         1 UNK         0.0000 
     50 H50         5.0482   54.0601   17.3161 H         1 UNK         0.0000 
     51 H51         5.8559   56.4678   18.0886 H         1 UNK         0.0000 
     52 H52         3.6606   55.2036   23.5622 H         1 UNK         0.0000 
     53 H53         3.2249   55.1401   21.8405 H         1 UNK         0.0000 
     54 H54         1.6938   53.9337   24.2127 H         1 UNK         0.0000 
     55 H55         1.0398   54.9000   22.9029 H         1 UNK         0.0000 
     56 H56         0.9220   53.0677   21.4547 H         1 UNK         0.0000 
     57 H57         1.0364   52.0957   22.9146 H         1 UNK         0.0000 
     58 H58         3.0595   52.5656   20.7966 H         1 UNK         0.0000 
     59 H59         3.1627   51.3428   22.0803 H         1 UNK         0.0000 
     60 H60         4.0349   52.9136   23.5344 H         1 UNK         0.0000 
@<TRIPOS>BOND
     1    1    2 1    
     2    1   29 1    
     3    1   30 1    
     4    1   31 1    
     5    2    3 1    
     6    2    4 1    
     7    2   32 1    
     8    3   33 1    
     9    3   34 1    
    10    3   35 1    
    11    4    5 am   BACKBONE|DICT|INTERRES
    12    4   36 1    
    13    5    6 2    
    14    5    7 am   BACKBONE|DICT|INTERRES
    15    7   12 1    
    16    7    8 1    
    17    8    9 1    
    18    8   37 1    
    19    8   38 1    
    20    9   10 1    
    21    9   39 1    
    22    9   40 1    
    23   10   11 1    
    24   10   13 1    
    25   10   41 1    
    26   11   12 1    
    27   11   42 1    
    28   11   43 1    
    29   12   44 1    
    30   12   45 1    
    31   13   14 2    
    32   13   15 am   BACKBONE|DICT|INTERRES
    33   15   16 1    
    34   15   46 1    
    35   16   17 1    
    36   16   47 1    
    37   16   48 1    
    38   17   18 1    
    39   17   19 1    
    40   17   24 1    
    41   19   23 1    
    42   19   20 2    
    43   20   21 1    
    44   20   49 1    
    45   21   22 2    
    46   21   50 1    
    47   22   23 1    
    48   22   51 1    
    49   24   28 1    
    50   24   25 1    
    51   24   60 1    
    52   25   26 1    
    53   25   52 1    
    54   25   53 1    
    55   26   27 1    
    56   26   54 1    
    57   26   55 1    
    58   27   28 1    
    59   27   56 1    
    60   27   57 1    
    61   28   58 1    
    62   28   59 1    
@<TRIPOS>SUBSTRUCTURE
     1 UNK         1 GROUP             0       ****    0 ROOT    
