@<TRIPOS>MOLECULE
ZINC03012269_2431
54   58    1
SMALL
USER_CHARGES


@<TRIPOS>ATOM
      1 C1          6.9882   55.4688   25.2458 C.3       1 UNK         0.0000 
      2 C2          5.6187   54.8275   25.2104 C.ar      1 UNK         0.0000 
      3 C3          4.9108   54.5997   26.3899 C.ar      1 UNK         0.0000 
      4 C4          3.6621   53.9814   26.3454 C.ar      1 UNK         0.0000 
      5 C5          3.1060   53.5929   25.1222 C.ar      1 UNK         0.0000 
      6 C6          3.8174   53.8300   23.9225 C.ar      1 UNK         0.0000 
      7 C7          5.0687   54.4497   23.9873 C.ar      1 UNK         0.0000 
      8 C8          3.3309   53.3696   22.5534 C.3       1 UNK         0.0000 
      9 N9          1.8848   52.8982   25.1910 N.am      1 UNK         0.0000 
     10 C10         0.7674   53.1896   24.5010 C.2       1 UNK         0.0000 
     11 O11         0.7044   54.0968   23.6809 O.2       1 UNK         0.0000 
     12 C12        -0.4002   52.3992   24.8321 C.ar      1 UNK         0.0000 
     13 C13        -0.4901   51.3666   25.7904 C.ar      1 UNK         0.0000 
     14 C14        -1.8099   50.9684   25.8039 C.ar      1 UNK         0.0000 
     15 N15        -2.4384   51.7310   24.8452 N.pl3     1 UNK         0.0000 
     16 N16        -1.5804   52.5917   24.2717 N.2       1 UNK         0.0000 
     17 C17        -3.8738   51.7453   24.5473 C.3       1 UNK         0.0000 
     18 H18        -3.9870   51.8240   23.4636 H         1 UNK         0.0000 
     19 C19        -4.4504   50.3763   25.0124 C.3       1 UNK         0.0000 
     20 C20        -3.9407   49.9093   26.3999 C.3       1 UNK         0.0000 
     21 H21        -4.3118   50.5895   27.1665 H         1 UNK         0.0000 
     22 N22        -2.4790   49.9714   26.4788 N.pl3     1 UNK         0.0000 
     23 C23        -4.4936   48.5372   26.7804 C.ar      1 UNK         0.0000 
     24 C24        -5.5018   48.4311   27.7590 C.ar      1 UNK         0.0000 
     25 C25        -5.9876   47.1796   28.1647 C.ar      1 UNK         0.0000 
     26 C26        -5.4510   46.0511   27.5504 C.ar      1 UNK         0.0000 
     27 C27        -4.4884   46.1437   26.5871 C.ar      1 UNK         0.0000 
     28 C28        -3.9782   47.3714   26.1792 C.ar      1 UNK         0.0000 
     29 O29        -4.1393   44.8958   26.1734 O.3       1 UNK         0.0000 
     30 C30        -5.0326   44.0157   26.8121 C.3       1 UNK         0.0000 
     31 O31        -5.7287   44.7435   27.7898 O.3       1 UNK         0.0000 
     32 C32        -4.6105   52.9675   25.1524 C.3       1 UNK         0.0000 
     33 F33        -5.9165   52.9142   24.9008 F         1 UNK         0.0000 
     34 F34        -4.4707   53.0352   26.4777 F         1 UNK         0.0000 
     35 F35        -4.1670   54.1152   24.6414 F         1 UNK         0.0000 
     36 H36         7.0984   56.0971   26.1277 H         1 UNK         0.0000 
     37 H37         7.1468   56.0973   24.3700 H         1 UNK         0.0000 
     38 H38         7.7503   54.6947   25.2534 H         1 UNK         0.0000 
     39 H39         5.3297   54.8824   27.3451 H         1 UNK         0.0000 
     40 H40         3.1312   53.8024   27.2699 H         1 UNK         0.0000 
     41 H41         5.6330   54.6202   23.0812 H         1 UNK         0.0000 
     42 H42         2.6403   54.0999   22.1273 H         1 UNK         0.0000 
     43 H43         4.1613   53.2266   21.8582 H         1 UNK         0.0000 
     44 H44         2.8237   52.4028   22.6228 H         1 UNK         0.0000 
     45 H45         1.8076   52.2067   25.9164 H         1 UNK         0.0000 
     46 H46         0.2950   50.9592   26.4154 H         1 UNK         0.0000 
     47 H47        -5.5403   50.4104   25.0157 H         1 UNK         0.0000 
     48 H48        -4.2133   49.6246   24.2596 H         1 UNK         0.0000 
     49 H49        -2.0987   49.5763   27.3438 H         1 UNK         0.0000 
     50 H50        -5.8957   49.3186   28.2316 H         1 UNK         0.0000 
     51 H51        -6.7423   47.1020   28.9361 H         1 UNK         0.0000 
     52 H52        -3.1951   47.4312   25.4386 H         1 UNK         0.0000 
     53 H53        -4.4956   43.1891   27.2827 H         1 UNK         0.0000 
     54 H54        -5.7524   43.6352   26.0842 H         1 UNK         0.0000 
@<TRIPOS>BOND
     1    1    2 1    
     2    1   36 1    
     3    1   37 1    
     4    1   38 1    
     5    2    7 ar   
     6    2    3 ar   
     7    3    4 ar   
     8    3   39 1    
     9    4    5 ar   
    10    4   40 1    
    11    5    6 ar   
    12    5    9 1    
    13    6    7 ar   
    14    6    8 1    
    15    7   41 1    
    16    8   42 1    
    17    8   43 1    
    18    8   44 1    
    19    9   10 am   BACKBONE|DICT|INTERRES
    20    9   45 1    
    21   10   11 2    
    22   10   12 1    
    23   12   16 ar   
    24   12   13 ar   
    25   13   14 ar   
    26   13   46 1    
    27   14   22 1    
    28   14   15 ar   
    29   15   16 ar   
    30   15   17 1    
    31   17   18 1    
    32   17   19 1    
    33   17   32 1    
    34   19   20 1    
    35   19   47 1    
    36   19   48 1    
    37   20   21 1    
    38   20   22 1    
    39   20   23 1    
    40   22   49 1    
    41   23   28 ar   
    42   23   24 ar   
    43   24   25 ar   
    44   24   50 1    
    45   25   26 ar   
    46   25   51 1    
    47   26   31 1    
    48   26   27 ar   
    49   27   28 ar   
    50   27   29 1    
    51   28   52 1    
    52   29   30 1    
    53   30   31 1    
    54   30   53 1    
    55   30   54 1    
    56   32   33 1    
    57   32   34 1    
    58   32   35 1    
@<TRIPOS>SUBSTRUCTURE
     1 UNK         1 GROUP             0       ****    0 ROOT    
