@<TRIPOS>MOLECULE
ZINC59363683_3647
51   53    1
SMALL
USER_CHARGES


@<TRIPOS>ATOM
      1 C1          6.8585   55.2955   23.2642 C.3       1 UNK         0.0000 
      2 C2          5.9109   54.1162   23.5443 C.3       1 UNK         0.0000 
      3 H3          6.4757   53.1868   23.5059 H         1 UNK         0.0000 
      4 C4          4.7791   54.0808   22.4963 C.2       1 UNK         0.0000 
      5 O5          3.6511   54.4967   22.7763 O.2       1 UNK         0.0000 
      6 N6          5.1041   53.5876   21.2918 N.am      1 UNK         0.0000 
      7 C7          4.1741   53.4585   20.1660 C.3       1 UNK         0.0000 
      8 H8          3.5361   54.3448   20.1311 H         1 UNK         0.0000 
      9 C9          4.9492   53.4001   18.8176 C.3       1 UNK         0.0000 
     10 C10         5.5955   54.7172   18.3074 C.3       1 UNK         0.0000 
     11 C11         4.5538   55.8049   17.9839 C.3       1 UNK         0.0000 
     12 C12         6.7146   55.2665   19.2138 C.3       1 UNK         0.0000 
     13 C13         3.2408   52.2592   20.3719 C.ar      1 UNK         0.0000 
     14 N14         3.3609   51.0752   19.6819 N.pl3     1 UNK         0.0000 
     15 H15         4.0955   50.8956   18.9883 H         1 UNK         0.0000 
     16 C16         2.3203   50.2623   20.0598 C.ar      1 UNK         0.0000 
     17 C17         1.9014   48.9873   19.6735 C.ar      1 UNK         0.0000 
     18 C18         0.7519   48.4965   20.3005 C.ar      1 UNK         0.0000 
     19 C19         0.0664   49.2291   21.2722 C.ar      1 UNK         0.0000 
     20 C20         0.4956   50.5002   21.6582 C.ar      1 UNK         0.0000 
     21 C21         1.6348   51.0276   21.0343 C.ar      1 UNK         0.0000 
     22 N22         2.2317   52.2460   21.2136 N.2       1 UNK         0.0000 
     23 N23         5.2977   54.2295   24.8666 N.am      1 UNK         0.0000 
     24 C24         5.8780   54.2972   26.0718 C.2       1 UNK         0.0000 
     25 O25         7.0946   54.3403   26.2537 O.2       1 UNK         0.0000 
     26 C26         4.9566   54.2910   27.1804 C.2       1 UNK         0.0000 
     27 C27         5.2935   54.3859   28.5246 C.2       1 UNK         0.0000 
     28 C28         4.1892   54.3318   29.3756 C.2       1 UNK         0.0000 
     29 C29         2.9867   54.1998   28.7007 C.2       1 UNK         0.0000 
     30 S30         3.2251   54.0971   26.9896 S.3       1 UNK         0.0000 
     31 Br31        1.2365   54.1233   29.4411 Br        1 UNK         0.0000 
     32 H32         7.5036   55.0765   22.4131 H         1 UNK         0.0000 
     33 H33         6.3054   56.1945   23.0286 H         1 UNK         0.0000 
     34 H34         7.5037   55.5329   24.1057 H         1 UNK         0.0000 
     35 H35         6.0258   53.2026   21.1583 H         1 UNK         0.0000 
     36 H36         5.7205   52.6309   18.8763 H         1 UNK         0.0000 
     37 H37         4.2675   53.0536   18.0394 H         1 UNK         0.0000 
     38 H38         6.0741   54.4621   17.3590 H         1 UNK         0.0000 
     39 H39         4.0575   56.1700   18.8816 H         1 UNK         0.0000 
     40 H40         5.0203   56.6642   17.5005 H         1 UNK         0.0000 
     41 H41         3.7847   55.4304   17.3067 H         1 UNK         0.0000 
     42 H42         6.3210   55.6632   20.1505 H         1 UNK         0.0000 
     43 H43         7.4509   54.4981   19.4530 H         1 UNK         0.0000 
     44 H44         7.2502   56.0797   18.7237 H         1 UNK         0.0000 
     45 H45         2.4333   48.4165   18.9256 H         1 UNK         0.0000 
     46 H46         0.3837   47.5182   20.0264 H         1 UNK         0.0000 
     47 H47        -0.8138   48.8033   21.7327 H         1 UNK         0.0000 
     48 H48        -0.0375   51.0667   22.4069 H         1 UNK         0.0000 
     49 H49         4.2880   54.2518   24.8211 H         1 UNK         0.0000 
     50 H50         6.3062   54.4928   28.8816 H         1 UNK         0.0000 
     51 H51         4.2761   54.3895   30.4471 H         1 UNK         0.0000 
@<TRIPOS>BOND
     1    1    2 1    
     2    1   32 1    
     3    1   33 1    
     4    1   34 1    
     5    2    3 1    
     6    2    4 1    
     7    2   23 1    
     8    4    5 2    
     9    4    6 am   BACKBONE|DICT|INTERRES
    10    6    7 1    
    11    6   35 1    
    12    7    8 1    
    13    7    9 1    
    14    7   13 1    
    15    9   10 1    
    16    9   36 1    
    17    9   37 1    
    18   10   11 1    
    19   10   12 1    
    20   10   38 1    
    21   11   39 1    
    22   11   40 1    
    23   11   41 1    
    24   12   42 1    
    25   12   43 1    
    26   12   44 1    
    27   13   22 ar   
    28   13   14 ar   
    29   14   15 1    
    30   14   16 ar   
    31   16   21 ar   
    32   16   17 ar   
    33   17   18 ar   
    34   17   45 1    
    35   18   19 ar   
    36   18   46 1    
    37   19   20 ar   
    38   19   47 1    
    39   20   21 ar   
    40   20   48 1    
    41   21   22 ar   
    42   23   24 am   BACKBONE|DICT|INTERRES
    43   23   49 1    
    44   24   25 2    
    45   24   26 1    
    46   26   30 1    
    47   26   27 2    
    48   27   28 1    
    49   27   50 1    
    50   28   29 2    
    51   28   51 1    
    52   29   30 1    
    53   29   31 1    
@<TRIPOS>SUBSTRUCTURE
     1 UNK         1 GROUP             0       ****    0 ROOT    
