@<TRIPOS>MOLECULE
ZINC20153335_2021
46   48    1
SMALL
USER_CHARGES


@<TRIPOS>ATOM
      1 C1          5.4179   54.6260   25.3106 C.ar      1 UNK         0.0000 
      2 C2          4.7415   54.4973   26.5164 C.ar      1 UNK         0.0000 
      3 C3          3.4584   53.9474   26.5729 C.ar      1 UNK         0.0000 
      4 C4          2.8375   53.4892   25.3807 C.ar      1 UNK         0.0000 
      5 C5          3.5179   53.6970   24.1635 C.ar      1 UNK         0.0000 
      6 C6          4.8130   54.2313   24.1146 C.ar      1 UNK         0.0000 
      7 N7          5.5367   54.3598   22.8247 N.pl3     1 UNK         0.0000 
      8 O8          4.9843   53.9661   21.8024 O.co2     1 UNK         0.0000 
      9 O9          6.6598   54.8555   22.8299 O.co2     1 UNK         0.0000 
     10 C10         1.4861   52.7807   25.3787 C.2       1 UNK         0.0000 
     11 O11         0.7047   52.8963   26.3224 O.2       1 UNK         0.0000 
     12 N12         1.2377   51.9697   24.3163 N.am      1 UNK         0.0000 
     13 C13         0.0646   51.4442   23.8366 C.2       1 UNK         0.0000 
     14 S14        -1.4771   52.0984   24.0702 S.2       1 UNK         0.0000 
     15 N15         0.3012   50.3125   23.1056 N.pl3     1 UNK         0.0000 
     16 C16        -0.6124   49.4764   22.4430 C.ar      1 UNK         0.0000 
     17 C17        -0.9880   48.2802   23.0615 C.ar      1 UNK         0.0000 
     18 C18        -1.8580   47.3702   22.4321 C.ar      1 UNK         0.0000 
     19 C19        -2.3702   47.7125   21.1579 C.ar      1 UNK         0.0000 
     20 C20        -1.9830   48.9061   20.5439 C.ar      1 UNK         0.0000 
     21 C21        -1.1015   49.7854   21.1663 C.ar      1 UNK         0.0000 
     22 Cl22       -0.6529   51.2390   20.3352 Cl        1 UNK         0.0000 
     23 Cl23       -3.5086   46.7393   20.2830 Cl        1 UNK         0.0000 
     24 C24        -2.2151   46.0965   23.1468 C.2       1 UNK         0.0000 
     25 O25        -2.1776   46.0972   24.3983 O.co2     1 UNK         0.0000 
     26 O26        -2.4956   45.0716   22.4814 O.co2     1 UNK         0.0000 
     27 N27         2.8666   53.9059   27.8390 N.pl3     1 UNK         0.0000 
     28 C28         1.9610   54.9239   28.3627 C.3       1 UNK         0.0000 
     29 C29         1.5850   54.5049   29.7765 C.3       1 UNK         0.0000 
     30 C30         1.7112   52.9926   29.7239 C.3       1 UNK         0.0000 
     31 C31         2.8767   52.7708   28.7577 C.3       1 UNK         0.0000 
     32 H32         6.4153   55.0432   25.3112 H         1 UNK         0.0000 
     33 H33         5.2241   54.8320   27.4244 H         1 UNK         0.0000 
     34 H34         3.0599   53.4046   23.2300 H         1 UNK         0.0000 
     35 H35         2.0287   51.8327   23.7076 H         1 UNK         0.0000 
     36 H36         1.2622   50.0015   23.0623 H         1 UNK         0.0000 
     37 H37        -0.5914   48.0549   24.0440 H         1 UNK         0.0000 
     38 H38        -2.3750   49.1568   19.5676 H         1 UNK         0.0000 
     39 H39         2.4723   55.8857   28.3756 H         1 UNK         0.0000 
     40 H40         1.0729   55.0277   27.7381 H         1 UNK         0.0000 
     41 H41         2.2780   54.9581   30.4817 H         1 UNK         0.0000 
     42 H42         0.5790   54.8314   30.0479 H         1 UNK         0.0000 
     43 H43         0.8033   52.5310   29.3301 H         1 UNK         0.0000 
     44 H44         1.8961   52.5558   30.7051 H         1 UNK         0.0000 
     45 H45         2.6817   51.8549   28.1993 H         1 UNK         0.0000 
     46 H46         3.8251   52.6911   29.2918 H         1 UNK         0.0000 
@<TRIPOS>BOND
     1    1    6 ar   
     2    1    2 ar   
     3    1   32 1    
     4    2    3 ar   
     5    2   33 1    
     6    3    4 ar   
     7    3   27 1    
     8    4    5 ar   
     9    4   10 1    
    10    5    6 ar   
    11    5   34 1    
    12    6    7 1    
    13    7    8 2    
    14    7    9 1    
    15   10   11 2    
    16   10   12 am   BACKBONE|DICT|INTERRES
    17   12   13 am   BACKBONE|DICT|INTERRES
    18   12   35 1    
    19   13   14 2    
    20   13   15 1    
    21   15   16 1    
    22   15   36 1    
    23   16   21 ar   
    24   16   17 ar   
    25   17   18 ar   
    26   17   37 1    
    27   18   19 ar   
    28   18   24 1    
    29   19   20 ar   
    30   19   23 1    
    31   20   21 ar   
    32   20   38 1    
    33   21   22 1    
    34   24   25 2    
    35   24   26 1    
    36   27   31 1    
    37   27   28 1    
    38   28   29 1    
    39   28   39 1    
    40   28   40 1    
    41   29   30 1    
    42   29   41 1    
    43   29   42 1    
    44   30   31 1    
    45   30   43 1    
    46   30   44 1    
    47   31   45 1    
    48   31   46 1    
@<TRIPOS>SUBSTRUCTURE
     1 UNK         1 GROUP             0       ****    0 ROOT    
