ZINC63681148_1349
                    3D
 Schrodinger Suite 2024-2.
 50 53  0  0  1  0            999 V2000
    4.6526   54.4772   24.4814 C   0  0  0  0  0  0
    6.0583   54.3773   24.8515 C   0  0  0  0  0  0
    6.4498   54.2085   26.1420 C   0  0  0  0  0  0
    5.5003   54.1476   27.1680 C   0  0  0  0  0  0
    5.6804   54.0272   28.4591 N   0  3  0  0  0  0
    4.3800   54.0400   29.1483 C   0  0  0  0  0  0
    3.4095   54.2149   27.9986 C   0  0  0  0  0  0
    4.1377   54.2453   26.8666 C   0  0  0  0  0  0
    3.7308   54.4081   25.4628 C   0  0  0  0  0  0
    1.9179   54.4057   28.2281 C   0  0  0  0  0  0
    1.1571   53.2411   28.9059 C   0  0  0  0  0  0
    1.1786   51.9451   28.2189 N   0  0  0  0  0  0
    0.7043   51.7148   26.9850 C   0  0  0  0  0  0
    0.7563   52.5322   26.0684 O   0  0  0  0  0  0
    0.1480   50.4967   26.8812 N   0  0  0  0  0  0
   -0.4928   49.8967   25.7027 C   0  0  1  0  0  0
   -0.8129   48.9026   26.0285 H   0  0  0  0  0  0
   -1.7032   50.6190   25.1668 C   0  0  0  0  0  0
   -1.2395   51.2710   23.8643 C   0  0  0  0  0  0
   -1.8860   52.1563   23.3026 O   0  0  0  0  0  0
   -0.0317   50.7166   23.5142 N   0  0  0  0  0  0
    0.3707   49.6751   24.4813 C   0  0  0  0  0  0
    0.7378   51.0304   22.3508 C   0  0  0  0  0  0
    2.0661   50.5749   22.2590 C   0  0  0  0  0  0
    2.8596   50.8978   21.1606 C   0  0  0  0  0  0
    2.3335   51.6662   20.1297 C   0  0  0  0  0  0
    1.0153   52.0966   20.1787 C   0  0  0  0  0  0
    0.2224   51.7822   21.2765 C   0  0  0  0  0  0
    3.1048   52.0040   19.0747 F   0  0  0  0  0  0
    4.3556   54.5807   23.4470 H   0  0  0  0  0  0
    6.8102   54.4199   24.0747 H   0  0  0  0  0  0
    7.5024   54.1186   26.3617 H   0  0  0  0  0  0
    4.2681   53.0948   29.6810 H   0  0  0  0  0  0
    4.3835   54.8783   29.8432 H   0  0  0  0  0  0
    2.6881   54.4581   25.1804 H   0  0  0  0  0  0
    1.8041   55.2987   28.8438 H   0  0  0  0  0  0
    1.4403   54.6578   27.2828 H   0  0  0  0  0  0
    1.5804   53.0712   29.8967 H   0  0  0  0  0  0
    0.1168   53.5294   29.0723 H   0  0  0  0  0  0
    1.3839   51.1418   28.7929 H   0  0  0  0  0  0
    0.0076   49.9643   27.7290 H   0  0  0  0  0  0
   -2.5295   49.9365   24.9658 H   0  0  0  0  0  0
   -2.0728   51.3825   25.8525 H   0  0  0  0  0  0
    1.4264   49.6820   24.7480 H   0  0  0  0  0  0
    0.1603   48.7052   24.0272 H   0  0  0  0  0  0
    2.5197   49.9806   23.0360 H   0  0  0  0  0  0
    3.8831   50.5592   21.1040 H   0  0  0  0  0  0
    0.6179   52.6915   19.3699 H   0  0  0  0  0  0
   -0.7938   52.1370   21.2534 H   0  0  0  0  0  0
    6.5813   53.9628   28.9277 H   0  0  0  0  0  0
  1  9  2  0  0  0
  1  2  1  0  0  0
  1 30  1  0  0  0
  2  3  2  0  0  0
  2 31  1  0  0  0
  3  4  1  0  0  0
  3 32  1  0  0  0
  4  8  1  0  0  0
  4  5  2  0  0  0
  5  6  1  0  0  0
  5 50  1  0  0  0
  6  7  1  0  0  0
  6 33  1  0  0  0
  6 34  1  0  0  0
  7  8  2  0  0  0
  7 10  1  0  0  0
  8  9  1  0  0  0
  9 35  1  0  0  0
 10 11  1  0  0  0
 10 36  1  0  0  0
 10 37  1  0  0  0
 11 12  1  0  0  0
 11 38  1  0  0  0
 11 39  1  0  0  0
 12 13  1  0  0  0
 12 40  1  0  0  0
 13 14  2  0  0  0
 13 15  1  0  0  0
 15 16  1  0  0  0
 15 41  1  0  0  0
 16 17  1  0  0  0
 16 22  1  0  0  0
 16 18  1  0  0  0
 18 19  1  0  0  0
 18 42  1  0  0  0
 18 43  1  0  0  0
 19 20  2  0  0  0
 19 21  1  0  0  0
 21 22  1  0  0  0
 21 23  1  0  0  0
 22 44  1  0  0  0
 22 45  1  0  0  0
 23 28  2  0  0  0
 23 24  1  0  0  0
 24 25  2  0  0  0
 24 46  1  0  0  0
 25 26  1  0  0  0
 25 47  1  0  0  0
 26 27  2  0  0  0
 26 29  1  0  0  0
 27 28  1  0  0  0
 27 48  1  0  0  0
 28 49  1  0  0  0
M  CHG  1   5   1
M  END
> <i_i_glide_confnum>
1

> <i_i_glide_lignum>
1350

> <i_i_glide_posenum>
358

> <i_i_glide_rotatable_bonds>
7

> <i_m_Source_File_Index>
1173

> <b_m_subgroup_collapsed>
0

> <r_i_docking_score>
-4.73336

> <r_i_glide_ecoul>
0.416149

> <r_i_glide_eff_state_penalty>
0

> <r_i_glide_einternal>
2.43661

> <r_i_glide_emodel>
-52.3147

> <r_i_glide_energy>
-38.708

> <r_i_glide_erotb>
0.80054

> <r_i_glide_esite>
-0.145799

> <r_i_glide_evdw>
-39.1242

> <r_i_glide_gscore>
-4.73336

> <r_i_glide_hbond>
-0.0520773

> <r_i_glide_ligand_efficiency>
-0.169049

> <r_i_glide_ligand_efficiency_ln>
-1.0926

> <r_i_glide_ligand_efficiency_sa>
-0.513332

> <r_i_glide_lipo>
-2.81622

> <r_i_glide_metal>
0

> <r_i_glide_rewards>
-0.626023

> <s_i_glide_gridfile>
wee1_glide-grid

> <s_m_Source_File>
wee1_decoys_glide_SP.sdf

> <s_m_Source_Path>
/Users/zhangxujun/Desktop

> <s_m_entry_id>
1448

> <s_m_entry_name>
wee1_decoys_glide_SP.1173

> <s_m_subgroup_title>
wee1_decoys_glide_SP

> <s_m_subgroupid>
wee1_decoys_glide_SP


$$$$
