@<TRIPOS>MOLECULE
ZINC36052788_5658
60   63    1
SMALL
USER_CHARGES


@<TRIPOS>ATOM
      1 C1          6.2326   55.4120   25.1445 C.3       1 UNK         0.0000 
      2 C2          5.7540   54.6407   26.3963 C.3       1 UNK         0.0000 
      3 C3          4.3165   54.0729   26.4297 C.2       1 UNK         0.0000 
      4 C4          3.7599   53.3188   27.4362 C.2       1 UNK         0.0000 
      5 C5          2.2952   52.7788   27.2951 C.3       1 UNK         0.0000 
      6 H6          2.3968   51.6959   27.2965 H         1 UNK         0.0000 
      7 N7          1.7611   53.0343   25.9241 N.pl3     1 UNK         0.0000 
      8 C8          0.6743   52.4141   25.3086 C.2       1 UNK         0.0000 
      9 C9          0.4562   52.8960   24.0721 C.2       1 UNK         0.0000 
     10 S10         1.6204   54.0961   23.5590 S.3       1 UNK         0.0000 
     11 C11         2.5006   53.8505   25.0707 C.2       1 UNK         0.0000 
     12 N12         3.6313   54.3894   25.2925 N.2       1 UNK         0.0000 
     13 C13        -0.1422   51.3207   25.8228 C.2       1 UNK         0.0000 
     14 C14        -0.3791   50.1704   25.1572 C.2       1 UNK         0.0000 
     15 O15         0.0795   49.8013   24.0117 O.co2     1 UNK         0.0000 
     16 N16        -1.2194   49.2043   25.6815 N.pl3     1 UNK         0.0000 
     17 C17        -1.6328   47.9212   25.1093 C.3       1 UNK         0.0000 
     18 C18        -2.9542   47.3823   25.6978 C.3       1 UNK         0.0000 
     19 H19        -2.8637   47.2625   26.7779 H         1 UNK         0.0000 
     20 C20        -4.2169   48.1674   25.3320 C.3       1 UNK         0.0000 
     21 C21        -4.7146   47.5589   24.0362 C.3       1 UNK         0.0000 
     22 C22        -3.9573   46.2363   23.9174 C.3       1 UNK         0.0000 
     23 O23        -3.2329   46.0962   25.1401 O.3       1 UNK         0.0000 
     24 C24         1.3403   53.0896   28.4765 C.ar      1 UNK         0.0000 
     25 C25         0.6008   52.0155   28.9935 C.ar      1 UNK         0.0000 
     26 C26        -0.1218   52.1349   30.1751 C.ar      1 UNK         0.0000 
     27 C27        -0.0925   53.3256   30.8852 C.ar      1 UNK         0.0000 
     28 C28         0.6071   54.4164   30.3860 C.ar      1 UNK         0.0000 
     29 C29         1.3223   54.3175   29.1882 C.ar      1 UNK         0.0000 
     30 C30         2.0910   55.5572   28.7589 C.3       1 UNK         0.0000 
     31 C31         4.5058   52.9502   28.6672 C.2       1 UNK         0.0000 
     32 O32         5.6603   53.3058   28.8816 O.2       1 UNK         0.0000 
     33 O33         3.7982   52.1918   29.5439 O.3       1 UNK         0.0000 
     34 C34         4.2553   51.9528   30.8659 C.3       1 UNK         0.0000 
     35 H35         7.2714   55.7209   25.2421 H         1 UNK         0.0000 
     36 H36         6.1584   54.7931   24.2491 H         1 UNK         0.0000 
     37 H37         5.6380   56.3113   24.9835 H         1 UNK         0.0000 
     38 H38         5.8692   55.2960   27.2599 H         1 UNK         0.0000 
     39 H39         6.4382   53.8051   26.5440 H         1 UNK         0.0000 
     40 H40        -0.3102   52.5571   23.3919 H         1 UNK         0.0000 
     41 H41        -0.6222   51.4538   26.7772 H         1 UNK         0.0000 
     42 H42        -1.2952   49.1763   26.6932 H         1 UNK         0.0000 
     43 H43        -0.8293   47.2047   25.2752 H         1 UNK         0.0000 
     44 H44        -1.7475   48.0381   24.0327 H         1 UNK         0.0000 
     45 H45        -4.0476   49.2435   25.2885 H         1 UNK         0.0000 
     46 H46        -4.9538   48.0289   26.1251 H         1 UNK         0.0000 
     47 H47        -4.4850   48.2056   23.1881 H         1 UNK         0.0000 
     48 H48        -5.7955   47.4082   24.0549 H         1 UNK         0.0000 
     49 H49        -3.2564   46.2506   23.0813 H         1 UNK         0.0000 
     50 H50        -4.6226   45.3844   23.7748 H         1 UNK         0.0000 
     51 H51         0.6225   51.0492   28.5108 H         1 UNK         0.0000 
     52 H52        -0.6797   51.2967   30.5672 H         1 UNK         0.0000 
     53 H53        -0.6063   53.3911   31.8329 H         1 UNK         0.0000 
     54 H54         0.6130   55.3350   30.9537 H         1 UNK         0.0000 
     55 H55         1.5896   56.4714   29.0867 H         1 UNK         0.0000 
     56 H56         3.1020   55.5542   29.1688 H         1 UNK         0.0000 
     57 H57         2.1551   55.6222   27.6815 H         1 UNK         0.0000 
     58 H58         3.5547   51.2978   31.3851 H         1 UNK         0.0000 
     59 H59         5.2297   51.4726   30.8805 H         1 UNK         0.0000 
     60 H60         4.3046   52.8860   31.4287 H         1 UNK         0.0000 
@<TRIPOS>BOND
     1    1    2 1    
     2    1   35 1    
     3    1   36 1    
     4    1   37 1    
     5    2    3 1    
     6    2   38 1    
     7    2   39 1    
     8    3   12 1    
     9    3    4 2    
    10    4    5 1    
    11    4   31 1    
    12    5    6 1    
    13    5    7 1    
    14    5   24 1    
    15    7   11 1    
    16    7    8 1    
    17    8    9 2    
    18    8   13 1    
    19    9   10 1    
    20    9   40 1    
    21   10   11 1    
    22   11   12 2    
    23   13   14 2    
    24   13   41 1    
    25   14   15 1    
    26   14   16 1    
    27   16   17 1    
    28   16   42 1    
    29   17   18 1    
    30   17   43 1    
    31   17   44 1    
    32   18   19 1    
    33   18   23 1    
    34   18   20 1    
    35   20   21 1    
    36   20   45 1    
    37   20   46 1    
    38   21   22 1    
    39   21   47 1    
    40   21   48 1    
    41   22   23 1    
    42   22   49 1    
    43   22   50 1    
    44   24   29 ar   
    45   24   25 ar   
    46   25   26 ar   
    47   25   51 1    
    48   26   27 ar   
    49   26   52 1    
    50   27   28 ar   
    51   27   53 1    
    52   28   29 ar   
    53   28   54 1    
    54   29   30 1    
    55   30   55 1    
    56   30   56 1    
    57   30   57 1    
    58   31   32 2    
    59   31   33 1    
    60   33   34 1    
    61   34   58 1    
    62   34   59 1    
    63   34   60 1    
@<TRIPOS>SUBSTRUCTURE
     1 UNK         1 GROUP             0       ****    0 ROOT    
