ZINC37641527_2981
                    3D
 Schrodinger Suite 2024-2.
 67 70  0  0  1  0            999 V2000
    3.5323   51.3120   20.8685 C   0  0  0  0  0  0
    2.2706   50.5504   20.5096 C   0  0  0  0  0  0
    2.3043   49.5431   19.5485 C   0  0  0  0  0  0
    1.1445   48.8511   19.2165 C   0  0  0  0  0  0
   -0.0787   49.1669   19.8253 C   0  0  0  0  0  0
   -0.1266   50.2037   20.7779 C   0  0  0  0  0  0
    1.0594   50.8774   21.1191 C   0  0  0  0  0  0
   -1.3619   50.5158   21.3229 O   0  0  0  0  0  0
   -1.4782   51.4922   22.3571 C   0  0  0  0  0  0
   -1.0550   50.9403   23.7064 C   0  0  0  0  0  0
   -0.8291   51.7261   24.7313 N   0  0  0  0  0  0
   -0.5907   51.0680   25.8538 C   0  0  0  0  0  0
   -0.5583   49.6759   25.7240 C   0  0  0  0  0  0
   -0.9076   49.2456   24.0811 S   0  0  0  0  0  0
   -0.3265   51.8358   27.0446 C   0  0  0  0  0  0
    0.2922   52.8966   27.0037 O   0  0  0  0  0  0
   -0.8258   51.2967   28.1696 N   0  0  0  0  0  0
   -0.8091   51.8275   29.5380 C   0  0  0  0  0  0
    0.4576   52.5821   30.0021 C   0  0  0  0  0  0
    1.7769   51.8208   29.7592 C   0  0  0  0  0  0
    2.6546   52.4505   28.7843 N   0  0  0  0  0  0
    3.4230   53.5279   28.9932 C   0  0  0  0  0  0
    3.5053   54.0966   30.0817 O   0  0  0  0  0  0
    4.2458   53.9633   27.8101 C   0  0  0  0  0  0
    5.5183   54.4967   28.0188 C   0  0  0  0  0  0
    6.3285   54.8568   26.9488 C   0  0  0  0  0  0
    5.8831   54.6764   25.6185 C   0  0  0  0  0  0
    6.7045   54.9803   24.5091 C   0  0  0  0  0  0
    6.2685   54.7292   23.2119 C   0  0  0  0  0  0
    4.9910   54.2266   22.9856 C   0  0  0  0  0  0
    4.1323   53.9707   24.0527 C   0  0  0  0  0  0
    4.5739   54.1601   25.3878 C   0  0  0  0  0  0
    3.7630   53.8276   26.4996 C   0  0  0  0  0  0
   -1.3619   48.3991   19.4607 C   0  0  0  0  0  0
   -2.2534   49.2175   18.5082 C   0  0  0  0  0  0
   -1.1304   46.9756   18.9078 C   0  0  0  0  0  0
    3.3114   52.3753   20.9645 H   0  0  0  0  0  0
    3.9320   50.9602   21.8183 H   0  0  0  0  0  0
    4.2989   51.2167   20.0983 H   0  0  0  0  0  0
    3.2294   49.2956   19.0459 H   0  0  0  0  0  0
    1.2150   48.0807   18.4643 H   0  0  0  0  0  0
    1.0584   51.6677   21.8529 H   0  0  0  0  0  0
   -0.9959   52.4323   22.0843 H   0  0  0  0  0  0
   -2.5396   51.7351   22.4118 H   0  0  0  0  0  0
   -0.3778   48.9176   26.4783 H   0  0  0  0  0  0
   -1.2410   50.3717   28.0820 H   0  0  0  0  0  0
   -1.6845   52.4513   29.6789 H   0  0  0  0  0  0
   -0.9496   50.9580   30.1832 H   0  0  0  0  0  0
    0.4820   53.5645   29.5278 H   0  0  0  0  0  0
    0.3589   52.7954   31.0678 H   0  0  0  0  0  0
    2.3186   51.6967   30.6993 H   0  0  0  0  0  0
    1.5688   50.8283   29.3707 H   0  0  0  0  0  0
    2.6123   52.0829   27.8456 H   0  0  0  0  0  0
    5.9035   54.6258   29.0218 H   0  0  0  0  0  0
    7.3126   55.2523   27.1450 H   0  0  0  0  0  0
    7.6859   55.3919   24.6764 H   0  0  0  0  0  0
    6.9197   54.9426   22.3765 H   0  0  0  0  0  0
    4.6572   54.0555   21.9729 H   0  0  0  0  0  0
    3.1402   53.5836   23.8687 H   0  0  0  0  0  0
    2.7740   53.4349   26.3087 H   0  0  0  0  0  0
   -1.9101   48.2578   20.3943 H   0  0  0  0  0  0
   -2.4908   50.1976   18.9228 H   0  0  0  0  0  0
   -1.7633   49.3776   17.5470 H   0  0  0  0  0  0
   -3.1992   48.7096   18.3178 H   0  0  0  0  0  0
   -0.4665   46.4009   19.5548 H   0  0  0  0  0  0
   -2.0703   46.4269   18.8400 H   0  0  0  0  0  0
   -0.6963   46.9923   17.9075 H   0  0  0  0  0  0
  1  2  1  0  0  0
  1 37  1  0  0  0
  1 38  1  0  0  0
  1 39  1  0  0  0
  2  7  2  0  0  0
  2  3  1  0  0  0
  3  4  2  0  0  0
  3 40  1  0  0  0
  4  5  1  0  0  0
  4 41  1  0  0  0
  5  6  2  0  0  0
  5 34  1  0  0  0
  6  7  1  0  0  0
  6  8  1  0  0  0
  7 42  1  0  0  0
  8  9  1  0  0  0
  9 10  1  0  0  0
  9 43  1  0  0  0
  9 44  1  0  0  0
 10 14  1  0  0  0
 10 11  2  0  0  0
 11 12  1  0  0  0
 12 13  2  0  0  0
 12 15  1  0  0  0
 13 14  1  0  0  0
 13 45  1  0  0  0
 15 16  2  0  0  0
 15 17  1  0  0  0
 17 18  1  0  0  0
 17 46  1  0  0  0
 18 19  1  0  0  0
 18 47  1  0  0  0
 18 48  1  0  0  0
 19 20  1  0  0  0
 19 49  1  0  0  0
 19 50  1  0  0  0
 20 21  1  0  0  0
 20 51  1  0  0  0
 20 52  1  0  0  0
 21 22  1  0  0  0
 21 53  1  0  0  0
 22 23  2  0  0  0
 22 24  1  0  0  0
 24 33  2  0  0  0
 24 25  1  0  0  0
 25 26  2  0  0  0
 25 54  1  0  0  0
 26 27  1  0  0  0
 26 55  1  0  0  0
 27 32  2  0  0  0
 27 28  1  0  0  0
 28 29  2  0  0  0
 28 56  1  0  0  0
 29 30  1  0  0  0
 29 57  1  0  0  0
 30 31  2  0  0  0
 30 58  1  0  0  0
 31 32  1  0  0  0
 31 59  1  0  0  0
 32 33  1  0  0  0
 33 60  1  0  0  0
 34 35  1  0  0  0
 34 36  1  0  0  0
 34 61  1  0  0  0
 35 62  1  0  0  0
 35 63  1  0  0  0
 35 64  1  0  0  0
 36 65  1  0  0  0
 36 66  1  0  0  0
 36 67  1  0  0  0
M  END
> <i_i_glide_confnum>
216

> <i_i_glide_lignum>
2982

> <i_i_glide_posenum>
290

> <i_i_glide_rotatable_bonds>
12

> <i_m_Source_File_Index>
922

> <b_m_subgroup_collapsed>
0

> <r_i_docking_score>
-6.01609

> <r_i_glide_ecoul>
-6.34601

> <r_i_glide_eff_state_penalty>
0

> <r_i_glide_einternal>
14.3603

> <r_i_glide_emodel>
-65.6505

> <r_i_glide_energy>
-52.2515

> <r_i_glide_erotb>
0.811776

> <r_i_glide_esite>
-0.1161

> <r_i_glide_evdw>
-45.9055

> <r_i_glide_gscore>
-6.01609

> <r_i_glide_hbond>
-0.456

> <r_i_glide_ligand_efficiency>
-0.167114

> <r_i_glide_ligand_efficiency_ln>
-1.31255

> <r_i_glide_ligand_efficiency_sa>
-0.551797

> <r_i_glide_lipo>
-2.73478

> <r_i_glide_metal>
0

> <r_i_glide_rewards>
-0.273814

> <s_i_glide_gridfile>
wee1_glide-grid

> <s_m_Source_File>
wee1_decoys_glide_SP.sdf

> <s_m_Source_Path>
/Users/zhangxujun/Desktop

> <s_m_entry_id>
1197

> <s_m_entry_name>
wee1_decoys_glide_SP.922

> <s_m_subgroup_title>
wee1_decoys_glide_SP

> <s_m_subgroupid>
wee1_decoys_glide_SP


$$$$
