ZINC14653746_2958
                    3D
 Schrodinger Suite 2024-2.
 53 55  0  0  1  0            999 V2000
    1.6133   56.3065   30.2071 C   0  0  0  0  0  0
    1.7685   54.8586   29.7082 C   0  0  0  0  0  0
    0.7239   53.9209   30.3492 C   0  0  0  0  0  0
    1.7214   54.8131   28.1696 C   0  0  0  0  0  0
    2.1517   53.5358   27.7043 O   0  0  0  0  0  0
    1.7926   53.2638   26.4098 C   0  0  0  0  0  0
    0.6916   52.4390   26.1752 C   0  0  0  0  0  0
    0.2702   52.1733   24.8723 C   0  0  0  0  0  0
    0.9543   52.7119   23.7730 C   0  0  0  0  0  0
    2.0732   53.5314   24.0185 C   0  0  0  0  0  0
    2.4992   53.7900   25.3203 C   0  0  0  0  0  0
    4.0299   54.8956   25.5908 Br  0  0  0  0  0  0
    0.4845   52.4033   22.3634 C   0  0  0  0  0  0
   -0.6899   52.0929   22.1514 O   0  0  0  0  0  0
    1.4513   52.4965   21.4222 N   0  0  0  0  0  0
    1.5622   52.0917   20.1131 C   0  0  0  0  0  0
    0.4077   51.3069   19.1984 S   0  0  0  0  0  0
    2.7448   52.3816   19.4845 N   0  0  0  0  0  0
    3.8185   53.0458   20.0822 C   0  0  0  0  0  0
    4.4269   54.2577   19.6742 C   0  0  0  0  0  0
    5.3808   54.6275   20.6524 C   0  0  0  0  0  0
    5.5041   53.7482   21.7015 C   0  0  0  0  0  0
    4.5423   52.3446   21.5091 S   0  0  0  0  0  0
    6.5148   54.1733   22.7286 C   0  0  0  0  0  0
    7.2439   55.2985   21.9787 C   0  0  0  0  0  0
    6.3060   55.8031   20.8692 C   0  0  0  0  0  0
    4.1284   55.0746   18.4851 C   0  0  0  0  0  0
    4.6736   56.1586   18.2561 O   0  0  0  0  0  0
    3.2046   54.5034   17.6827 O   0  0  0  0  0  0
    2.7813   55.1489   16.4911 C   0  0  0  0  0  0
    0.7063   56.7726   29.8290 H   0  0  0  0  0  0
    2.4544   56.9077   29.8618 H   0  0  0  0  0  0
    1.5874   56.3698   31.2957 H   0  0  0  0  0  0
    2.7587   54.5182   30.0160 H   0  0  0  0  0  0
   -0.2926   54.2081   30.0767 H   0  0  0  0  0  0
    0.8696   52.8887   30.0240 H   0  0  0  0  0  0
    0.7881   53.9313   31.4370 H   0  0  0  0  0  0
    0.7052   55.0406   27.8365 H   0  0  0  0  0  0
    2.3714   55.5829   27.7542 H   0  0  0  0  0  0
    0.1538   52.0178   27.0116 H   0  0  0  0  0  0
   -0.5941   51.5408   24.7276 H   0  0  0  0  0  0
    2.6257   53.9900   23.2072 H   0  0  0  0  0  0
    2.3175   52.8454   21.7960 H   0  0  0  0  0  0
    2.7306   52.3847   18.4738 H   0  0  0  0  0  0
    6.0517   54.5371   23.6423 H   0  0  0  0  0  0
    7.2108   53.3835   23.0096 H   0  0  0  0  0  0
    7.5604   56.0961   22.6501 H   0  0  0  0  0  0
    8.1529   54.8975   21.5256 H   0  0  0  0  0  0
    6.8611   56.0814   19.9718 H   0  0  0  0  0  0
    5.7614   56.6852   21.2025 H   0  0  0  0  0  0
    2.0533   54.5232   15.9709 H   0  0  0  0  0  0
    2.3072   56.1065   16.7109 H   0  0  0  0  0  0
    3.6228   55.3207   15.8182 H   0  0  0  0  0  0
  1  2  1  0  0  0
  1 31  1  0  0  0
  1 32  1  0  0  0
  1 33  1  0  0  0
  2  3  1  0  0  0
  2  4  1  0  0  0
  2 34  1  0  0  0
  3 35  1  0  0  0
  3 36  1  0  0  0
  3 37  1  0  0  0
  4  5  1  0  0  0
  4 38  1  0  0  0
  4 39  1  0  0  0
  5  6  1  0  0  0
  6 11  2  0  0  0
  6  7  1  0  0  0
  7  8  2  0  0  0
  7 40  1  0  0  0
  8  9  1  0  0  0
  8 41  1  0  0  0
  9 10  2  0  0  0
  9 13  1  0  0  0
 10 11  1  0  0  0
 10 42  1  0  0  0
 11 12  1  0  0  0
 13 14  2  0  0  0
 13 15  1  0  0  0
 15 16  1  0  0  0
 15 43  1  0  0  0
 16 17  2  0  0  0
 16 18  1  0  0  0
 18 19  1  0  0  0
 18 44  1  0  0  0
 19 23  1  0  0  0
 19 20  2  0  0  0
 20 21  1  0  0  0
 20 27  1  0  0  0
 21 26  1  0  0  0
 21 22  2  0  0  0
 22 23  1  0  0  0
 22 24  1  0  0  0
 24 25  1  0  0  0
 24 45  1  0  0  0
 24 46  1  0  0  0
 25 26  1  0  0  0
 25 47  1  0  0  0
 25 48  1  0  0  0
 26 49  1  0  0  0
 26 50  1  0  0  0
 27 28  2  0  0  0
 27 29  1  0  0  0
 29 30  1  0  0  0
 30 51  1  0  0  0
 30 52  1  0  0  0
 30 53  1  0  0  0
M  END
> <i_i_glide_confnum>
171

> <i_i_glide_lignum>
2959

> <i_i_glide_posenum>
191

> <i_i_glide_rotatable_bonds>
10

> <i_m_Source_File_Index>
3949

> <b_m_subgroup_collapsed>
0

> <r_i_docking_score>
-4.98225

> <r_i_glide_ecoul>
-1.27624

> <r_i_glide_eff_state_penalty>
0

> <r_i_glide_einternal>
14.3389

> <r_i_glide_emodel>
-50.1138

> <r_i_glide_energy>
-43.701

> <r_i_glide_erotb>
0.626737

> <r_i_glide_esite>
-0.0797964

> <r_i_glide_evdw>
-42.4248

> <r_i_glide_gscore>
-4.98225

> <r_i_glide_hbond>
0

> <r_i_glide_ligand_efficiency>
-0.166075

> <r_i_glide_ligand_efficiency_ln>
-1.13202

> <r_i_glide_ligand_efficiency_sa>
-0.516034

> <r_i_glide_lipo>
-3.17014

> <r_i_glide_metal>
0

> <r_i_glide_rewards>
-0.0463721

> <s_i_glide_gridfile>
wee1_glide-grid

> <s_m_Source_File>
wee1_decoys_glide_SP.sdf

> <s_m_Source_Path>
/Users/zhangxujun/Desktop

> <s_m_entry_id>
4224

> <s_m_entry_name>
wee1_decoys_glide_SP.3949

> <s_m_subgroup_title>
wee1_decoys_glide_SP

> <s_m_subgroupid>
wee1_decoys_glide_SP


$$$$
