@<TRIPOS>MOLECULE
ZINC14651226_2858
54   55    1
SMALL
USER_CHARGES


@<TRIPOS>ATOM
      1 C1          2.4050   51.6354   29.0281 C.3       1 UNK         0.0000 
      2 C2          1.6745   52.9380   28.6607 C.3       1 UNK         0.0000 
      3 C3          2.0984   54.1063   29.5685 C.3       1 UNK         0.0000 
      4 C4          1.7862   53.2705   27.1564 C.3       1 UNK         0.0000 
      5 C5          3.1834   53.6523   26.6372 C.3       1 UNK         0.0000 
      6 O6          3.0708   53.7328   25.2218 O.3       1 UNK         0.0000 
      7 C7          4.1504   54.0967   24.4375 C.ar      1 UNK         0.0000 
      8 C8          5.3824   54.4983   24.9835 C.ar      1 UNK         0.0000 
      9 C9          6.4479   54.8504   24.1591 C.ar      1 UNK         0.0000 
     10 C10         6.3002   54.8116   22.7780 C.ar      1 UNK         0.0000 
     11 C11         5.0918   54.4035   22.2179 C.ar      1 UNK         0.0000 
     12 C12         4.0059   54.0341   23.0335 C.ar      1 UNK         0.0000 
     13 C13         2.7050   53.5754   22.4016 C.2       1 UNK         0.0000 
     14 O14         1.6195   53.9018   22.8886 O.2       1 UNK         0.0000 
     15 N15         2.8638   52.8305   21.2800 N.am      1 UNK         0.0000 
     16 C16         1.9746   52.1480   20.4785 C.2       1 UNK         0.0000 
     17 S17         0.5096   51.4966   20.9483 S.2       1 UNK         0.0000 
     18 N18         2.3538   51.9573   19.1757 N.pl3     1 UNK         0.0000 
     19 N19         3.5451   52.4966   18.6807 N.am      1 UNK         0.0000 
     20 C20         3.5044   53.6553   17.9909 C.2       1 UNK         0.0000 
     21 O21         2.4689   54.1590   17.5467 O.2       1 UNK         0.0000 
     22 C22         4.8243   54.3815   17.8715 C.ar      1 UNK         0.0000 
     23 C23         4.8213   55.7718   17.6980 C.ar      1 UNK         0.0000 
     24 C24         6.0134   56.4876   17.7166 C.ar      1 UNK         0.0000 
     25 C25         7.2277   55.8330   17.9069 C.ar      1 UNK         0.0000 
     26 C26         7.2424   54.4358   18.0322 C.ar      1 UNK         0.0000 
     27 C27         6.0522   53.7153   18.0107 C.ar      1 UNK         0.0000 
     28 O28         8.3506   56.6322   17.9711 O.3       1 UNK         0.0000 
     29 C29         9.5920   56.0402   18.3327 C.3       1 UNK         0.0000 
     30 Br30        7.7341   55.3523   21.6554 Br        1 UNK         0.0000 
     31 H31         3.4885   51.7449   28.9736 H         1 UNK         0.0000 
     32 H32         2.1179   50.8246   28.3579 H         1 UNK         0.0000 
     33 H33         2.1492   51.3129   30.0370 H         1 UNK         0.0000 
     34 H34         0.6144   52.7610   28.8547 H         1 UNK         0.0000 
     35 H35         3.1669   54.3109   29.4954 H         1 UNK         0.0000 
     36 H36         1.5646   55.0219   29.3100 H         1 UNK         0.0000 
     37 H37         1.8712   53.8826   30.6104 H         1 UNK         0.0000 
     38 H38         1.4177   52.4185   26.5819 H         1 UNK         0.0000 
     39 H39         1.1051   54.0878   26.9254 H         1 UNK         0.0000 
     40 H40         3.4906   54.6115   27.0575 H         1 UNK         0.0000 
     41 H41         3.9237   52.8982   26.9080 H         1 UNK         0.0000 
     42 H42         5.5316   54.5433   26.0508 H         1 UNK         0.0000 
     43 H43         7.3892   55.1644   24.5847 H         1 UNK         0.0000 
     44 H44         5.0071   54.4009   21.1393 H         1 UNK         0.0000 
     45 H45         3.8256   52.7315   20.9986 H         1 UNK         0.0000 
     46 H46         2.0711   51.1307   18.6673 H         1 UNK         0.0000 
     47 H47         4.3115   51.8302   18.6396 H         1 UNK         0.0000 
     48 H48         3.8922   56.3144   17.5859 H         1 UNK         0.0000 
     49 H49         5.9945   57.5628   17.6083 H         1 UNK         0.0000 
     50 H50         8.1669   53.8936   18.1609 H         1 UNK         0.0000 
     51 H51         6.1019   52.6402   18.1252 H         1 UNK         0.0000 
     52 H52        10.3426   56.8205   18.4544 H         1 UNK         0.0000 
     53 H53         9.5103   55.5095   19.2823 H         1 UNK         0.0000 
     54 H54         9.9469   55.3506   17.5653 H         1 UNK         0.0000 
@<TRIPOS>BOND
     1    1    2 1    
     2    1   31 1    
     3    1   32 1    
     4    1   33 1    
     5    2    3 1    
     6    2    4 1    
     7    2   34 1    
     8    3   35 1    
     9    3   36 1    
    10    3   37 1    
    11    4    5 1    
    12    4   38 1    
    13    4   39 1    
    14    5    6 1    
    15    5   40 1    
    16    5   41 1    
    17    6    7 1    
    18    7   12 ar   
    19    7    8 ar   
    20    8    9 ar   
    21    8   42 1    
    22    9   10 ar   
    23    9   43 1    
    24   10   11 ar   
    25   10   30 1    
    26   11   12 ar   
    27   11   44 1    
    28   12   13 1    
    29   13   14 2    
    30   13   15 am   BACKBONE|DICT|INTERRES
    31   15   16 am   BACKBONE|DICT|INTERRES
    32   15   45 1    
    33   16   17 2    
    34   16   18 1    
    35   18   19 1    
    36   18   46 1    
    37   19   20 am   BACKBONE|DICT|INTERRES
    38   19   47 1    
    39   20   21 2    
    40   20   22 1    
    41   22   27 ar   
    42   22   23 ar   
    43   23   24 ar   
    44   23   48 1    
    45   24   25 ar   
    46   24   49 1    
    47   25   26 ar   
    48   25   28 1    
    49   26   27 ar   
    50   26   50 1    
    51   27   51 1    
    52   28   29 1    
    53   29   52 1    
    54   29   53 1    
    55   29   54 1    
@<TRIPOS>SUBSTRUCTURE
     1 UNK         1 GROUP             0       ****    0 ROOT    
