@<TRIPOS>MOLECULE
ZINC43460825_4704
25   27    1
SMALL
USER_CHARGES


@<TRIPOS>ATOM
      1 C1          4.2373   54.2053   24.6069 C.ar      1 UNK         0.0000 
      2 C2          5.4624   54.4961   24.0071 C.ar      1 UNK         0.0000 
      3 C3          6.5740   54.7953   24.7971 C.ar      1 UNK         0.0000 
      4 N4          6.5810   54.7921   26.1587 N.ar      1 UNK         0.0000 
      5 C5          5.4231   54.4760   26.7493 C.ar      1 UNK         0.0000 
      6 C6          4.2449   54.2013   26.0043 C.ar      1 UNK         0.0000 
      7 N7          3.3034   53.9597   26.9674 N.pl3     1 UNK         0.0000 
      8 C8          3.9350   54.0041   28.1914 C.ar      1 UNK         0.0000 
      9 N9          5.1966   54.3543   28.0968 N.2       1 UNK         0.0000 
     10 H10         2.3344   53.6968   26.8611 H         1 UNK         0.0000 
     11 C11         3.2481   53.6865   29.5194 C.3       1 UNK         0.0000 
     12 C12         1.8868   52.9874   29.4512 C.2       1 UNK         0.0000 
     13 C13         0.8471   53.0732   30.3795 C.2       1 UNK         0.0000 
     14 S14        -0.4956   52.0976   29.8564 S.3       1 UNK         0.0000 
     15 C15         0.4291   51.6839   28.4602 C.2       1 UNK         0.0000 
     16 N16         1.6392   52.1700   28.4372 N.2       1 UNK         0.0000 
     17 N17        -0.1081   50.8967   27.4861 N.pl3     1 UNK         0.0000 
     18 Br18        5.6147   54.4979   22.1103 Br        1 UNK         0.0000 
     19 H19         3.3544   53.9830   24.0237 H         1 UNK         0.0000 
     20 H20         7.5040   55.0480   24.3188 H         1 UNK         0.0000 
     21 H21         3.1484   54.6157   30.0793 H         1 UNK         0.0000 
     22 H22         3.9180   53.0659   30.1152 H         1 UNK         0.0000 
     23 H23         0.7897   53.6327   31.3016 H         1 UNK         0.0000 
     24 H24         0.4249   50.6739   26.6593 H         1 UNK         0.0000 
     25 H25        -0.8176   50.2046   27.7229 H         1 UNK         0.0000 
@<TRIPOS>BOND
     1    1    2 ar   
     2    1   19 1    
     3    1    6 ar   
     4    2    3 ar   
     5    2   18 1    
     6    3    4 ar   
     7    3   20 1    
     8    4    5 ar   
     9    5    9 ar   
    10    5    6 ar   
    11    6    7 ar   
    12    7    8 ar   
    13    7   10 1    
    14    8   11 1    
    15    8    9 ar   
    16   11   12 1    
    17   11   21 1    
    18   11   22 1    
    19   12   16 1    
    20   12   13 2    
    21   13   14 1    
    22   13   23 1    
    23   14   15 1    
    24   15   16 2    
    25   15   17 1    
    26   17   24 1    
    27   17   25 1    
@<TRIPOS>SUBSTRUCTURE
     1 UNK         1 GROUP             0       ****    0 ROOT    
