@<TRIPOS>MOLECULE
ZINC13031439_2009
49   52    1
SMALL
USER_CHARGES


@<TRIPOS>ATOM
      1 C1         -0.1497   51.3159   16.3530 C.3       1 UNK         0.0000 
      2 O2         -0.9310   51.1692   17.5334 O.3       1 UNK         0.0000 
      3 C3         -1.1061   49.9137   18.0866 C.ar      1 UNK         0.0000 
      4 C4         -0.6453   48.7342   17.4798 C.ar      1 UNK         0.0000 
      5 C5         -0.8020   47.4998   18.1058 C.ar      1 UNK         0.0000 
      6 C6         -1.4311   47.4081   19.3524 C.ar      1 UNK         0.0000 
      7 C7         -1.9164   48.5736   19.9446 C.ar      1 UNK         0.0000 
      8 C8         -1.7596   49.8186   19.3261 C.ar      1 UNK         0.0000 
      9 S9         -2.2844   51.2947   20.2065 S.o2      1 UNK         0.0000 
     10 O10        -3.0036   52.0966   19.2103 O.2       1 UNK         0.0000 
     11 O11        -3.1369   50.7851   21.2873 O.2       1 UNK         0.0000 
     12 N12        -0.6420   51.8053   20.5882 N.2       1 UNK         0.0000 
     13 C13        -0.3025   52.0794   21.7764 C.2       1 UNK         0.0000 
     14 N14         0.9536   52.5011   22.1499 N.pl3     1 UNK         0.0000 
     15 C15         1.1390   52.9015   23.4527 C.2       1 UNK         0.0000 
     16 C16         0.0469   52.7304   24.2146 C.2       1 UNK         0.0000 
     17 S17        -1.2948   52.0935   23.2768 S.3       1 UNK         0.0000 
     18 C18         2.4498   53.4274   23.9226 C.ar      1 UNK         0.0000 
     19 C19         3.5023   53.6966   23.0252 C.ar      1 UNK         0.0000 
     20 C20         4.7503   54.1330   23.4804 C.ar      1 UNK         0.0000 
     21 C21         4.9473   54.3245   24.8447 C.ar      1 UNK         0.0000 
     22 C22         3.9099   54.0971   25.7457 C.ar      1 UNK         0.0000 
     23 C23         2.6718   53.6552   25.2904 C.ar      1 UNK         0.0000 
     24 N24         4.1536   54.2803   27.0990 N.am      1 UNK         0.0000 
     25 C25         5.3632   54.3757   27.6733 C.2       1 UNK         0.0000 
     26 O26         5.5037   54.4961   28.8830 O.2       1 UNK         0.0000 
     27 C27         6.5244   54.3287   26.6382 C.3       1 UNK         0.0000 
     28 O28         6.1595   54.7940   25.3125 O.3       1 UNK         0.0000 
     29 C29        -1.5631   46.1364   20.0886 C.2       1 UNK         0.0000 
     30 C30        -0.8844   45.0008   19.8280 C.2       1 UNK         0.0000 
     31 C31        -1.0496   43.6967   20.6122 C.2       1 UNK         0.0000 
     32 O32        -0.4764   42.7181   20.0816 O.co2     1 UNK         0.0000 
     33 O33        -1.7220   43.7375   21.6709 O.co2     1 UNK         0.0000 
     34 H34        -0.0770   52.3737   16.1009 H         1 UNK         0.0000 
     35 H35         0.8655   50.9413   16.4939 H         1 UNK         0.0000 
     36 H36        -0.6076   50.8058   15.5044 H         1 UNK         0.0000 
     37 H37        -0.1420   48.7561   16.5256 H         1 UNK         0.0000 
     38 H38        -0.4192   46.6213   17.6092 H         1 UNK         0.0000 
     39 H39        -2.3855   48.5112   20.9162 H         1 UNK         0.0000 
     40 H40        -0.0784   52.9336   25.2666 H         1 UNK         0.0000 
     41 H41         3.3707   53.5573   21.9625 H         1 UNK         0.0000 
     42 H42         5.5516   54.3292   22.7833 H         1 UNK         0.0000 
     43 H43         1.8965   53.4617   26.0156 H         1 UNK         0.0000 
     44 H44         3.3883   54.2541   27.7548 H         1 UNK         0.0000 
     45 H45         6.8100   53.2788   26.5697 H         1 UNK         0.0000 
     46 H46         7.3683   54.8888   27.0399 H         1 UNK         0.0000 
     47 H47        -2.2783   46.1321   20.9009 H         1 UNK         0.0000 
     48 H48        -0.1675   44.9866   19.0223 H         1 UNK         0.0000 
     49 H49         1.6719   52.5757   21.4460 H         1 UNK         0.0000 
@<TRIPOS>BOND
     1    1    2 1    
     2    1   34 1    
     3    1   35 1    
     4    1   36 1    
     5    2    3 1    
     6    3    8 ar   
     7    3    4 ar   
     8    4    5 ar   
     9    4   37 1    
    10    5    6 ar   
    11    5   38 1    
    12    6    7 ar   
    13    6   29 1    
    14    7    8 ar   
    15    7   39 1    
    16    8    9 1    
    17    9   10 2    
    18    9   11 2    
    19    9   12 1    
    20   12   13 2    
    21   13   17 1    
    22   13   14 1    
    23   14   15 1    
    24   14   49 1    
    25   15   16 2    
    26   15   18 1    
    27   16   17 1    
    28   16   40 1    
    29   18   23 ar   
    30   18   19 ar   
    31   19   20 ar   
    32   19   41 1    
    33   20   21 ar   
    34   20   42 1    
    35   21   28 1    
    36   21   22 ar   
    37   22   23 ar   
    38   22   24 1    
    39   23   43 1    
    40   24   25 am   BACKBONE|DICT|INTERRES
    41   24   44 1    
    42   25   26 2    
    43   25   27 1    
    44   27   28 1    
    45   27   45 1    
    46   27   46 1    
    47   29   30 2    
    48   29   47 1    
    49   30   31 1    
    50   30   48 1    
    51   31   32 2    
    52   31   33 1    
@<TRIPOS>SUBSTRUCTURE
     1 UNK         1 GROUP             0       ****    0 ROOT    
