@<TRIPOS>MOLECULE
ZINC35426062_1476
45   49    1
SMALL
USER_CHARGES


@<TRIPOS>ATOM
      1 C1         -0.2196   52.1913   30.0553 C.ar      1 UNK         0.0000 
      2 C2          0.2337   53.3209   30.7397 C.ar      1 UNK         0.0000 
      3 C3          1.0889   54.2405   30.1316 C.ar      1 UNK         0.0000 
      4 C4          1.5037   53.9476   28.8302 C.ar      1 UNK         0.0000 
      5 C5          1.0592   52.8130   28.1137 C.ar      1 UNK         0.0000 
      6 C6          0.1739   51.9237   28.7408 C.ar      1 UNK         0.0000 
      7 C7          1.6968   52.9140   26.8414 C.2       1 UNK         0.0000 
      8 C8          2.4991   54.0472   26.8917 C.2       1 UNK         0.0000 
      9 O9          2.3791   54.6849   28.0912 O.3       1 UNK         0.0000 
     10 C10         3.4589   54.6888   25.9112 C.3       1 UNK         0.0000 
     11 N11         4.7961   54.0951   25.9458 N.3       1 UNK         0.0000 
     12 C12         5.4550   54.2307   27.2423 C.3       1 UNK         0.0000 
     13 C13         6.9299   53.9319   26.9876 C.3       1 UNK         0.0000 
     14 C14         7.1043   54.2026   25.4918 C.3       1 UNK         0.0000 
     15 C15         5.7450   54.7027   25.0138 C.3       1 UNK         0.0000 
     16 H16         5.7099   55.7851   25.1635 H         1 UNK         0.0000 
     17 C17         5.4873   54.4506   23.5330 C.2       1 UNK         0.0000 
     18 N18         6.2059   54.8962   22.5417 N.2       1 UNK         0.0000 
     19 C19         5.5239   54.4981   21.4849 C.2       1 UNK         0.0000 
     20 N20         4.4770   53.7383   21.7429 N.2       1 UNK         0.0000 
     21 O21         4.4347   53.6971   23.1332 O.3       1 UNK         0.0000 
     22 C22         5.9040   54.9022   20.0812 C.ar      1 UNK         0.0000 
     23 C23         4.9600   54.7429   19.0513 C.ar      1 UNK         0.0000 
     24 N24         5.1917   55.0865   17.7590 N.ar      1 UNK         0.0000 
     25 C25         6.4123   55.6064   17.4952 C.ar      1 UNK         0.0000 
     26 N26         7.4049   55.8078   18.3948 N.ar      1 UNK         0.0000 
     27 C27         7.1406   55.4590   19.6792 C.ar      1 UNK         0.0000 
     28 N28         8.1885   55.6967   20.5663 N.pl3     1 UNK         0.0000 
     29 H29        -0.8949   51.5093   30.5541 H         1 UNK         0.0000 
     30 H30        -0.0959   53.4840   31.7569 H         1 UNK         0.0000 
     31 H31         1.4226   55.1323   30.6392 H         1 UNK         0.0000 
     32 H32        -0.1922   51.0458   28.2265 H         1 UNK         0.0000 
     33 H33         1.6096   52.2465   25.9973 H         1 UNK         0.0000 
     34 H34         3.0396   54.5651   24.9130 H         1 UNK         0.0000 
     35 H35         3.5217   55.7589   26.0799 H         1 UNK         0.0000 
     36 H36         5.2990   55.2125   27.6932 H         1 UNK         0.0000 
     37 H37         5.0090   53.5209   27.9406 H         1 UNK         0.0000 
     38 H38         7.5622   54.5753   27.6005 H         1 UNK         0.0000 
     39 H39         7.1657   52.8967   27.2408 H         1 UNK         0.0000 
     40 H40         7.8825   54.9308   25.2812 H         1 UNK         0.0000 
     41 H41         7.3859   53.2963   24.9567 H         1 UNK         0.0000 
     42 H42         3.9790   54.3351   19.2486 H         1 UNK         0.0000 
     43 H43         6.6195   55.8817   16.4724 H         1 UNK         0.0000 
     44 H44         8.0877   55.4311   21.5367 H         1 UNK         0.0000 
     45 H45         9.0628   56.0451   20.1990 H         1 UNK         0.0000 
@<TRIPOS>BOND
     1    1    6 ar   
     2    1    2 ar   
     3    1   29 1    
     4    2    3 ar   
     5    2   30 1    
     6    3    4 ar   
     7    3   31 1    
     8    4    9 1    
     9    4    5 ar   
    10    5    6 ar   
    11    5    7 1    
    12    6   32 1    
    13    7    8 2    
    14    7   33 1    
    15    8    9 1    
    16    8   10 1    
    17   10   11 1    
    18   10   34 1    
    19   10   35 1    
    20   11   15 1    
    21   11   12 1    
    22   12   13 1    
    23   12   36 1    
    24   12   37 1    
    25   13   14 1    
    26   13   38 1    
    27   13   39 1    
    28   14   15 1    
    29   14   40 1    
    30   14   41 1    
    31   15   16 1    
    32   15   17 1    
    33   17   21 1    
    34   17   18 2    
    35   18   19 1    
    36   19   20 2    
    37   19   22 1    
    38   20   21 1    
    39   22   27 ar   
    40   22   23 ar   
    41   23   24 ar   
    42   23   42 1    
    43   24   25 ar   
    44   25   26 ar   
    45   25   43 1    
    46   26   27 ar   
    47   27   28 1    
    48   28   44 1    
    49   28   45 1    
@<TRIPOS>SUBSTRUCTURE
     1 UNK         1 GROUP             0       ****    0 ROOT    
