@<TRIPOS>MOLECULE
ZINC65055564_1977
46   48    1
SMALL
USER_CHARGES


@<TRIPOS>ATOM
      1 C1          7.1395   54.3551   24.8060 C.3       1 UNK         0.0000 
      2 C2          5.6381   54.2148   24.7219 C.ar      1 UNK         0.0000 
      3 C3          5.0206   54.0983   23.4805 C.ar      1 UNK         0.0000 
      4 C4          3.6355   53.9852   23.4031 C.ar      1 UNK         0.0000 
      5 C5          2.8779   53.9986   24.5764 C.ar      1 UNK         0.0000 
      6 C6          3.4703   54.0963   25.8427 C.ar      1 UNK         0.0000 
      7 C7          4.8708   54.1866   25.8861 C.ar      1 UNK         0.0000 
      8 N8          2.6134   54.0971   26.9174 N.2       1 UNK         0.0000 
      9 S9          2.9746   54.3671   28.4236 S.o2      1 UNK         0.0000 
     10 O10         1.8947   55.0896   29.1038 O.2       1 UNK         0.0000 
     11 O11         4.3212   54.8869   28.6760 O.2       1 UNK         0.0000 
     12 C12         2.9472   52.6071   29.1272 C.3       1 UNK         0.0000 
     13 H13         3.2621   51.9565   28.3148 H         1 UNK         0.0000 
     14 C14         1.6303   52.2661   29.7610 C.2       1 UNK         0.0000 
     15 C15         1.9094   52.0968   31.0561 C.2       1 UNK         0.0000 
     16 N16         3.2393   52.1742   31.2819 N.2       1 UNK         0.0000 
     17 N17         3.8655   52.4640   30.2163 N.2       1 UNK         0.0000 
     18 C18         0.3198   52.1015   29.1715 C.2       1 UNK         0.0000 
     19 O19        -0.6988   52.0338   29.8578 O.2       1 UNK         0.0000 
     20 N20         0.3544   52.0095   27.8260 N.am      1 UNK         0.0000 
     21 C21        -0.6840   51.7291   26.9188 C.ar      1 UNK         0.0000 
     22 C22        -1.9687   51.2963   27.2867 C.ar      1 UNK         0.0000 
     23 C23        -2.9225   51.0181   26.3095 C.ar      1 UNK         0.0000 
     24 C24        -2.6028   51.1512   24.9603 C.ar      1 UNK         0.0000 
     25 C25        -1.3222   51.5608   24.5714 C.ar      1 UNK         0.0000 
     26 C26        -0.3735   51.8520   25.5605 C.ar      1 UNK         0.0000 
     27 C27        -0.9684   51.6632   23.0887 C.3       1 UNK         0.0000 
     28 F28        -2.0093   52.0980   22.3746 F         1 UNK         0.0000 
     29 F29        -0.6219   50.4573   22.6410 F         1 UNK         0.0000 
     30 F30         0.0517   52.4971   22.8830 F         1 UNK         0.0000 
     31 C31         2.9638   53.8664   22.0509 C.3       1 UNK         0.0000 
     32 H32         7.6174   53.6042   24.1763 H         1 UNK         0.0000 
     33 H33         7.4504   55.3371   24.4483 H         1 UNK         0.0000 
     34 H34         7.5041   54.2186   25.8246 H         1 UNK         0.0000 
     35 H35         5.6155   54.1031   22.5784 H         1 UNK         0.0000 
     36 H36         1.8025   53.9388   24.4987 H         1 UNK         0.0000 
     37 H37         5.4061   54.2314   26.8161 H         1 UNK         0.0000 
     38 H38         1.2451   51.8465   31.8736 H         1 UNK         0.0000 
     39 H39         1.2419   52.2360   27.3986 H         1 UNK         0.0000 
     40 H40        -2.2432   51.1324   28.3177 H         1 UNK         0.0000 
     41 H41        -3.9045   50.6743   26.6009 H         1 UNK         0.0000 
     42 H42        -3.3486   50.9111   24.2159 H         1 UNK         0.0000 
     43 H43         0.6219   52.1550   25.2687 H         1 UNK         0.0000 
     44 H44         3.4849   54.4791   21.3137 H         1 UNK         0.0000 
     45 H45         2.9721   52.8314   21.7081 H         1 UNK         0.0000 
     46 H46         1.9330   54.2194   22.0824 H         1 UNK         0.0000 
@<TRIPOS>BOND
     1    1    2 1    
     2    1   32 1    
     3    1   33 1    
     4    1   34 1    
     5    2    7 ar   
     6    2    3 ar   
     7    3    4 ar   
     8    3   35 1    
     9    4    5 ar   
    10    4   31 1    
    11    5    6 ar   
    12    5   36 1    
    13    6    7 ar   
    14    6    8 1    
    15    7   37 1    
    16    8    9 1    
    17    9   10 2    
    18    9   11 2    
    19    9   12 1    
    20   12   13 1    
    21   12   17 1    
    22   12   14 1    
    23   14   15 2    
    24   14   18 1    
    25   15   16 1    
    26   15   38 1    
    27   16   17 2    
    28   18   19 2    
    29   18   20 am   BACKBONE|DICT|INTERRES
    30   20   21 1    
    31   20   39 1    
    32   21   26 ar   
    33   21   22 ar   
    34   22   23 ar   
    35   22   40 1    
    36   23   24 ar   
    37   23   41 1    
    38   24   25 ar   
    39   24   42 1    
    40   25   26 ar   
    41   25   27 1    
    42   26   43 1    
    43   27   28 1    
    44   27   29 1    
    45   27   30 1    
    46   31   44 1    
    47   31   45 1    
    48   31   46 1    
@<TRIPOS>SUBSTRUCTURE
     1 UNK         1 GROUP             0       ****    0 ROOT    
