ZINC13184320_5882
                    3D
 Schrodinger Suite 2024-2.
 47 49  0  0  1  0            999 V2000
   -3.2524   50.8223   26.9746 C   0  0  0  0  0  0
   -2.4640   51.3898   25.7747 C   0  0  0  0  0  0
   -2.7152   52.8972   25.6198 C   0  0  0  0  0  0
   -0.9443   51.0300   25.7290 C   0  0  1  0  0  0
   -0.5737   51.3918   24.7700 H   0  0  0  0  0  0
   -0.0603   51.7006   26.7912 C   0  0  0  0  0  0
   -0.2686   51.5080   28.1661 C   0  0  0  0  0  0
    0.5606   52.1155   29.1115 C   0  0  0  0  0  0
    1.6227   52.9129   28.6905 C   0  0  0  0  0  0
    1.8612   53.0886   27.3188 C   0  0  0  0  0  0
    1.0176   52.4971   26.3774 C   0  0  0  0  0  0
    2.8898   53.8784   26.8504 O   0  0  0  0  0  0
    3.9400   54.0805   27.8018 C   0  0  0  0  0  0
    3.3456   54.4590   29.1788 C   0  0  0  0  0  0
    2.4628   53.4363   29.6559 O   0  0  0  0  0  0
   -0.6755   49.5702   25.7324 N   0  0  0  0  0  0
   -1.2641   48.5685   24.4091 S   0  0  0  0  0  0
   -0.5398   47.2966   24.4797 O   0  0  0  0  0  0
   -2.7324   48.5814   24.4222 O   0  0  0  0  0  0
   -0.7221   49.4049   22.9177 C   0  0  0  0  0  0
    0.6376   49.4745   22.6178 C   0  0  0  0  0  0
    1.0602   50.1384   21.4670 C   0  0  0  0  0  0
    0.1351   50.7426   20.6093 C   0  0  0  0  0  0
   -1.2416   50.6927   20.9078 C   0  0  0  0  0  0
   -1.6528   50.0077   22.0628 C   0  0  0  0  0  0
   -2.2798   51.2965   20.0181 C   0  0  0  0  0  0
   -3.2576   50.5835   19.7124 O   0  0  0  0  0  0
    0.8247   51.6021   19.0482 Br  0  0  0  0  0  0
   -3.0535   51.3682   27.8948 H   0  0  0  0  0  0
   -4.3267   50.8866   26.8018 H   0  0  0  0  0  0
   -3.0222   49.7691   27.1485 H   0  0  0  0  0  0
   -2.9155   50.9511   24.8868 H   0  0  0  0  0  0
   -2.3400   53.4489   26.4812 H   0  0  0  0  0  0
   -2.2248   53.2965   24.7313 H   0  0  0  0  0  0
   -3.7809   53.1151   25.5285 H   0  0  0  0  0  0
   -1.0609   50.8665   28.5185 H   0  0  0  0  0  0
    0.3852   51.9501   30.1646 H   0  0  0  0  0  0
    1.2132   52.6542   25.3265 H   0  0  0  0  0  0
    4.5213   53.1602   27.8997 H   0  0  0  0  0  0
    4.6100   54.8612   27.4427 H   0  0  0  0  0  0
    4.1445   54.6184   29.9063 H   0  0  0  0  0  0
    2.7928   55.3958   29.0841 H   0  0  0  0  0  0
   -0.8637   49.1384   26.6496 H   0  0  0  0  0  0
    1.3649   49.0181   23.2744 H   0  0  0  0  0  0
    2.1151   50.1804   21.2328 H   0  0  0  0  0  0
   -2.7070   49.9444   22.2987 H   0  0  0  0  0  0
   -2.1447   52.4966   19.6825 O   0  5  0  0  0  0
  1  2  1  0  0  0
  1 29  1  0  0  0
  1 30  1  0  0  0
  1 31  1  0  0  0
  2  3  1  0  0  0
  2  4  1  0  0  0
  2 32  1  0  0  0
  3 33  1  0  0  0
  3 34  1  0  0  0
  3 35  1  0  0  0
  4  5  1  0  0  0
  4  6  1  0  0  0
  4 16  1  0  0  0
  6 11  2  0  0  0
  6  7  1  0  0  0
  7  8  2  0  0  0
  7 36  1  0  0  0
  8  9  1  0  0  0
  8 37  1  0  0  0
  9 15  1  0  0  0
  9 10  2  0  0  0
 10 11  1  0  0  0
 10 12  1  0  0  0
 11 38  1  0  0  0
 12 13  1  0  0  0
 13 14  1  0  0  0
 13 39  1  0  0  0
 13 40  1  0  0  0
 14 15  1  0  0  0
 14 41  1  0  0  0
 14 42  1  0  0  0
 16 17  1  0  0  0
 16 43  1  0  0  0
 17 18  2  0  0  0
 17 19  2  0  0  0
 17 20  1  0  0  0
 20 25  2  0  0  0
 20 21  1  0  0  0
 21 22  2  0  0  0
 21 44  1  0  0  0
 22 23  1  0  0  0
 22 45  1  0  0  0
 23 24  2  0  0  0
 23 28  1  0  0  0
 24 25  1  0  0  0
 24 26  1  0  0  0
 25 46  1  0  0  0
 26 27  2  0  0  0
 26 47  1  0  0  0
M  CHG  1  47  -1
M  END
> <i_i_glide_confnum>
17

> <i_i_glide_lignum>
5883

> <i_i_glide_posenum>
311

> <i_i_glide_rotatable_bonds>
6

> <i_m_Source_File_Index>
5762

> <b_m_subgroup_collapsed>
0

> <r_i_docking_score>
-3.37529

> <r_i_glide_ecoul>
-7.47516

> <r_i_glide_eff_state_penalty>
0

> <r_i_glide_einternal>
5.98589

> <r_i_glide_emodel>
-41.245

> <r_i_glide_energy>
-36.7658

> <r_i_glide_erotb>
0.275074

> <r_i_glide_esite>
-0.23855

> <r_i_glide_evdw>
-29.2907

> <r_i_glide_gscore>
-3.37529

> <r_i_glide_hbond>
-0.32

> <r_i_glide_ligand_efficiency>
-0.120546

> <r_i_glide_ligand_efficiency_ln>
-0.779117

> <r_i_glide_ligand_efficiency_sa>
-0.366049

> <r_i_glide_lipo>
-1.19923

> <r_i_glide_metal>
0

> <r_i_glide_rewards>
0.693218

> <s_i_glide_gridfile>
wee1_glide-grid

> <s_m_Source_File>
wee1_decoys_glide_SP.sdf

> <s_m_Source_Path>
/Users/zhangxujun/Desktop

> <s_m_entry_id>
6037

> <s_m_entry_name>
wee1_decoys_glide_SP.5762

> <s_m_subgroup_title>
wee1_decoys_glide_SP

> <s_m_subgroupid>
wee1_decoys_glide_SP


$$$$
