@<TRIPOS>MOLECULE
ZINC02762599_1875
43   45    1
SMALL
USER_CHARGES


@<TRIPOS>ATOM
      1 C1          4.4406   52.6211   29.0202 C.3       1 UNK         0.0000 
      2 C2          3.0296   52.8568   29.5949 C.3       1 UNK         0.0000 
      3 C3          1.8855   52.6787   28.5713 C.3       1 UNK         0.0000 
      4 C4          1.6988   53.8218   27.5506 C.3       1 UNK         0.0000 
      5 C5          2.7537   53.9015   26.4504 C.2       1 UNK         0.0000 
      6 C6          4.0756   54.3704   26.5156 C.2       1 UNK         0.0000 
      7 C7          4.7678   54.3039   25.2652 C.2       1 UNK         0.0000 
      8 C8          3.9198   53.8484   24.2302 C.2       1 UNK         0.0000 
      9 S9          2.3387   53.4385   24.8367 S.3       1 UNK         0.0000 
     10 N10         4.2668   53.6966   22.8821 N.am      1 UNK         0.0000 
     11 C11         3.5738   53.1128   21.8797 C.2       1 UNK         0.0000 
     12 O12         2.4384   52.6488   21.9834 O.2       1 UNK         0.0000 
     13 C13         4.3687   52.9019   20.5758 C.3       1 UNK         0.0000 
     14 C14         3.5040   52.7548   19.3088 C.3       1 UNK         0.0000 
     15 C15         4.5995   53.5560   18.5845 C.3       1 UNK         0.0000 
     16 C16         4.9494   54.1812   19.9465 C.3       1 UNK         0.0000 
     17 C17         6.1514   54.7481   25.0671 C.2       1 UNK         0.0000 
     18 O18         6.6655   55.6780   25.6821 O.2       1 UNK         0.0000 
     19 N19         6.8534   54.0980   24.1376 N.am      1 UNK         0.0000 
     20 C20         4.6315   54.8967   27.8294 C.3       1 UNK         0.0000 
     21 C21         5.2843   53.8714   28.7465 C.3       1 UNK         0.0000 
     22 H22         4.9987   51.9603   29.6841 H         1 UNK         0.0000 
     23 H23         4.3605   52.0967   28.0756 H         1 UNK         0.0000 
     24 H24         2.9604   53.8312   30.0796 H         1 UNK         0.0000 
     25 H25         2.8678   52.1333   30.3948 H         1 UNK         0.0000 
     26 H26         0.9559   52.5885   29.1362 H         1 UNK         0.0000 
     27 H27         1.9896   51.7256   28.0496 H         1 UNK         0.0000 
     28 H28         1.6330   54.7701   28.0847 H         1 UNK         0.0000 
     29 H29         0.7116   53.6916   27.1065 H         1 UNK         0.0000 
     30 H30         5.1868   54.0316   22.6406 H         1 UNK         0.0000 
     31 H31         5.0889   52.0868   20.6799 H         1 UNK         0.0000 
     32 H32         2.5508   53.2892   19.3297 H         1 UNK         0.0000 
     33 H33         3.3465   51.7340   18.9551 H         1 UNK         0.0000 
     34 H34         4.2492   54.2498   17.8191 H         1 UNK         0.0000 
     35 H35         5.3902   52.9274   18.1655 H         1 UNK         0.0000 
     36 H36         6.0071   54.3719   20.1301 H         1 UNK         0.0000 
     37 H37         4.3735   55.0886   20.1328 H         1 UNK         0.0000 
     38 H38         6.5284   53.2116   23.7847 H         1 UNK         0.0000 
     39 H39         7.7895   54.4202   23.9232 H         1 UNK         0.0000 
     40 H40         5.3505   55.6963   27.6748 H         1 UNK         0.0000 
     41 H41         3.8341   55.3791   28.3923 H         1 UNK         0.0000 
     42 H42         5.5046   54.3877   29.6816 H         1 UNK         0.0000 
     43 H43         6.2477   53.5709   28.3297 H         1 UNK         0.0000 
@<TRIPOS>BOND
     1    1   21 1    
     2    1    2 1    
     3    1   22 1    
     4    1   23 1    
     5    2    3 1    
     6    2   24 1    
     7    2   25 1    
     8    3    4 1    
     9    3   26 1    
    10    3   27 1    
    11    4    5 1    
    12    4   28 1    
    13    4   29 1    
    14    5    9 1    
    15    5    6 2    
    16    6    7 1    
    17    6   20 1    
    18    7    8 2    
    19    7   17 1    
    20    8    9 1    
    21    8   10 am   BACKBONE|DICT|INTERRES
    22   10   11 am   BACKBONE|DICT|INTERRES
    23   10   30 1    
    24   11   12 2    
    25   11   13 1    
    26   13   16 1    
    27   13   14 1    
    28   13   31 1    
    29   14   15 1    
    30   14   32 1    
    31   14   33 1    
    32   15   16 1    
    33   15   34 1    
    34   15   35 1    
    35   16   36 1    
    36   16   37 1    
    37   17   18 2    
    38   17   19 am   BACKBONE|DICT|INTERRES
    39   19   38 1    
    40   19   39 1    
    41   20   21 1    
    42   20   40 1    
    43   20   41 1    
    44   21   42 1    
    45   21   43 1    
@<TRIPOS>SUBSTRUCTURE
     1 UNK         1 GROUP             0       ****    0 ROOT    
