@<TRIPOS>MOLECULE
ZINC15087694_4206
58   62    1
SMALL
USER_CHARGES


@<TRIPOS>ATOM
      1 C1         -6.0441   48.4719   21.6729 C.3       1 UNK         0.0000 
      2 C2         -4.7022   49.1825   21.6800 C.ar      1 UNK         0.0000 
      3 C3         -4.4852   50.2402   22.5633 C.ar      1 UNK         0.0000 
      4 C4         -3.2577   50.8952   22.5789 C.ar      1 UNK         0.0000 
      5 C5         -2.2146   50.4842   21.7299 C.ar      1 UNK         0.0000 
      6 C6         -2.4459   49.4102   20.8515 C.ar      1 UNK         0.0000 
      7 C7         -3.6803   48.7663   20.8260 C.ar      1 UNK         0.0000 
      8 N8         -0.9408   51.1254   21.7737 N.am      1 UNK         0.0000 
      9 C9         -0.3189   51.5036   22.9353 C.2       1 UNK         0.0000 
     10 O10        -0.7702   51.4667   24.0788 O.2       1 UNK         0.0000 
     11 C11         1.1021   51.9320   22.5842 C.3       1 UNK         0.0000 
     12 H12         1.6959   51.0232   22.7200 H         1 UNK         0.0000 
     13 C13         0.9725   52.2649   21.1396 C.3       1 UNK         0.0000 
     14 H14         0.6879   53.2965   20.9710 H         1 UNK         0.0000 
     15 C15        -0.1858   51.4128   20.6685 C.2       1 UNK         0.0000 
     16 O16        -0.4208   51.1446   19.4903 O.2       1 UNK         0.0000 
     17 S17         2.5455   52.0893   20.2706 S.3       1 UNK         0.0000 
     18 C18         3.5516   52.9898   21.4739 C.2       1 UNK         0.0000 
     19 C19         3.1797   53.3028   22.7443 C.2       1 UNK         0.0000 
     20 S20         4.4941   54.0974   23.5999 S.3       1 UNK         0.0000 
     21 C21         5.5045   54.1061   22.1171 C.2       1 UNK         0.0000 
     22 O22         6.6281   54.6072   22.0821 O.2       1 UNK         0.0000 
     23 N23         4.7677   53.5007   21.0872 N.am      1 UNK         0.0000 
     24 C24         5.3194   53.4235   19.7024 C.3       1 UNK         0.0000 
     25 C25         5.6330   54.8207   19.1276 C.2       1 UNK         0.0000 
     26 O26         4.7102   55.5323   18.7418 O.2       1 UNK         0.0000 
     27 N27         6.9420   55.1509   19.0872 N.am      1 UNK         0.0000 
     28 C28         7.5555   56.3610   18.7174 C.ar      1 UNK         0.0000 
     29 C29         8.9385   56.3084   18.5200 C.ar      1 UNK         0.0000 
     30 C30         9.6481   57.4609   18.1956 C.ar      1 UNK         0.0000 
     31 C31         8.9803   58.6770   18.0821 C.ar      1 UNK         0.0000 
     32 C32         7.6024   58.7435   18.2770 C.ar      1 UNK         0.0000 
     33 C33         6.8843   57.5882   18.5914 C.ar      1 UNK         0.0000 
     34 O34         9.6840   59.8175   17.8085 O.3       1 UNK         0.0000 
     35 C35         1.8130   53.0389   23.4262 C.3       1 UNK         0.0000 
     36 C36         2.0693   52.5806   24.8793 C.3       1 UNK         0.0000 
     37 C37         1.1048   54.4090   23.4510 C.3       1 UNK         0.0000 
     38 H38        -6.4307   48.3816   22.6882 H         1 UNK         0.0000 
     39 H39        -6.7713   49.0294   21.0813 H         1 UNK         0.0000 
     40 H40        -5.9603   47.4591   21.2771 H         1 UNK         0.0000 
     41 H41        -5.2706   50.5666   23.2303 H         1 UNK         0.0000 
     42 H42        -3.1247   51.7198   23.2638 H         1 UNK         0.0000 
     43 H43        -1.6693   49.0550   20.1880 H         1 UNK         0.0000 
     44 H44        -3.8405   47.9431   20.1435 H         1 UNK         0.0000 
     45 H45         4.6402   52.9353   19.0058 H         1 UNK         0.0000 
     46 H46         6.2114   52.8017   19.6815 H         1 UNK         0.0000 
     47 H47         7.5901   54.4320   19.3687 H         1 UNK         0.0000 
     48 H48         9.4761   55.3779   18.6257 H         1 UNK         0.0000 
     49 H49        10.7173   57.4029   18.0591 H         1 UNK         0.0000 
     50 H50         7.1001   59.6966   18.1892 H         1 UNK         0.0000 
     51 H51         5.8211   57.6776   18.7505 H         1 UNK         0.0000 
     52 H52        10.5737   59.6246   17.5069 H         1 UNK         0.0000 
     53 H53         1.1523   52.3273   25.4053 H         1 UNK         0.0000 
     54 H54         2.7001   51.7050   24.8726 H         1 UNK         0.0000 
     55 H55         2.5684   53.3376   25.4845 H         1 UNK         0.0000 
     56 H56         0.0741   54.3208   23.7969 H         1 UNK         0.0000 
     57 H57         1.6175   55.1022   24.1126 H         1 UNK         0.0000 
     58 H58         1.1047   54.8958   22.4819 H         1 UNK         0.0000 
@<TRIPOS>BOND
     1    1    2 1    
     2    1   38 1    
     3    1   39 1    
     4    1   40 1    
     5    2    7 ar   
     6    2    3 ar   
     7    3    4 ar   
     8    3   41 1    
     9    4    5 ar   
    10    4   42 1    
    11    5    6 ar   
    12    5    8 1    
    13    6    7 ar   
    14    6   43 1    
    15    7   44 1    
    16    8   15 am   BACKBONE|DICT|INTERRES
    17    8    9 am   BACKBONE|DICT|INTERRES
    18    9   10 2    
    19    9   11 1    
    20   11   12 1    
    21   11   35 1    
    22   11   13 1    
    23   13   14 1    
    24   13   15 1    
    25   13   17 1    
    26   15   16 2    
    27   17   18 1    
    28   18   23 am   BACKBONE|DICT|INTERRES
    29   18   19 2    
    30   19   20 1    
    31   19   35 1    
    32   20   21 1    
    33   21   22 2    
    34   21   23 am   BACKBONE|DICT|INTERRES
    35   23   24 1    
    36   24   25 1    
    37   24   45 1    
    38   24   46 1    
    39   25   26 2    
    40   25   27 am   BACKBONE|DICT|INTERRES
    41   27   28 1    
    42   27   47 1    
    43   28   33 ar   
    44   28   29 ar   
    45   29   30 ar   
    46   29   48 1    
    47   30   31 ar   
    48   30   49 1    
    49   31   32 ar   
    50   31   34 1    
    51   32   33 ar   
    52   32   50 1    
    53   33   51 1    
    54   34   52 1    
    55   35   36 1    
    56   35   37 1    
    57   36   53 1    
    58   36   54 1    
    59   36   55 1    
    60   37   56 1    
    61   37   57 1    
    62   37   58 1    
@<TRIPOS>SUBSTRUCTURE
     1 UNK         1 GROUP             0       ****    0 ROOT    
