@<TRIPOS>MOLECULE
ZINC63258817_354
60   64    1
SMALL
USER_CHARGES


@<TRIPOS>ATOM
      1 C1          2.2190   56.4221   15.4265 C.2       1 UNK         0.0000 
      2 C2          1.9887   55.3488   14.4682 C.2       1 UNK         0.0000 
      3 C3          2.3910   54.0717   14.7060 C.2       1 UNK         0.0000 
      4 C4          3.0494   53.7468   15.9000 C.2       1 UNK         0.0000 
      5 N5          3.5146   52.5922   16.3145 N.pl3     1 UNK         0.0000 
      6 C6          4.1468   52.7592   17.6289 C.3       1 UNK         0.0000 
      7 C7          3.9265   54.2242   17.9223 C.2       1 UNK         0.0000 
      8 C8          3.2920   54.7419   16.8538 C.2       1 UNK         0.0000 
      9 C9          2.8508   56.1179   16.5776 C.2       1 UNK         0.0000 
     10 C10         4.3913   54.9187   19.1962 C.3       1 UNK         0.0000 
     11 C11         5.1323   54.0307   20.2364 C.3       1 UNK         0.0000 
     12 H12         5.8916   53.4555   19.7038 H         1 UNK         0.0000 
     13 C13         5.9082   54.8962   21.2475 C.2       1 UNK         0.0000 
     14 O14         6.3292   56.0233   20.9697 O.2       1 UNK         0.0000 
     15 O15         6.1711   54.2500   22.4239 O.3       1 UNK         0.0000 
     16 C16         7.1019   54.7721   23.3725 C.3       1 UNK         0.0000 
     17 C17         6.4869   54.9772   24.7637 C.2       1 UNK         0.0000 
     18 O18         7.1041   55.6967   25.5474 O.2       1 UNK         0.0000 
     19 N19         5.3410   54.3367   25.0804 N.am      1 UNK         0.0000 
     20 C20         4.6986   54.3193   26.3342 C.ar      1 UNK         0.0000 
     21 C21         5.3854   54.4903   27.5619 C.ar      1 UNK         0.0000 
     22 C22         4.7014   54.4684   28.7822 C.ar      1 UNK         0.0000 
     23 C23         3.3303   54.2565   28.7468 C.ar      1 UNK         0.0000 
     24 C24         2.6619   54.0687   27.5706 C.ar      1 UNK         0.0000 
     25 C25         3.3141   54.0845   26.3408 C.ar      1 UNK         0.0000 
     26 O26         1.3473   53.8496   27.8346 O.3       1 UNK         0.0000 
     27 C27         1.1844   54.1195   29.2026 C.3       1 UNK         0.0000 
     28 O28         2.4597   54.1613   29.7852 O.3       1 UNK         0.0000 
     29 N29         4.2161   53.0492   20.8783 N.am      1 UNK         0.0000 
     30 C30         3.3164   53.2285   21.8749 C.2       1 UNK         0.0000 
     31 O31         3.1887   54.2953   22.4801 O.2       1 UNK         0.0000 
     32 C32         2.4640   52.0331   22.2479 C.ar      1 UNK         0.0000 
     33 C33         1.4397   52.1885   23.1953 C.ar      1 UNK         0.0000 
     34 C34         0.6639   51.1020   23.5885 C.ar      1 UNK         0.0000 
     35 C35         0.8984   49.8482   23.0329 C.ar      1 UNK         0.0000 
     36 C36         1.9037   49.6752   22.0847 C.ar      1 UNK         0.0000 
     37 C37         2.6839   50.7596   21.6926 C.ar      1 UNK         0.0000 
     38 Cl38       -0.0651   48.5033   23.5271 Cl        1 UNK         0.0000 
     39 H39         1.8999   57.4343   15.2180 H         1 UNK         0.0000 
     40 H40         1.4852   55.5775   13.5391 H         1 UNK         0.0000 
     41 H41         2.1952   53.3170   13.9572 H         1 UNK         0.0000 
     42 H42         5.1995   52.4967   17.5236 H         1 UNK         0.0000 
     43 H43         3.6408   52.0943   18.3264 H         1 UNK         0.0000 
     44 H44         3.0280   56.9205   17.2791 H         1 UNK         0.0000 
     45 H45         3.5044   55.2968   19.6804 H         1 UNK         0.0000 
     46 H46         4.9821   55.7806   18.8804 H         1 UNK         0.0000 
     47 H47         7.5605   55.7124   23.0633 H         1 UNK         0.0000 
     48 H48         7.8873   54.0208   23.4598 H         1 UNK         0.0000 
     49 H49         4.8463   53.8949   24.3188 H         1 UNK         0.0000 
     50 H50         6.4544   54.6351   27.5962 H         1 UNK         0.0000 
     51 H51         5.2365   54.6125   29.7070 H         1 UNK         0.0000 
     52 H52         2.7697   53.9310   25.4208 H         1 UNK         0.0000 
     53 H53         0.7078   55.0941   29.3220 H         1 UNK         0.0000 
     54 H54         0.5702   53.3506   29.6742 H         1 UNK         0.0000 
     55 H55         4.0922   52.2046   20.3427 H         1 UNK         0.0000 
     56 H56         1.2376   53.1523   23.6422 H         1 UNK         0.0000 
     57 H57        -0.1158   51.2316   24.3254 H         1 UNK         0.0000 
     58 H58         2.0890   48.6994   21.6604 H         1 UNK         0.0000 
     59 H59         3.4630   50.5778   20.9665 H         1 UNK         0.0000 
     60 H60         3.4732   51.7050   15.8162 H         1 UNK         0.0000 
@<TRIPOS>BOND
     1    1    9 2    
     2    1    2 1    
     3    1   39 1    
     4    2    3 2    
     5    2   40 1    
     6    3    4 1    
     7    3   41 1    
     8    4    8 1    
     9    4    5 2    
    10    5    6 1    
    11    5   60 1    
    12    6    7 1    
    13    6   42 1    
    14    6   43 1    
    15    7    8 2    
    16    7   10 1    
    17    8    9 1    
    18    9   44 1    
    19   10   11 1    
    20   10   45 1    
    21   10   46 1    
    22   11   12 1    
    23   11   13 1    
    24   11   29 1    
    25   13   14 2    
    26   13   15 1    
    27   15   16 1    
    28   16   17 1    
    29   16   47 1    
    30   16   48 1    
    31   17   18 2    
    32   17   19 am   BACKBONE|DICT|INTERRES
    33   19   20 1    
    34   19   49 1    
    35   20   25 ar   
    36   20   21 ar   
    37   21   22 ar   
    38   21   50 1    
    39   22   23 ar   
    40   22   51 1    
    41   23   28 1    
    42   23   24 ar   
    43   24   25 ar   
    44   24   26 1    
    45   25   52 1    
    46   26   27 1    
    47   27   28 1    
    48   27   53 1    
    49   27   54 1    
    50   29   30 am   BACKBONE|DICT|INTERRES
    51   29   55 1    
    52   30   31 2    
    53   30   32 1    
    54   32   37 ar   
    55   32   33 ar   
    56   33   34 ar   
    57   33   56 1    
    58   34   35 ar   
    59   34   57 1    
    60   35   36 ar   
    61   35   38 1    
    62   36   37 ar   
    63   36   58 1    
    64   37   59 1    
@<TRIPOS>SUBSTRUCTURE
     1 UNK         1 GROUP             0       ****    0 ROOT    
