@<TRIPOS>MOLECULE
ZINC06462075_3095
64   66    1
SMALL
USER_CHARGES


@<TRIPOS>ATOM
      1 C1          5.4917   54.2722   21.8659 C.3       1 UNK         0.0000 
      2 C2          4.6326   53.4681   22.8673 C.3       1 UNK         0.0000 
      3 C3          3.0985   53.3454   22.5818 C.3       1 UNK         0.0000 
      4 C4          2.8699   52.6534   21.2148 C.3       1 UNK         0.0000 
      5 C5          2.5468   54.7683   22.5719 C.3       1 UNK         0.0000 
      6 N6          2.4398   52.5880   23.6610 N.am      1 UNK         0.0000 
      7 C7          1.1271   52.3067   23.8127 C.2       1 UNK         0.0000 
      8 O8          0.2481   52.6834   23.0388 O.2       1 UNK         0.0000 
      9 C9          0.7588   51.4112   25.0358 C.3       1 UNK         0.0000 
     10 H10         1.5044   50.6231   24.9735 H         1 UNK         0.0000 
     11 C11         0.9887   52.0537   26.4214 C.ar      1 UNK         0.0000 
     12 C12         0.7454   51.2896   27.5679 C.ar      1 UNK         0.0000 
     13 C13         0.8364   51.8377   28.8412 C.ar      1 UNK         0.0000 
     14 C14         1.2515   53.1612   29.0138 C.ar      1 UNK         0.0000 
     15 C15         1.6265   53.8946   27.8901 C.ar      1 UNK         0.0000 
     16 C16         1.5043   53.3487   26.6116 C.ar      1 UNK         0.0000 
     17 O17         1.3083   53.7983   30.2396 O.3       1 UNK         0.0000 
     18 C18         0.7071   53.1666   31.3711 C.3       1 UNK         0.0000 
     19 N19        -0.5259   50.6248   24.8655 N.am      1 UNK         0.0000 
     20 C20        -1.7008   50.9022   25.7448 C.3       1 UNK         0.0000 
     21 C21        -2.5797   52.0462   25.2956 C.2       1 UNK         0.0000 
     22 C22        -2.7768   52.7433   24.1116 C.2       1 UNK         0.0000 
     23 C23        -3.7630   53.6967   24.3667 C.2       1 UNK         0.0000 
     24 C24        -4.1259   53.5447   25.6904 C.2       1 UNK         0.0000 
     25 O25        -3.4038   52.5464   26.2536 O.3       1 UNK         0.0000 
     26 C26        -0.5851   49.6792   23.8647 C.2       1 UNK         0.0000 
     27 O27         0.3356   49.4500   23.0772 O.2       1 UNK         0.0000 
     28 C28        -1.7761   48.8872   23.7283 C.2       1 UNK         0.0000 
     29 C29        -2.2947   47.8830   24.5362 C.2       1 UNK         0.0000 
     30 C30        -3.5069   47.3977   24.0107 C.2       1 UNK         0.0000 
     31 N31        -3.9229   47.9139   22.8690 N.2       1 UNK         0.0000 
     32 S32        -2.8047   49.1021   22.3544 S.3       1 UNK         0.0000 
     33 C33        -4.3255   46.3718   24.5962 C.2       1 UNK         0.0000 
     34 O34        -4.5145   45.2898   24.0465 O.2       1 UNK         0.0000 
     35 N35        -4.8304   46.6695   25.7952 N.am      1 UNK         0.0000 
     36 N36        -1.6956   47.4280   25.6816 N.pl3     1 UNK         0.0000 
     37 H37         6.5254   54.3220   22.2084 H         1 UNK         0.0000 
     38 H38         5.5048   53.8077   20.8798 H         1 UNK         0.0000 
     39 H39         5.1532   55.2968   21.7415 H         1 UNK         0.0000 
     40 H40         4.7859   53.8770   23.8676 H         1 UNK         0.0000 
     41 H41         5.0976   52.4960   22.8815 H         1 UNK         0.0000 
     42 H42         3.3348   53.2019   20.3957 H         1 UNK         0.0000 
     43 H43         3.2783   51.6421   21.2069 H         1 UNK         0.0000 
     44 H44         1.8112   52.5786   20.9663 H         1 UNK         0.0000 
     45 H45         2.9605   55.2967   21.7210 H         1 UNK         0.0000 
     46 H46         1.4641   54.8123   22.4814 H         1 UNK         0.0000 
     47 H47         2.8165   55.2963   23.4876 H         1 UNK         0.0000 
     48 H48         3.0649   52.2197   24.3621 H         1 UNK         0.0000 
     49 H49         0.4179   50.2639   27.4683 H         1 UNK         0.0000 
     50 H50         0.5570   51.2260   29.6813 H         1 UNK         0.0000 
     51 H51         1.9739   54.9103   28.0060 H         1 UNK         0.0000 
     52 H52         1.7616   53.9819   25.7770 H         1 UNK         0.0000 
     53 H53         0.7044   53.8556   32.2153 H         1 UNK         0.0000 
     54 H54         1.2619   52.2773   31.6735 H         1 UNK         0.0000 
     55 H55        -0.3315   52.8891   31.1801 H         1 UNK         0.0000 
     56 H56        -2.3469   50.0317   25.8137 H         1 UNK         0.0000 
     57 H57        -1.4302   51.0416   26.7821 H         1 UNK         0.0000 
     58 H58        -2.2672   52.5735   23.1754 H         1 UNK         0.0000 
     59 H59        -4.1628   54.4238   23.6769 H         1 UNK         0.0000 
     60 H60        -4.8318   54.0466   26.3356 H         1 UNK         0.0000 
     61 H61        -4.6314   47.5579   26.2325 H         1 UNK         0.0000 
     62 H62        -5.4074   45.9938   26.2728 H         1 UNK         0.0000 
     63 H63        -2.1808   46.8662   26.3669 H         1 UNK         0.0000 
     64 H64        -0.8064   47.7853   26.0117 H         1 UNK         0.0000 
@<TRIPOS>BOND
     1    1    2 1    
     2    1   37 1    
     3    1   38 1    
     4    1   39 1    
     5    2    3 1    
     6    2   40 1    
     7    2   41 1    
     8    3    4 1    
     9    3    5 1    
    10    3    6 1    
    11    4   42 1    
    12    4   43 1    
    13    4   44 1    
    14    5   45 1    
    15    5   46 1    
    16    5   47 1    
    17    6    7 am   BACKBONE|DICT|INTERRES
    18    6   48 1    
    19    7    8 2    
    20    7    9 1    
    21    9   10 1    
    22    9   11 1    
    23    9   19 1    
    24   11   16 ar   
    25   11   12 ar   
    26   12   13 ar   
    27   12   49 1    
    28   13   14 ar   
    29   13   50 1    
    30   14   15 ar   
    31   14   17 1    
    32   15   16 ar   
    33   15   51 1    
    34   16   52 1    
    35   17   18 1    
    36   18   53 1    
    37   18   54 1    
    38   18   55 1    
    39   19   20 1    
    40   19   26 am   BACKBONE|DICT|INTERRES
    41   20   21 1    
    42   20   56 1    
    43   20   57 1    
    44   21   25 1    
    45   21   22 2    
    46   22   23 1    
    47   22   58 1    
    48   23   24 2    
    49   23   59 1    
    50   24   25 1    
    51   24   60 1    
    52   26   27 2    
    53   26   28 1    
    54   28   32 1    
    55   28   29 2    
    56   29   30 1    
    57   29   36 1    
    58   30   31 2    
    59   30   33 1    
    60   31   32 1    
    61   33   34 2    
    62   33   35 am   BACKBONE|DICT|INTERRES
    63   35   61 1    
    64   35   62 1    
    65   36   63 1    
    66   36   64 1    
@<TRIPOS>SUBSTRUCTURE
     1 UNK         1 GROUP             0       ****    0 ROOT    
