@<TRIPOS>MOLECULE
ZINC61593949_1711
30   32    1
SMALL
USER_CHARGES


@<TRIPOS>ATOM
      1 C1          3.8172   53.4362   27.1443 C.3       1 UNK         0.0000 
      2 C2          4.2720   54.7475   26.4821 C.3       1 UNK         0.0000 
      3 N3          5.0074   54.5497   25.2245 N.pl3     1 UNK         0.0000 
      4 C4          6.3282   54.7875   25.1263 C.ar      1 UNK         0.0000 
      5 O5          7.1044   55.2959   25.9337 O.2       1 UNK         0.0000 
      6 N6          6.6064   54.2533   23.9317 N.pl3     1 UNK         0.0000 
      7 H7          7.5189   54.2040   23.5002 H         1 UNK         0.0000 
      8 N8          5.5370   53.8907   23.2280 N.2       1 UNK         0.0000 
      9 C9          4.5857   54.0968   24.0257 C.ar      1 UNK         0.0000 
     10 S10         2.8026   53.9190   23.7394 S.3       1 UNK         0.0000 
     11 C11         2.6972   52.6964   22.4447 C.ar      1 UNK         0.0000 
     12 C12         3.3838   52.8988   21.2430 C.ar      1 UNK         0.0000 
     13 C13         3.3504   51.9694   20.2063 C.ar      1 UNK         0.0000 
     14 C14         2.5725   50.8226   20.3856 C.ar      1 UNK         0.0000 
     15 C15         1.8426   50.6013   21.5843 C.ar      1 UNK         0.0000 
     16 C16         1.9020   51.5475   22.6325 C.ar      1 UNK         0.0000 
     17 N17         1.1817   51.3403   23.8206 N.pl3     1 UNK         0.0000 
     18 N18         1.1145   49.4456   21.5951 N.2       1 UNK         0.0000 
     19 C19         1.2489   48.7908   20.4788 C.2       1 UNK         0.0000 
     20 S20         2.3043   49.4821   19.2819 S.3       1 UNK         0.0000 
     21 H21         3.3152   53.6394   28.0894 H         1 UNK         0.0000 
     22 H22         4.6672   52.7868   27.3555 H         1 UNK         0.0000 
     23 H23         3.1133   52.8943   26.5133 H         1 UNK         0.0000 
     24 H24         3.4080   55.3777   26.2764 H         1 UNK         0.0000 
     25 H25         4.8865   55.2969   27.1971 H         1 UNK         0.0000 
     26 H26         3.9616   53.8004   21.1031 H         1 UNK         0.0000 
     27 H27         3.9029   52.1287   19.2890 H         1 UNK         0.0000 
     28 H28         0.6784   50.4732   23.9546 H         1 UNK         0.0000 
     29 H29         1.2524   52.0187   24.5649 H         1 UNK         0.0000 
     30 H30         0.7421   47.8591   20.2755 H         1 UNK         0.0000 
@<TRIPOS>BOND
     1    1    2 1    
     2    1   21 1    
     3    1   22 1    
     4    1   23 1    
     5    2    3 1    
     6    2   24 1    
     7    2   25 1    
     8    3    9 ar   
     9    3    4 ar   
    10    4    5 2    
    11    4    6 ar   
    12    6    7 1    
    13    6    8 ar   
    14    8    9 ar   
    15    9   10 1    
    16   10   11 1    
    17   11   16 ar   
    18   11   12 ar   
    19   12   13 ar   
    20   12   26 1    
    21   13   14 ar   
    22   13   27 1    
    23   14   20 1    
    24   14   15 ar   
    25   15   16 ar   
    26   15   18 1    
    27   16   17 1    
    28   17   28 1    
    29   17   29 1    
    30   18   19 2    
    31   19   20 1    
    32   19   30 1    
@<TRIPOS>SUBSTRUCTURE
     1 UNK         1 GROUP             0       ****    0 ROOT    
