@<TRIPOS>MOLECULE
ZINC34095350_4189
58   63    1
SMALL
USER_CHARGES


@<TRIPOS>ATOM
      1 C1          1.5517   53.5997   28.5400 C.3       1 UNK         0.0000 
      2 C2          2.4512   53.7634   27.3270 C.ar      1 UNK         0.0000 
      3 C3          3.6936   54.3928   27.4546 C.ar      1 UNK         0.0000 
      4 C4          4.5201   54.5507   26.3413 C.ar      1 UNK         0.0000 
      5 C5          4.0882   54.0969   25.0957 C.ar      1 UNK         0.0000 
      6 C6          2.8398   53.4656   24.9414 C.ar      1 UNK         0.0000 
      7 C7          2.0332   53.2968   26.0762 C.ar      1 UNK         0.0000 
      8 N8          2.4227   52.9472   23.6875 N.am      1 UNK         0.0000 
      9 C9          1.5449   51.7728   23.5385 C.3       1 UNK         0.0000 
     10 C10         1.6375   51.4288   22.0680 C.3       1 UNK         0.0000 
     11 C11         0.5990   50.5782   21.3657 C.2       1 UNK         0.0000 
     12 C12         1.2329   50.1371   20.2630 C.2       1 UNK         0.0000 
     13 C13         2.6604   50.6668   20.3620 C.3       1 UNK         0.0000 
     14 H14         3.4203   50.0714   19.8518 H         1 UNK         0.0000 
     15 O15         2.7990   50.6787   21.7667 O.3       1 UNK         0.0000 
     16 C16         2.6996   52.2063   20.1158 C.3       1 UNK         0.0000 
     17 H17         2.1438   52.4289   19.2052 H         1 UNK         0.0000 
     18 C18         1.9577   52.7346   21.3921 C.3       1 UNK         0.0000 
     19 H19         1.0633   53.2944   21.1186 H         1 UNK         0.0000 
     20 C20         2.7049   53.5271   22.4837 C.2       1 UNK         0.0000 
     21 O21         3.3885   54.5235   22.2657 O.2       1 UNK         0.0000 
     22 C22         4.1562   52.7219   19.9277 C.2       1 UNK         0.0000 
     23 O23         5.1044   52.1882   20.5074 O.2       1 UNK         0.0000 
     24 N24         4.3516   53.9096   19.1552 N.pl3     1 UNK         0.0000 
     25 C25         5.3779   54.8524   19.2093 C.ar      1 UNK         0.0000 
     26 C26         5.1546   55.7904   18.1695 C.ar      1 UNK         0.0000 
     27 C27         6.0908   56.8331   17.9811 C.ar      1 UNK         0.0000 
     28 C28         7.1731   56.8665   18.8745 C.ar      1 UNK         0.0000 
     29 C29         7.2874   55.9012   19.8778 C.ar      1 UNK         0.0000 
     30 N30         6.3981   54.8972   20.0726 N.ar      1 UNK         0.0000 
     31 C31         8.4624   55.9049   20.8350 C.3       1 UNK         0.0000 
     32 C32         5.9829   57.8635   16.8569 C.3       1 UNK         0.0000 
     33 F33         6.0588   57.2372   15.6834 F         1 UNK         0.0000 
     34 F34         6.9594   58.7726   16.9024 F         1 UNK         0.0000 
     35 F35         4.8132   58.4959   16.9268 F         1 UNK         0.0000 
     36 C36         3.9400   55.3370   17.5768 C.ar      1 UNK         0.0000 
     37 N37         3.5048   54.2499   18.1505 N.2       1 UNK         0.0000 
     38 N38         3.2825   55.9309   16.5421 N.pl3     1 UNK         0.0000 
     39 C39         5.8909   55.1973   26.4659 C.3       1 UNK         0.0000 
     40 H40         1.7630   54.3583   29.2948 H         1 UNK         0.0000 
     41 H41         0.5054   53.7196   28.2606 H         1 UNK         0.0000 
     42 H42         1.6791   52.6106   28.9807 H         1 UNK         0.0000 
     43 H43         4.0184   54.7497   28.4214 H         1 UNK         0.0000 
     44 H44         4.7578   54.2035   24.2552 H         1 UNK         0.0000 
     45 H45         1.0743   52.8093   25.9967 H         1 UNK         0.0000 
     46 H46         0.5251   52.0259   23.8295 H         1 UNK         0.0000 
     47 H47         1.8893   50.9363   24.1467 H         1 UNK         0.0000 
     48 H48        -0.4277   50.4506   21.6713 H         1 UNK         0.0000 
     49 H49         0.8541   49.5414   19.4454 H         1 UNK         0.0000 
     50 H50         7.9355   57.6270   18.7793 H         1 UNK         0.0000 
     51 H51         9.2950   56.4967   20.4514 H         1 UNK         0.0000 
     52 H52         8.1671   56.2972   21.8074 H         1 UNK         0.0000 
     53 H53         8.8355   54.8966   20.9920 H         1 UNK         0.0000 
     54 H54         3.6127   56.7907   16.1273 H         1 UNK         0.0000 
     55 H55         2.4315   55.5394   16.1679 H         1 UNK         0.0000 
     56 H56         6.1289   55.4676   27.4954 H         1 UNK         0.0000 
     57 H57         6.6557   54.5041   26.1141 H         1 UNK         0.0000 
     58 H58         5.9516   56.0912   25.8371 H         1 UNK         0.0000 
@<TRIPOS>BOND
     1    1    2 1    
     2    1   40 1    
     3    1   41 1    
     4    1   42 1    
     5    2    7 ar   
     6    2    3 ar   
     7    3    4 ar   
     8    3   43 1    
     9    4    5 ar   
    10    4   39 1    
    11    5    6 ar   
    12    5   44 1    
    13    6    7 ar   
    14    6    8 1    
    15    7   45 1    
    16    8   20 am   BACKBONE|DICT|INTERRES
    17    8    9 1    
    18    9   10 1    
    19    9   46 1    
    20    9   47 1    
    21   10   15 1    
    22   10   18 1    
    23   10   11 1    
    24   11   12 2    
    25   11   48 1    
    26   12   13 1    
    27   12   49 1    
    28   13   14 1    
    29   13   15 1    
    30   13   16 1    
    31   16   17 1    
    32   16   18 1    
    33   16   22 1    
    34   18   19 1    
    35   18   20 1    
    36   20   21 2    
    37   22   23 2    
    38   22   24 1    
    39   24   37 ar   
    40   24   25 ar   
    41   25   30 ar   
    42   25   26 ar   
    43   26   27 ar   
    44   26   36 ar   
    45   27   28 ar   
    46   27   32 1    
    47   28   29 ar   
    48   28   50 1    
    49   29   30 ar   
    50   29   31 1    
    51   31   51 1    
    52   31   52 1    
    53   31   53 1    
    54   32   33 1    
    55   32   34 1    
    56   32   35 1    
    57   36   37 ar   
    58   36   38 1    
    59   38   54 1    
    60   38   55 1    
    61   39   56 1    
    62   39   57 1    
    63   39   58 1    
@<TRIPOS>SUBSTRUCTURE
     1 UNK         1 GROUP             0       ****    0 ROOT    
