@<TRIPOS>MOLECULE
ZINC58095081_450
56   59    1
SMALL
USER_CHARGES


@<TRIPOS>ATOM
      1 C1          1.1054   45.5508   16.8204 C.3       1 UNK         0.0000 
      2 C2          0.9761   46.5475   17.9573 C.ar      1 UNK         0.0000 
      3 C3          1.8960   47.5910   18.0781 C.ar      1 UNK         0.0000 
      4 C4          1.7740   48.5125   19.1133 C.ar      1 UNK         0.0000 
      5 C5          0.7141   48.3961   20.0172 C.ar      1 UNK         0.0000 
      6 C6         -0.2045   47.3508   19.9045 C.ar      1 UNK         0.0000 
      7 C7         -0.0739   46.4275   18.8699 C.ar      1 UNK         0.0000 
      8 N8          0.5801   49.3030   21.0772 N.pl3     1 UNK         0.0000 
      9 C9          0.2263   50.6229   21.0446 C.2       1 UNK         0.0000 
     10 S10        -0.1653   51.4621   19.6347 S.2       1 UNK         0.0000 
     11 N11         0.2228   51.1696   22.2979 N.pl3     1 UNK         0.0000 
     12 N12         0.1608   52.4955   22.5658 N.2       1 UNK         0.0000 
     13 C13         0.1433   52.8480   23.7906 C.2       1 UNK         0.0000 
     14 C14         0.0052   52.0057   24.9851 C.ar      1 UNK         0.0000 
     15 C15        -0.7624   50.8626   25.1789 C.ar      1 UNK         0.0000 
     16 N16        -0.6733   50.4411   26.4818 N.pl3     1 UNK         0.0000 
     17 H17        -1.1600   49.6262   26.8502 H         1 UNK         0.0000 
     18 C18         0.1503   51.2862   27.1873 C.ar      1 UNK         0.0000 
     19 C19         0.6171   52.2615   26.2631 C.ar      1 UNK         0.0000 
     20 C20         1.5044   53.2421   26.7264 C.ar      1 UNK         0.0000 
     21 C21         1.9170   53.2357   28.0597 C.ar      1 UNK         0.0000 
     22 C22         1.4196   52.2791   28.9449 C.ar      1 UNK         0.0000 
     23 C23         0.5197   51.2967   28.5337 C.ar      1 UNK         0.0000 
     24 S24         3.0311   54.5138   28.6461 S.o2      1 UNK         0.0000 
     25 O25         2.3044   55.7763   28.4817 O.2       1 UNK         0.0000 
     26 O26         3.4902   54.0969   29.9790 O.2       1 UNK         0.0000 
     27 N27         4.4280   54.4966   27.5299 N.pl3     1 UNK         0.0000 
     28 C28         5.7982   54.4160   28.0809 C.3       1 UNK         0.0000 
     29 C29         6.6612   53.5346   27.1622 C.3       1 UNK         0.0000 
     30 C30         6.5985   54.0085   25.6851 C.3       1 UNK         0.0000 
     31 C31         5.1522   54.2471   25.1837 C.3       1 UNK         0.0000 
     32 C32         4.3627   55.1173   26.1759 C.3       1 UNK         0.0000 
     33 H33         0.1339   45.3825   16.3538 H         1 UNK         0.0000 
     34 H34         1.4703   44.5928   17.1911 H         1 UNK         0.0000 
     35 H35         1.7773   45.9118   16.0403 H         1 UNK         0.0000 
     36 H36         2.7044   47.6961   17.3690 H         1 UNK         0.0000 
     37 H37         2.4941   49.3158   19.1956 H         1 UNK         0.0000 
     38 H38        -1.0198   47.2575   20.6070 H         1 UNK         0.0000 
     39 H39        -0.7902   45.6246   18.7750 H         1 UNK         0.0000 
     40 H40         0.6273   48.8801   21.9919 H         1 UNK         0.0000 
     41 H41         0.4018   50.5878   23.1032 H         1 UNK         0.0000 
     42 H42         0.2212   53.8988   24.0562 H         1 UNK         0.0000 
     43 H43        -1.4024   50.3213   24.4951 H         1 UNK         0.0000 
     44 H44         1.8376   53.9994   26.0433 H         1 UNK         0.0000 
     45 H45         1.7148   52.3054   29.9844 H         1 UNK         0.0000 
     46 H46         0.1181   50.5790   29.2318 H         1 UNK         0.0000 
     47 H47         6.2192   55.4217   28.0914 H         1 UNK         0.0000 
     48 H48         5.7786   54.0428   29.1038 H         1 UNK         0.0000 
     49 H49         7.6906   53.5358   27.5141 H         1 UNK         0.0000 
     50 H50         6.3179   52.5018   27.2559 H         1 UNK         0.0000 
     51 H51         7.1038   53.2967   25.0340 H         1 UNK         0.0000 
     52 H52         7.1554   54.9411   25.5907 H         1 UNK         0.0000 
     53 H53         4.6363   53.2967   25.0508 H         1 UNK         0.0000 
     54 H54         5.1691   54.7196   24.2007 H         1 UNK         0.0000 
     55 H55         3.3380   55.2927   25.8720 H         1 UNK         0.0000 
     56 H56         4.8453   56.0938   26.1847 H         1 UNK         0.0000 
@<TRIPOS>BOND
     1    1    2 1    
     2    1   33 1    
     3    1   34 1    
     4    1   35 1    
     5    2    7 ar   
     6    2    3 ar   
     7    3    4 ar   
     8    3   36 1    
     9    4    5 ar   
    10    4   37 1    
    11    5    6 ar   
    12    5    8 1    
    13    6    7 ar   
    14    6   38 1    
    15    7   39 1    
    16    8    9 1    
    17    8   40 1    
    18    9   10 2    
    19    9   11 1    
    20   11   12 1    
    21   11   41 1    
    22   12   13 2    
    23   13   14 1    
    24   13   42 1    
    25   14   19 ar   
    26   14   15 ar   
    27   15   16 ar   
    28   15   43 1    
    29   16   17 1    
    30   16   18 ar   
    31   18   23 ar   
    32   18   19 ar   
    33   19   20 ar   
    34   20   21 ar   
    35   20   44 1    
    36   21   22 ar   
    37   21   24 1    
    38   22   23 ar   
    39   22   45 1    
    40   23   46 1    
    41   24   25 2    
    42   24   26 2    
    43   24   27 1    
    44   27   32 1    
    45   27   28 1    
    46   28   29 1    
    47   28   47 1    
    48   28   48 1    
    49   29   30 1    
    50   29   49 1    
    51   29   50 1    
    52   30   31 1    
    53   30   51 1    
    54   30   52 1    
    55   31   32 1    
    56   31   53 1    
    57   31   54 1    
    58   32   55 1    
    59   32   56 1    
@<TRIPOS>SUBSTRUCTURE
     1 UNK         1 GROUP             0       ****    0 ROOT    
