@<TRIPOS>MOLECULE
ZINC59984777_2330
61   64    1
SMALL
USER_CHARGES


@<TRIPOS>ATOM
      1 C1          2.2605   49.6968   21.7481 C.ar      1 UNK         0.0000 
      2 C2          0.9936   49.5392   22.3110 C.ar      1 UNK         0.0000 
      3 C3         -0.1183   50.1903   21.7564 C.ar      1 UNK         0.0000 
      4 C4          0.0694   51.0192   20.6473 C.ar      1 UNK         0.0000 
      5 C5          1.3353   51.1792   20.0854 C.ar      1 UNK         0.0000 
      6 C6          2.4309   50.5150   20.6308 C.ar      1 UNK         0.0000 
      7 F7          1.4954   51.9764   19.0062 F         1 UNK         0.0000 
      8 N8         -1.4266   50.0640   22.2514 N.pl3     1 UNK         0.0000 
      9 S9         -1.9070   49.1528   23.6929 S.o2      1 UNK         0.0000 
     10 O10        -1.2069   47.8617   23.6807 O.2       1 UNK         0.0000 
     11 O11        -3.3733   49.2113   23.7220 O.2       1 UNK         0.0000 
     12 C12        -1.3142   50.1314   25.0675 C.ar      1 UNK         0.0000 
     13 C13        -1.9754   51.3085   25.4237 C.ar      1 UNK         0.0000 
     14 C14        -1.4913   52.0914   26.4706 C.ar      1 UNK         0.0000 
     15 C15        -0.3483   51.7001   27.1739 C.ar      1 UNK         0.0000 
     16 C16         0.3054   50.5078   26.8030 C.ar      1 UNK         0.0000 
     17 C17        -0.1779   49.7266   25.7606 C.ar      1 UNK         0.0000 
     18 N18         0.0849   52.5723   28.2018 N.am      1 UNK         0.0000 
     19 C19         1.0197   52.3413   29.1491 C.2       1 UNK         0.0000 
     20 O20         1.6288   51.2966   29.2810 O.2       1 UNK         0.0000 
     21 C21         1.4666   53.4680   30.0973 C.3       1 UNK         0.0000 
     22 H22         1.8271   53.0190   31.0238 H         1 UNK         0.0000 
     23 C23         0.3973   54.5216   30.4533 C.3       1 UNK         0.0000 
     24 C24         1.1081   55.8625   30.3288 C.3       1 UNK         0.0000 
     25 C25         2.1720   55.6045   29.2618 C.3       1 UNK         0.0000 
     26 N26         2.5823   54.2216   29.4977 N.am      1 UNK         0.0000 
     27 C27         3.7660   53.6358   29.1552 C.2       1 UNK         0.0000 
     28 O28         4.1463   52.5927   29.6933 O.2       1 UNK         0.0000 
     29 C29         4.6203   54.2568   28.0279 C.3       1 UNK         0.0000 
     30 C30         6.0760   53.7187   28.0244 C.3       1 UNK         0.0000 
     31 C31         6.8719   54.4680   26.9342 C.3       1 UNK         0.0000 
     32 C32         6.2287   54.3281   25.5410 C.3       1 UNK         0.0000 
     33 C33         4.7370   54.7187   25.5450 C.3       1 UNK         0.0000 
     34 C34         3.9375   54.0060   26.6607 C.3       1 UNK         0.0000 
     35 H35         3.1029   49.1787   22.1788 H         1 UNK         0.0000 
     36 H36         0.9046   48.8942   23.1681 H         1 UNK         0.0000 
     37 H37        -0.7667   51.5377   20.2026 H         1 UNK         0.0000 
     38 H38         3.4064   50.6330   20.1804 H         1 UNK         0.0000 
     39 H39        -2.1400   50.6428   21.8379 H         1 UNK         0.0000 
     40 H40        -2.8615   51.6163   24.8885 H         1 UNK         0.0000 
     41 H41        -2.0168   52.9985   26.7340 H         1 UNK         0.0000 
     42 H42         1.2063   50.1664   27.2807 H         1 UNK         0.0000 
     43 H43         0.3387   48.8111   25.5073 H         1 UNK         0.0000 
     44 H44        -0.3757   53.4671   28.2286 H         1 UNK         0.0000 
     45 H45         0.0009   54.3697   31.4597 H         1 UNK         0.0000 
     46 H46        -0.4565   54.4878   29.7797 H         1 UNK         0.0000 
     47 H47         1.5884   56.1002   31.2793 H         1 UNK         0.0000 
     48 H48         0.4494   56.6942   30.0918 H         1 UNK         0.0000 
     49 H49         2.9900   56.3179   29.3420 H         1 UNK         0.0000 
     50 H50         1.7426   55.6850   28.2624 H         1 UNK         0.0000 
     51 H51         4.6508   55.3036   28.2750 H         1 UNK         0.0000 
     52 H52         6.1156   52.6575   27.7682 H         1 UNK         0.0000 
     53 H53         6.5861   53.9213   28.9673 H         1 UNK         0.0000 
     54 H54         7.9028   54.1039   26.9016 H         1 UNK         0.0000 
     55 H55         6.9371   55.5251   27.1992 H         1 UNK         0.0000 
     56 H56         6.3310   53.2968   25.2059 H         1 UNK         0.0000 
     57 H57         6.7717   54.9368   24.8169 H         1 UNK         0.0000 
     58 H58         4.2937   54.5047   24.5701 H         1 UNK         0.0000 
     59 H59         4.6559   55.7955   25.6835 H         1 UNK         0.0000 
     60 H60         2.9294   54.4232   26.6212 H         1 UNK         0.0000 
     61 H61         3.9319   52.9421   26.4123 H         1 UNK         0.0000 
@<TRIPOS>BOND
     1    1    6 ar   
     2    1    2 ar   
     3    1   35 1    
     4    2    3 ar   
     5    2   36 1    
     6    3    4 ar   
     7    3    8 1    
     8    4    5 ar   
     9    4   37 1    
    10    5    6 ar   
    11    5    7 1    
    12    6   38 1    
    13    8    9 1    
    14    8   39 1    
    15    9   10 2    
    16    9   11 2    
    17    9   12 1    
    18   12   17 ar   
    19   12   13 ar   
    20   13   14 ar   
    21   13   40 1    
    22   14   15 ar   
    23   14   41 1    
    24   15   16 ar   
    25   15   18 1    
    26   16   17 ar   
    27   16   42 1    
    28   17   43 1    
    29   18   19 am   BACKBONE|DICT|INTERRES
    30   18   44 1    
    31   19   20 2    
    32   19   21 1    
    33   21   22 1    
    34   21   26 1    
    35   21   23 1    
    36   23   24 1    
    37   23   45 1    
    38   23   46 1    
    39   24   25 1    
    40   24   47 1    
    41   24   48 1    
    42   25   26 1    
    43   25   49 1    
    44   25   50 1    
    45   26   27 am   BACKBONE|DICT|INTERRES
    46   27   28 2    
    47   27   29 1    
    48   29   34 1    
    49   29   30 1    
    50   29   51 1    
    51   30   31 1    
    52   30   52 1    
    53   30   53 1    
    54   31   32 1    
    55   31   54 1    
    56   31   55 1    
    57   32   33 1    
    58   32   56 1    
    59   32   57 1    
    60   33   34 1    
    61   33   58 1    
    62   33   59 1    
    63   34   60 1    
    64   34   61 1    
@<TRIPOS>SUBSTRUCTURE
     1 UNK         1 GROUP             0       ****    0 ROOT    
