@<TRIPOS>MOLECULE
ZINC39686758_1298
72   75    1
SMALL
USER_CHARGES


@<TRIPOS>ATOM
      1 C1         -0.0670   52.4973   30.8120 C.3       1 UNK         0.0000 
      2 C2          0.7445   53.4008   29.9043 C.ar      1 UNK         0.0000 
      3 C3          1.0483   54.7025   30.3087 C.ar      1 UNK         0.0000 
      4 C4          1.8108   55.5300   29.4895 C.ar      1 UNK         0.0000 
      5 C5          2.2578   55.0578   28.2580 C.ar      1 UNK         0.0000 
      6 C6          1.9324   53.7748   27.8127 C.ar      1 UNK         0.0000 
      7 C7          1.1882   52.9387   28.6597 C.ar      1 UNK         0.0000 
      8 C8          2.4530   53.3074   26.4444 C.3       1 UNK         0.0000 
      9 C9          1.3907   52.8038   25.4355 C.2       1 UNK         0.0000 
     10 O10         0.2701   52.4870   25.8370 O.2       1 UNK         0.0000 
     11 N11         1.7360   52.6605   24.1294 N.am      1 UNK         0.0000 
     12 C12         0.7951   52.1607   23.1306 C.3       1 UNK         0.0000 
     13 C13         1.3209   52.7494   21.8007 C.3       1 UNK         0.0000 
     14 H14         0.9026   53.7347   21.6816 H         1 UNK         0.0000 
     15 C15         2.8646   52.8625   21.9953 C.3       1 UNK         0.0000 
     16 C16         2.9607   53.1725   23.5137 C.3       1 UNK         0.0000 
     17 C17         3.5998   54.0015   21.2438 C.3       1 UNK         0.0000 
     18 C18         3.6755   53.7934   19.7216 C.3       1 UNK         0.0000 
     19 N19         4.4653   52.4968   19.4722 N.4       1 UNK         0.0000 
     20 C20         3.8960   51.2631   20.1941 C.3       1 UNK         0.0000 
     21 C21         3.6817   51.5694   21.6859 C.3       1 UNK         0.0000 
     22 C22         0.7906   51.8519   20.6589 C.2       1 UNK         0.0000 
     23 O23         0.7230   50.6296   20.8081 O.2       1 UNK         0.0000 
     24 N24         0.3336   52.4618   19.5447 N.am      1 UNK         0.0000 
     25 C25        -0.2371   51.7272   18.4053 C.3       1 UNK         0.0000 
     26 H26         0.4114   50.8604   18.2428 H         1 UNK         0.0000 
     27 C27        -1.6381   51.1585   18.7204 C.3       1 UNK         0.0000 
     28 C28        -0.1667   52.4913   17.0600 C.3       1 UNK         0.0000 
     29 C29        -1.1149   53.6846   16.9004 C.ar      1 UNK         0.0000 
     30 C30        -2.4534   53.4410   16.5715 C.ar      1 UNK         0.0000 
     31 C31        -3.3350   54.4948   16.3560 C.ar      1 UNK         0.0000 
     32 C32        -2.8866   55.8070   16.4608 C.ar      1 UNK         0.0000 
     33 C33        -1.5560   56.0636   16.7762 C.ar      1 UNK         0.0000 
     34 C34        -0.6492   55.0081   16.9854 C.ar      1 UNK         0.0000 
     35 O35         0.6905   55.2080   17.2566 O.3       1 UNK         0.0000 
     36 C36         1.2844   56.4467   16.8817 C.3       1 UNK         0.0000 
     37 H37         0.5587   51.6976   31.2037 H         1 UNK         0.0000 
     38 H38        -0.4950   53.0421   31.6557 H         1 UNK         0.0000 
     39 H39        -0.8859   52.0311   30.2635 H         1 UNK         0.0000 
     40 H40         0.7046   55.0736   31.2636 H         1 UNK         0.0000 
     41 H41         2.0547   56.5353   29.8063 H         1 UNK         0.0000 
     42 H42         2.8561   55.6963   27.6328 H         1 UNK         0.0000 
     43 H43         0.9484   51.9310   28.3475 H         1 UNK         0.0000 
     44 H44         3.0330   54.1082   25.9850 H         1 UNK         0.0000 
     45 H45         3.1522   52.4969   26.6336 H         1 UNK         0.0000 
     46 H46         0.9165   51.0752   23.1463 H         1 UNK         0.0000 
     47 H47        -0.2409   52.4592   23.2991 H         1 UNK         0.0000 
     48 H48         2.8849   54.2573   23.6240 H         1 UNK         0.0000 
     49 H49         3.9075   52.9017   23.9789 H         1 UNK         0.0000 
     50 H50         3.1045   54.9429   21.4664 H         1 UNK         0.0000 
     51 H51         4.6120   54.1255   21.6371 H         1 UNK         0.0000 
     52 H52         2.7041   53.6936   19.2408 H         1 UNK         0.0000 
     53 H53         4.2295   54.5877   19.2196 H         1 UNK         0.0000 
     54 H54         4.5261   52.2686   18.4848 H         1 UNK         0.0000 
     55 H55         3.0207   50.9488   19.6297 H         1 UNK         0.0000 
     56 H56         4.6531   50.4964   20.0820 H         1 UNK         0.0000 
     57 H57         4.6905   51.6724   22.0817 H         1 UNK         0.0000 
     58 H58         3.2480   50.7056   22.1938 H         1 UNK         0.0000 
     59 H59         0.4681   53.4598   19.4344 H         1 UNK         0.0000 
     60 H60        -2.0698   50.6797   17.8411 H         1 UNK         0.0000 
     61 H61        -1.5972   50.3889   19.4924 H         1 UNK         0.0000 
     62 H62        -2.3317   51.9392   19.0366 H         1 UNK         0.0000 
     63 H63         0.8612   52.7960   16.8549 H         1 UNK         0.0000 
     64 H64        -0.4020   51.7927   16.2546 H         1 UNK         0.0000 
     65 H65        -2.8170   52.4285   16.4667 H         1 UNK         0.0000 
     66 H66        -4.3652   54.2952   16.0988 H         1 UNK         0.0000 
     67 H67        -3.5703   56.6257   16.2839 H         1 UNK         0.0000 
     68 H68        -1.2463   57.0945   16.8383 H         1 UNK         0.0000 
     69 H69         2.3373   56.4418   17.1671 H         1 UNK         0.0000 
     70 H70         1.2345   56.5961   15.8012 H         1 UNK         0.0000 
     71 H71         0.8088   57.2977   17.3662 H         1 UNK         0.0000 
     72 H72         5.4203   52.6293   19.7692 H         1 UNK         0.0000 
@<TRIPOS>BOND
     1    1    2 1    
     2    1   37 1    
     3    1   38 1    
     4    1   39 1    
     5    2    7 ar   
     6    2    3 ar   
     7    3    4 ar   
     8    3   40 1    
     9    4    5 ar   
    10    4   41 1    
    11    5    6 ar   
    12    5   42 1    
    13    6    7 ar   
    14    6    8 1    
    15    7   43 1    
    16    8    9 1    
    17    8   44 1    
    18    8   45 1    
    19    9   10 2    
    20    9   11 am   BACKBONE|DICT|INTERRES
    21   11   16 1    
    22   11   12 1    
    23   12   13 1    
    24   12   46 1    
    25   12   47 1    
    26   13   14 1    
    27   13   15 1    
    28   13   22 1    
    29   15   21 1    
    30   15   16 1    
    31   15   17 1    
    32   16   48 1    
    33   16   49 1    
    34   17   18 1    
    35   17   50 1    
    36   17   51 1    
    37   18   19 1    
    38   18   52 1    
    39   18   53 1    
    40   19   20 1    
    41   19   54 1    
    42   19   72 1    
    43   20   21 1    
    44   20   55 1    
    45   20   56 1    
    46   21   57 1    
    47   21   58 1    
    48   22   23 2    
    49   22   24 am   BACKBONE|DICT|INTERRES
    50   24   25 1    
    51   24   59 1    
    52   25   26 1    
    53   25   27 1    
    54   25   28 1    
    55   27   60 1    
    56   27   61 1    
    57   27   62 1    
    58   28   29 1    
    59   28   63 1    
    60   28   64 1    
    61   29   34 ar   
    62   29   30 ar   
    63   30   31 ar   
    64   30   65 1    
    65   31   32 ar   
    66   31   66 1    
    67   32   33 ar   
    68   32   67 1    
    69   33   34 ar   
    70   33   68 1    
    71   34   35 1    
    72   35   36 1    
    73   36   69 1    
    74   36   70 1    
    75   36   71 1    
@<TRIPOS>SUBSTRUCTURE
     1 UNK         1 GROUP             0       ****    0 ROOT    
