ZINC17136303_4622
                    3D
 Schrodinger Suite 2024-2.
 68 72  0  0  1  0            999 V2000
   -0.0595   52.9009   23.8902 C   0  0  0  0  0  0
    1.1848   52.1091   23.4482 C   0  0  0  0  0  0
    1.1850   51.7479   21.9470 C   0  0  0  0  0  0
    2.4056   52.7037   23.9100 O   0  0  0  0  0  0
    2.9777   53.8166   23.3628 C   0  0  0  0  0  0
    2.4784   54.4967   22.4819 O   0  0  0  0  0  0
    4.2860   54.1242   23.9564 C   0  0  0  0  0  0
    5.4861   54.4671   23.2541 C   0  0  0  0  0  0
    6.5031   54.8293   24.1420 C   0  0  0  0  0  0
    6.1014   54.6527   25.8020 S   0  0  0  0  0  0
    4.5046   54.1402   25.3411 C   0  0  0  0  0  0
    3.5244   53.8259   26.2624 N   0  0  0  0  0  0
    3.6871   53.2818   27.4740 C   0  0  0  0  0  0
    4.7902   53.0337   27.9594 O   0  0  0  0  0  0
    2.3806   52.6561   28.0500 C   0  0  2  0  0  0
    2.2810   51.7300   27.4811 H   0  0  0  0  0  0
    1.1293   53.5146   27.8125 C   0  0  2  0  0  0
    0.8025   53.5316   26.7769 H   0  0  0  0  0  0
    1.1226   54.8832   28.5003 C   0  0  0  0  0  0
    0.8787   54.4973   29.9586 C   0  0  0  0  0  0
    0.9045   52.9560   29.9087 C   0  0  2  0  0  0
    0.3838   52.4821   30.7432 H   0  0  0  0  0  0
    2.2625   52.2936   29.5560 C   0  0  2  0  0  0
    2.0947   51.2190   29.5988 H   0  0  0  0  0  0
    3.4023   52.5928   30.5316 C   0  0  0  0  0  0
    3.9038   53.7357   30.4818 O   0  0  0  0  0  0
    0.2347   52.8211   28.6643 O   0  0  0  0  0  0
    5.7206   54.4972   21.7641 C   0  0  0  0  0  0
    5.0643   53.6069   20.9061 C   0  0  0  0  0  0
    5.3439   53.5893   19.5435 C   0  0  0  0  0  0
    6.2984   54.4588   19.0052 C   0  0  0  0  0  0
    6.9330   55.3738   19.8518 C   0  0  0  0  0  0
    6.6530   55.3880   21.2160 C   0  0  0  0  0  0
    6.6632   54.4372   17.5121 C   0  0  0  0  0  0
    8.1508   54.0562   17.2850 C   0  0  0  0  0  0
    8.5468   54.0853   15.7959 C   0  0  0  0  0  0
    7.5894   53.2537   14.9227 C   0  0  0  0  0  0
    6.1271   53.6979   15.1108 C   0  0  0  0  0  0
    5.6973   53.6447   16.5892 C   0  0  0  0  0  0
   -0.9591   52.5356   23.3937 H   0  0  0  0  0  0
   -0.2260   52.7899   24.9600 H   0  0  0  0  0  0
    0.0286   53.9670   23.6818 H   0  0  0  0  0  0
    1.1351   51.1548   23.9745 H   0  0  0  0  0  0
    0.3042   51.1614   21.6873 H   0  0  0  0  0  0
    1.1816   52.6318   21.3108 H   0  0  0  0  0  0
    2.0610   51.1539   21.6887 H   0  0  0  0  0  0
    7.5034   55.1444   23.8896 H   0  0  0  0  0  0
    2.6079   53.7114   25.8589 H   0  0  0  0  0  0
    2.0580   55.4278   28.3636 H   0  0  0  0  0  0
    0.3213   55.4910   28.0815 H   0  0  0  0  0  0
   -0.0952   54.8495   30.2955 H   0  0  0  0  0  0
    1.6200   54.9207   30.6327 H   0  0  0  0  0  0
    4.3586   52.8846   21.2841 H   0  0  0  0  0  0
    4.8311   52.8658   18.9274 H   0  0  0  0  0  0
    7.6647   56.0637   19.4560 H   0  0  0  0  0  0
    7.1785   56.0911   21.8450 H   0  0  0  0  0  0
    6.6071   55.4926   17.2358 H   0  0  0  0  0  0
    8.3406   53.0552   17.6747 H   0  0  0  0  0  0
    8.8106   54.7495   17.8085 H   0  0  0  0  0  0
    9.5680   53.7198   15.6780 H   0  0  0  0  0  0
    8.5519   55.1176   15.4427 H   0  0  0  0  0  0
    7.6878   52.1972   15.1790 H   0  0  0  0  0  0
    7.8736   53.3407   13.8730 H   0  0  0  0  0  0
    5.4677   53.0686   14.5111 H   0  0  0  0  0  0
    6.0039   54.7137   14.7320 H   0  0  0  0  0  0
    4.6898   54.0576   16.6610 H   0  0  0  0  0  0
    5.6605   52.5953   16.8862 H   0  0  0  0  0  0
    3.7194   51.6967   31.3414 O   0  5  0  0  0  0
  1  2  1  0  0  0
  1 40  1  0  0  0
  1 41  1  0  0  0
  1 42  1  0  0  0
  2  3  1  0  0  0
  2  4  1  0  0  0
  2 43  1  0  0  0
  3 44  1  0  0  0
  3 45  1  0  0  0
  3 46  1  0  0  0
  4  5  1  0  0  0
  5  6  2  0  0  0
  5  7  1  0  0  0
  7 11  2  0  0  0
  7  8  1  0  0  0
  8  9  2  0  0  0
  8 28  1  0  0  0
  9 10  1  0  0  0
  9 47  1  0  0  0
 10 11  1  0  0  0
 11 12  1  0  0  0
 12 13  1  0  0  0
 12 48  1  0  0  0
 13 14  2  0  0  0
 13 15  1  0  0  0
 15 16  1  0  0  0
 15 23  1  0  0  0
 15 17  1  0  0  0
 17 18  1  0  0  0
 17 27  1  0  0  0
 17 19  1  0  0  0
 19 20  1  0  0  0
 19 49  1  0  0  0
 19 50  1  0  0  0
 20 21  1  0  0  0
 20 51  1  0  0  0
 20 52  1  0  0  0
 21 22  1  0  0  0
 21 23  1  0  0  0
 21 27  1  0  0  0
 23 24  1  0  0  0
 23 25  1  0  0  0
 25 26  2  0  0  0
 25 68  1  0  0  0
 28 33  2  0  0  0
 28 29  1  0  0  0
 29 30  2  0  0  0
 29 53  1  0  0  0
 30 31  1  0  0  0
 30 54  1  0  0  0
 31 32  2  0  0  0
 31 34  1  0  0  0
 32 33  1  0  0  0
 32 55  1  0  0  0
 33 56  1  0  0  0
 34 39  1  0  0  0
 34 35  1  0  0  0
 34 57  1  0  0  0
 35 36  1  0  0  0
 35 58  1  0  0  0
 35 59  1  0  0  0
 36 37  1  0  0  0
 36 60  1  0  0  0
 36 61  1  0  0  0
 37 38  1  0  0  0
 37 62  1  0  0  0
 37 63  1  0  0  0
 38 39  1  0  0  0
 38 64  1  0  0  0
 38 65  1  0  0  0
 39 66  1  0  0  0
 39 67  1  0  0  0
M  CHG  1  68  -1
M  END
> <i_i_glide_confnum>
99

> <i_i_glide_lignum>
4623

> <i_i_glide_posenum>
270

> <i_i_glide_rotatable_bonds>
9

> <i_m_Source_File_Index>
5221

> <b_m_subgroup_collapsed>
0

> <r_i_docking_score>
-6.78353

> <r_i_glide_ecoul>
-4.30537

> <r_i_glide_eff_state_penalty>
0

> <r_i_glide_einternal>
13.7835

> <r_i_glide_emodel>
-68.9985

> <r_i_glide_energy>
-52.8876

> <r_i_glide_erotb>
0.550036

> <r_i_glide_esite>
0

> <r_i_glide_evdw>
-48.5822

> <r_i_glide_gscore>
-6.78353

> <r_i_glide_hbond>
-0.32

> <r_i_glide_ligand_efficiency>
-0.188431

> <r_i_glide_ligand_efficiency_ln>
-1.47998

> <r_i_glide_ligand_efficiency_sa>
-0.622187

> <r_i_glide_lipo>
-3.23946

> <r_i_glide_metal>
0

> <r_i_glide_rewards>
-0.699193

> <s_i_glide_gridfile>
wee1_glide-grid

> <s_m_Source_File>
wee1_decoys_glide_SP.sdf

> <s_m_Source_Path>
/Users/zhangxujun/Desktop

> <s_m_entry_id>
5496

> <s_m_entry_name>
wee1_decoys_glide_SP.5221

> <s_m_subgroup_title>
wee1_decoys_glide_SP

> <s_m_subgroupid>
wee1_decoys_glide_SP


$$$$
