@<TRIPOS>MOLECULE
ZINC44855012_6062
75   79    1
SMALL
USER_CHARGES


@<TRIPOS>ATOM
      1 C1          9.3517   61.4768   16.7076 C.3       1 UNK         0.0000 
      2 C2          9.4639   60.2446   17.6227 C.3       1 UNK         0.0000 
      3 H3          9.0589   60.4957   18.6038 H         1 UNK         0.0000 
      4 C4         10.9119   59.7793   17.8588 C.3       1 UNK         0.0000 
      5 C5         10.9183   58.5678   18.8065 C.3       1 UNK         0.0000 
      6 C6          9.9396   57.4647   18.3402 C.3       1 UNK         0.0000 
      7 N7          8.5619   57.9453   18.0812 N.pl3     1 UNK         0.0000 
      8 C8          8.6251   59.0544   17.1071 C.3       1 UNK         0.0000 
      9 C9          7.4910   57.0560   17.9914 C.ar      1 UNK         0.0000 
     10 C10         6.1759   57.5351   18.0755 C.ar      1 UNK         0.0000 
     11 C11         5.0900   56.6632   18.0121 C.ar      1 UNK         0.0000 
     12 C12         5.2922   55.2892   17.8557 C.ar      1 UNK         0.0000 
     13 C13         6.6016   54.8094   17.7448 C.ar      1 UNK         0.0000 
     14 C14         7.6858   55.6797   17.8308 C.ar      1 UNK         0.0000 
     15 C15         4.0789   54.3434   17.7441 C.3       1 UNK         0.0000 
     16 H16         3.2578   54.9444   17.3559 H         1 UNK         0.0000 
     17 C17         4.2652   53.2109   16.7060 C.3       1 UNK         0.0000 
     18 N18         3.6027   53.8189   19.0331 N.am      1 UNK         0.0000 
     19 C19         4.3211   53.0963   19.9136 C.2       1 UNK         0.0000 
     20 O20         5.5045   52.8307   19.7460 O.2       1 UNK         0.0000 
     21 C21         3.6336   52.5975   21.1965 C.3       1 UNK         0.0000 
     22 H22         4.4009   51.9807   21.6722 H         1 UNK         0.0000 
     23 C23         2.4125   51.7111   20.8698 C.3       1 UNK         0.0000 
     24 C24         1.8259   51.1823   22.1918 C.3       1 UNK         0.0000 
     25 C25         1.4588   52.3192   23.1661 C.3       1 UNK         0.0000 
     26 N26         2.6956   53.2208   23.4221 N.4       1 UNK         0.0000 
     27 C27         3.3047   53.7905   22.1182 C.3       1 UNK         0.0000 
     28 C28         2.3710   54.3218   24.4556 C.3       1 UNK         0.0000 
     29 C29         2.8055   53.9173   25.8610 C.ar      1 UNK         0.0000 
     30 C30         1.8646   53.3923   26.7488 C.ar      1 UNK         0.0000 
     31 C31         2.2132   53.0466   28.0464 C.ar      1 UNK         0.0000 
     32 C32         3.5205   53.2154   28.4913 C.ar      1 UNK         0.0000 
     33 C33         4.5116   53.7309   27.6233 C.ar      1 UNK         0.0000 
     34 C34         4.1615   54.0921   26.2826 C.ar      1 UNK         0.0000 
     35 C35         5.1885   54.6035   25.4343 C.ar      1 UNK         0.0000 
     36 C36         6.4922   54.7382   25.8963 C.ar      1 UNK         0.0000 
     37 C37         6.8173   54.3877   27.1997 C.ar      1 UNK         0.0000 
     38 C38         5.8481   53.8929   28.0609 C.ar      1 UNK         0.0000 
     39 H39         9.7255   61.2595   15.7063 H         1 UNK         0.0000 
     40 H40         9.9209   62.3204   17.0989 H         1 UNK         0.0000 
     41 H41         8.3129   61.7964   16.6081 H         1 UNK         0.0000 
     42 H42        11.3743   59.5180   16.9050 H         1 UNK         0.0000 
     43 H43        11.5241   60.5900   18.2591 H         1 UNK         0.0000 
     44 H44        11.9240   58.1491   18.8534 H         1 UNK         0.0000 
     45 H45        10.7049   58.8624   19.8360 H         1 UNK         0.0000 
     46 H46        10.3297   56.9618   17.4535 H         1 UNK         0.0000 
     47 H47         9.9030   56.7184   19.1349 H         1 UNK         0.0000 
     48 H48         7.6181   59.4397   16.9428 H         1 UNK         0.0000 
     49 H49         8.9574   58.7188   16.1227 H         1 UNK         0.0000 
     50 H50         5.9910   58.5943   18.2002 H         1 UNK         0.0000 
     51 H51         4.0887   57.0657   18.0804 H         1 UNK         0.0000 
     52 H52         6.7951   53.7551   17.6146 H         1 UNK         0.0000 
     53 H53         8.6774   55.2602   17.7564 H         1 UNK         0.0000 
     54 H54         4.5435   53.6075   15.7306 H         1 UNK         0.0000 
     55 H55         5.0297   52.4967   17.0105 H         1 UNK         0.0000 
     56 H56         3.3426   52.6390   16.5797 H         1 UNK         0.0000 
     57 H57         2.6652   54.0979   19.2995 H         1 UNK         0.0000 
     58 H58         1.6226   52.2847   20.3792 H         1 UNK         0.0000 
     59 H59         2.6955   50.8426   20.2727 H         1 UNK         0.0000 
     60 H60         0.9382   50.5834   21.9809 H         1 UNK         0.0000 
     61 H61         2.5372   50.5020   22.6681 H         1 UNK         0.0000 
     62 H62         0.6607   52.9535   22.7812 H         1 UNK         0.0000 
     63 H63         1.1716   51.9019   24.1335 H         1 UNK         0.0000 
     64 H64         4.2124   54.3244   22.4044 H         1 UNK         0.0000 
     65 H65         2.5723   54.4746   21.6969 H         1 UNK         0.0000 
     66 H66         2.8515   55.2484   24.1378 H         1 UNK         0.0000 
     67 H67         1.2939   54.4908   24.4035 H         1 UNK         0.0000 
     68 H68         0.8402   53.2514   26.4334 H         1 UNK         0.0000 
     69 H69         1.4641   52.6493   28.7155 H         1 UNK         0.0000 
     70 H70         3.7861   52.9466   29.5041 H         1 UNK         0.0000 
     71 H71         4.9758   54.8902   24.4209 H         1 UNK         0.0000 
     72 H72         7.2540   55.1125   25.2276 H         1 UNK         0.0000 
     73 H73         7.8291   54.4970   27.5579 H         1 UNK         0.0000 
     74 H74         6.1187   53.6249   29.0724 H         1 UNK         0.0000 
     75 H75         3.4060   52.6363   23.8470 H         1 UNK         0.0000 
@<TRIPOS>BOND
     1    1    2 1    
     2    1   39 1    
     3    1   40 1    
     4    1   41 1    
     5    2    3 1    
     6    2    8 1    
     7    2    4 1    
     8    4    5 1    
     9    4   42 1    
    10    4   43 1    
    11    5    6 1    
    12    5   44 1    
    13    5   45 1    
    14    6    7 1    
    15    6   46 1    
    16    6   47 1    
    17    7    8 1    
    18    7    9 1    
    19    8   48 1    
    20    8   49 1    
    21    9   14 ar   
    22    9   10 ar   
    23   10   11 ar   
    24   10   50 1    
    25   11   12 ar   
    26   11   51 1    
    27   12   13 ar   
    28   12   15 1    
    29   13   14 ar   
    30   13   52 1    
    31   14   53 1    
    32   15   16 1    
    33   15   17 1    
    34   15   18 1    
    35   17   54 1    
    36   17   55 1    
    37   17   56 1    
    38   18   19 am   BACKBONE|DICT|INTERRES
    39   18   57 1    
    40   19   20 2    
    41   19   21 1    
    42   21   22 1    
    43   21   27 1    
    44   21   23 1    
    45   23   24 1    
    46   23   58 1    
    47   23   59 1    
    48   24   25 1    
    49   24   60 1    
    50   24   61 1    
    51   25   26 1    
    52   25   62 1    
    53   25   63 1    
    54   26   27 1    
    55   26   28 1    
    56   26   75 1    
    57   27   64 1    
    58   27   65 1    
    59   28   29 1    
    60   28   66 1    
    61   28   67 1    
    62   29   34 ar   
    63   29   30 ar   
    64   30   31 ar   
    65   30   68 1    
    66   31   32 ar   
    67   31   69 1    
    68   32   33 ar   
    69   32   70 1    
    70   33   38 ar   
    71   33   34 ar   
    72   34   35 ar   
    73   35   36 ar   
    74   35   71 1    
    75   36   37 ar   
    76   36   72 1    
    77   37   38 ar   
    78   37   73 1    
    79   38   74 1    
@<TRIPOS>SUBSTRUCTURE
     1 UNK         1 GROUP             0       ****    0 ROOT    
