@<TRIPOS>MOLECULE
ZINC38932076_5859
45   48    1
SMALL
USER_CHARGES


@<TRIPOS>ATOM
      1 C1          5.5689   54.2081   20.1421 C.3       1 UNK         0.0000 
      2 C2          5.3904   54.2512   21.6491 C.ar      1 UNK         0.0000 
      3 C3          4.1252   54.0435   22.1963 C.ar      1 UNK         0.0000 
      4 C4          3.9504   54.0968   23.5760 C.ar      1 UNK         0.0000 
      5 C5          5.0390   54.3611   24.4128 C.ar      1 UNK         0.0000 
      6 C6          6.3045   54.5569   23.8630 C.ar      1 UNK         0.0000 
      7 C7          6.4801   54.5072   22.4839 C.ar      1 UNK         0.0000 
      8 S8          4.8766   54.4690   26.1772 S.3       1 UNK         0.0000 
      9 C9          3.1258   54.4558   26.6890 C.3       1 UNK         0.0000 
     10 C10         2.6777   53.2710   27.5078 C.2       1 UNK         0.0000 
     11 C11         1.6434   52.4426   27.3470 C.2       1 UNK         0.0000 
     12 C12         0.4508   52.3449   26.4008 C.3       1 UNK         0.0000 
     13 H13         0.3060   53.2964   25.8915 H         1 UNK         0.0000 
     14 C14        -0.7760   52.0967   27.2806 C.2       1 UNK         0.0000 
     15 C15        -0.6749   51.6965   28.5693 C.2       1 UNK         0.0000 
     16 O16         0.4752   51.5315   29.2814 O.3       1 UNK         0.0000 
     17 C17         1.6946   51.5234   28.5219 C.3       1 UNK         0.0000 
     18 H18         1.9035   50.4967   28.2277 H         1 UNK         0.0000 
     19 N19         2.8012   52.0202   29.2796 N.2       1 UNK         0.0000 
     20 N20         3.3363   52.9938   28.6599 N.2       1 UNK         0.0000 
     21 N21        -1.7045   51.2967   29.3685 N.pl3     1 UNK         0.0000 
     22 C22        -2.0558   52.1927   26.6543 C.1       1 UNK         0.0000 
     23 N23        -3.0856   52.3123   26.1418 N.1       1 UNK         0.0000 
     24 C24         0.5980   51.2946   25.2974 C.ar      1 UNK         0.0000 
     25 C25         0.2825   49.9460   25.5290 C.ar      1 UNK         0.0000 
     26 C26         0.3215   49.0210   24.4873 C.ar      1 UNK         0.0000 
     27 C27         0.7037   49.4284   23.2088 C.ar      1 UNK         0.0000 
     28 C28         1.0337   50.7610   22.9711 C.ar      1 UNK         0.0000 
     29 C29         0.9719   51.6899   24.0080 C.ar      1 UNK         0.0000 
     30 F30         1.3970   51.1588   21.7314 F         1 UNK         0.0000 
     31 H31         5.5041   53.1813   19.7780 H         1 UNK         0.0000 
     32 H32         4.7797   54.7819   19.6534 H         1 UNK         0.0000 
     33 H33         6.5208   54.6388   19.8288 H         1 UNK         0.0000 
     34 H34         3.2773   53.8424   21.5557 H         1 UNK         0.0000 
     35 H35         2.9646   53.9230   23.9601 H         1 UNK         0.0000 
     36 H36         7.1533   54.7588   24.5000 H         1 UNK         0.0000 
     37 H37         7.4663   54.6739   22.0746 H         1 UNK         0.0000 
     38 H38         2.9405   55.3461   27.2848 H         1 UNK         0.0000 
     39 H39         2.4614   54.4967   25.8349 H         1 UNK         0.0000 
     40 H40        -2.6154   51.1714   28.9518 H         1 UNK         0.0000 
     41 H41        -1.5139   50.6697   30.1416 H         1 UNK         0.0000 
     42 H42        -0.0206   49.6072   26.5109 H         1 UNK         0.0000 
     43 H43         0.0718   47.9880   24.6810 H         1 UNK         0.0000 
     44 H44         0.7467   48.7172   22.3991 H         1 UNK         0.0000 
     45 H45         1.1868   52.7235   23.7921 H         1 UNK         0.0000 
@<TRIPOS>BOND
     1    1    2 1    
     2    1   31 1    
     3    1   32 1    
     4    1   33 1    
     5    2    7 ar   
     6    2    3 ar   
     7    3    4 ar   
     8    3   34 1    
     9    4    5 ar   
    10    4   35 1    
    11    5    6 ar   
    12    5    8 1    
    13    6    7 ar   
    14    6   36 1    
    15    7   37 1    
    16    8    9 1    
    17    9   10 1    
    18    9   38 1    
    19    9   39 1    
    20   10   20 1    
    21   10   11 2    
    22   11   17 1    
    23   11   12 1    
    24   12   13 1    
    25   12   14 1    
    26   12   24 1    
    27   14   15 2    
    28   14   22 1    
    29   15   16 1    
    30   15   21 1    
    31   16   17 1    
    32   17   18 1    
    33   17   19 1    
    34   19   20 2    
    35   21   40 1    
    36   21   41 1    
    37   22   23 3    
    38   24   29 ar   
    39   24   25 ar   
    40   25   26 ar   
    41   25   42 1    
    42   26   27 ar   
    43   26   43 1    
    44   27   28 ar   
    45   27   44 1    
    46   28   29 ar   
    47   28   30 1    
    48   29   45 1    
@<TRIPOS>SUBSTRUCTURE
     1 UNK         1 GROUP             0       ****    0 ROOT    
