@<TRIPOS>MOLECULE
ZINC19858033_6106
68   72    1
SMALL
USER_CHARGES


@<TRIPOS>ATOM
      1 C1         -1.6514   51.2473   29.9197 C.3       1 UNK         0.0000 
      2 C2         -1.8749   51.3907   28.4225 C.2       1 UNK         0.0000 
      3 C3         -0.9820   51.8480   27.4979 C.2       1 UNK         0.0000 
      4 C4         -1.4422   52.0733   26.0166 C.3       1 UNK         0.0000 
      5 H5         -1.3107   53.1290   25.7799 H         1 UNK         0.0000 
      6 C6         -2.9678   51.8177   25.8355 C.2       1 UNK         0.0000 
      7 C7         -3.7146   51.2815   26.8343 C.2       1 UNK         0.0000 
      8 N8         -3.1679   51.0929   28.0770 N.pl3     1 UNK         0.0000 
      9 C9         -5.2208   51.0188   26.7481 C.3       1 UNK         0.0000 
     10 C10        -5.9023   51.9657   25.7213 C.3       1 UNK         0.0000 
     11 C11        -5.0950   51.8734   24.4004 C.3       1 UNK         0.0000 
     12 C12        -3.6029   52.2196   24.5590 C.2       1 UNK         0.0000 
     13 O13        -3.0123   52.8531   23.6827 O.2       1 UNK         0.0000 
     14 C14        -7.3217   51.4298   25.4391 C.3       1 UNK         0.0000 
     15 C15        -5.9236   53.4293   26.2423 C.3       1 UNK         0.0000 
     16 C16        -0.5828   51.3318   24.9780 C.ar      1 UNK         0.0000 
     17 C17        -0.0334   52.0138   23.8834 C.ar      1 UNK         0.0000 
     18 C18         0.7817   51.3418   22.9788 C.ar      1 UNK         0.0000 
     19 C19         1.0468   49.9871   23.1630 C.ar      1 UNK         0.0000 
     20 C20         0.4920   49.2962   24.2393 C.ar      1 UNK         0.0000 
     21 C21        -0.3187   49.9682   25.1467 C.ar      1 UNK         0.0000 
     22 C22         0.4145   52.1340   27.8587 C.2       1 UNK         0.0000 
     23 O23         0.9409   51.6967   28.8780 O.2       1 UNK         0.0000 
     24 N24         1.0755   52.8967   26.9651 N.am      1 UNK         0.0000 
     25 C25         2.3914   53.3378   26.9695 C.2       1 UNK         0.0000 
     26 C26         3.3760   53.5458   27.9666 C.2       1 UNK         0.0000 
     27 C27         4.5931   53.9653   27.3620 C.2       1 UNK         0.0000 
     28 C28         4.5061   54.0966   25.9693 C.2       1 UNK         0.0000 
     29 S29         2.9402   53.7055   25.3762 S.3       1 UNK         0.0000 
     30 C30         5.6512   54.4424   25.0317 C.3       1 UNK         0.0000 
     31 C31         6.8056   55.0607   25.8386 C.3       1 UNK         0.0000 
     32 C32         7.1009   54.2857   27.1348 C.3       1 UNK         0.0000 
     33 C33         5.9022   54.2615   28.1050 C.3       1 UNK         0.0000 
     34 C34         3.2086   53.4099   29.4119 C.2       1 UNK         0.0000 
     35 O35         2.3858   54.0479   30.0722 O.2       1 UNK         0.0000 
     36 O36         4.0268   52.4502   29.8943 O.3       1 UNK         0.0000 
     37 C37         3.9968   52.1025   31.2702 C.3       1 UNK         0.0000 
     38 H38        -0.8955   50.4986   30.0872 H         1 UNK         0.0000 
     39 H39        -1.2953   52.1746   30.3637 H         1 UNK         0.0000 
     40 H40        -2.5280   50.8965   30.4675 H         1 UNK         0.0000 
     41 H41        -3.6612   50.4739   28.7035 H         1 UNK         0.0000 
     42 H42        -5.3486   49.9613   26.5092 H         1 UNK         0.0000 
     43 H43        -5.7066   51.2199   27.7066 H         1 UNK         0.0000 
     44 H44        -5.1183   50.8467   24.0353 H         1 UNK         0.0000 
     45 H45        -5.5303   52.4949   23.6215 H         1 UNK         0.0000 
     46 H46        -7.8323   52.0327   24.6852 H         1 UNK         0.0000 
     47 H47        -7.3046   50.4009   25.0747 H         1 UNK         0.0000 
     48 H48        -7.9392   51.4478   26.3383 H         1 UNK         0.0000 
     49 H49        -6.3591   54.0993   25.4979 H         1 UNK         0.0000 
     50 H50        -6.5289   53.5140   27.1464 H         1 UNK         0.0000 
     51 H51        -4.9308   53.8125   26.4818 H         1 UNK         0.0000 
     52 H52        -0.2293   53.0661   23.7365 H         1 UNK         0.0000 
     53 H53         1.2114   51.8694   22.1387 H         1 UNK         0.0000 
     54 H54         1.6841   49.4655   22.4650 H         1 UNK         0.0000 
     55 H55         0.7041   48.2472   24.3839 H         1 UNK         0.0000 
     56 H56        -0.7317   49.4308   25.9929 H         1 UNK         0.0000 
     57 H57         0.5860   53.0410   26.0986 H         1 UNK         0.0000 
     58 H58         5.3329   55.1282   24.2459 H         1 UNK         0.0000 
     59 H59         6.0044   53.5369   24.5376 H         1 UNK         0.0000 
     60 H60         6.5742   56.0969   26.0792 H         1 UNK         0.0000 
     61 H61         7.6860   55.0868   25.2000 H         1 UNK         0.0000 
     62 H62         7.9386   54.7306   27.6653 H         1 UNK         0.0000 
     63 H63         7.3947   53.2640   26.8905 H         1 UNK         0.0000 
     64 H64         6.1061   53.5240   28.8808 H         1 UNK         0.0000 
     65 H65         5.8213   55.2255   28.6088 H         1 UNK         0.0000 
     66 H66         4.7029   51.2966   31.4588 H         1 UNK         0.0000 
     67 H67         4.3028   52.9436   31.8920 H         1 UNK         0.0000 
     68 H68         3.0010   51.7774   31.5798 H         1 UNK         0.0000 
@<TRIPOS>BOND
     1    1    2 1    
     2    1   38 1    
     3    1   39 1    
     4    1   40 1    
     5    2    8 1    
     6    2    3 2    
     7    3    4 1    
     8    3   22 1    
     9    4    5 1    
    10    4    6 1    
    11    4   16 1    
    12    6   12 1    
    13    6    7 2    
    14    7    8 1    
    15    7    9 1    
    16    8   41 1    
    17    9   10 1    
    18    9   42 1    
    19    9   43 1    
    20   10   11 1    
    21   10   14 1    
    22   10   15 1    
    23   11   12 1    
    24   11   44 1    
    25   11   45 1    
    26   12   13 2    
    27   14   46 1    
    28   14   47 1    
    29   14   48 1    
    30   15   49 1    
    31   15   50 1    
    32   15   51 1    
    33   16   21 ar   
    34   16   17 ar   
    35   17   18 ar   
    36   17   52 1    
    37   18   19 ar   
    38   18   53 1    
    39   19   20 ar   
    40   19   54 1    
    41   20   21 ar   
    42   20   55 1    
    43   21   56 1    
    44   22   23 2    
    45   22   24 am   BACKBONE|DICT|INTERRES
    46   24   25 am   BACKBONE|DICT|INTERRES
    47   24   57 1    
    48   25   29 1    
    49   25   26 2    
    50   26   27 1    
    51   26   34 1    
    52   27   33 1    
    53   27   28 2    
    54   28   29 1    
    55   28   30 1    
    56   30   31 1    
    57   30   58 1    
    58   30   59 1    
    59   31   32 1    
    60   31   60 1    
    61   31   61 1    
    62   32   33 1    
    63   32   62 1    
    64   32   63 1    
    65   33   64 1    
    66   33   65 1    
    67   34   35 2    
    68   34   36 1    
    69   36   37 1    
    70   37   66 1    
    71   37   67 1    
    72   37   68 1    
@<TRIPOS>SUBSTRUCTURE
     1 UNK         1 GROUP             0       ****    0 ROOT    
