@<TRIPOS>MOLECULE
ZINC59489626_6024
57   60    1
SMALL
USER_CHARGES


@<TRIPOS>ATOM
      1 C1          4.4980   52.2512   29.2742 C.3       1 UNK         0.0000 
      2 C2          3.5996   52.8396   28.1771 C.3       1 UNK         0.0000 
      3 H3          3.7214   52.2121   27.2975 H         1 UNK         0.0000 
      4 C4          2.1112   52.8023   28.5690 C.2       1 UNK         0.0000 
      5 O5          1.7799   53.0445   29.7321 O.2       1 UNK         0.0000 
      6 N6          1.2600   52.4820   27.5714 N.am      1 UNK         0.0000 
      7 C7         -0.0782   52.1360   27.6719 C.2       1 UNK         0.0000 
      8 N8         -0.8120   51.9975   26.5954 N.2       1 UNK         0.0000 
      9 C9         -2.0194   51.5483   26.8786 C.2       1 UNK         0.0000 
     10 C10        -2.2839   51.2967   28.2213 C.2       1 UNK         0.0000 
     11 S11        -0.8784   51.6968   29.1613 S.3       1 UNK         0.0000 
     12 S12         4.1886   54.4968   27.7452 S.3       1 UNK         0.0000 
     13 C13         4.3408   54.3437   25.9990 C.2       1 UNK         0.0000 
     14 N14         5.4406   54.6334   25.3614 N.2       1 UNK         0.0000 
     15 C15         5.2947   54.4959   24.0177 C.ar      1 UNK         0.0000 
     16 C16         6.2942   54.7546   23.0699 C.ar      1 UNK         0.0000 
     17 C17         5.9636   54.6424   21.7173 C.ar      1 UNK         0.0000 
     18 C18         4.6866   54.2363   21.2964 C.ar      1 UNK         0.0000 
     19 C19         3.6886   53.9626   22.2335 C.ar      1 UNK         0.0000 
     20 C20         4.0010   54.0972   23.5912 C.ar      1 UNK         0.0000 
     21 S21         2.9804   53.8771   24.9979 S.3       1 UNK         0.0000 
     22 N22         4.3046   54.1270   19.9467 N.am      1 UNK         0.0000 
     23 C23         5.0816   53.9589   18.8545 C.2       1 UNK         0.0000 
     24 O24         6.3049   53.8135   18.8821 O.2       1 UNK         0.0000 
     25 C25         4.3393   53.9138   17.5405 C.ar      1 UNK         0.0000 
     26 C26         4.8047   53.0887   16.5124 C.ar      1 UNK         0.0000 
     27 C27         4.1296   53.0203   15.2976 C.ar      1 UNK         0.0000 
     28 C28         2.9768   53.7880   15.0722 C.ar      1 UNK         0.0000 
     29 C29         2.5247   54.6258   16.1014 C.ar      1 UNK         0.0000 
     30 C30         3.1938   54.6900   17.3196 C.ar      1 UNK         0.0000 
     31 C31         2.1961   53.7366   13.7337 C.3       1 UNK         0.0000 
     32 C32         0.7427   53.2715   13.9948 C.3       1 UNK         0.0000 
     33 C33         2.8147   52.7592   12.6993 C.3       1 UNK         0.0000 
     34 C34         2.1756   55.1436   13.0873 C.3       1 UNK         0.0000 
     35 H35         4.1282   51.2965   29.6380 H         1 UNK         0.0000 
     36 H36         5.5043   52.0983   28.8829 H         1 UNK         0.0000 
     37 H37         4.5600   52.9212   30.1290 H         1 UNK         0.0000 
     38 H38         1.6250   52.5001   26.6317 H         1 UNK         0.0000 
     39 H39        -2.7116   51.3685   26.0693 H         1 UNK         0.0000 
     40 H40        -3.1640   50.8732   28.6838 H         1 UNK         0.0000 
     41 H41         7.2822   55.0694   23.3738 H         1 UNK         0.0000 
     42 H42         6.7271   54.8938   20.9963 H         1 UNK         0.0000 
     43 H43         2.6943   53.6734   21.9215 H         1 UNK         0.0000 
     44 H44         3.3087   54.1395   19.7763 H         1 UNK         0.0000 
     45 H45         5.6816   52.4721   16.6592 H         1 UNK         0.0000 
     46 H46         4.5228   52.3518   14.5481 H         1 UNK         0.0000 
     47 H47         1.6450   55.2362   15.9636 H         1 UNK         0.0000 
     48 H48         2.8117   55.3538   18.0817 H         1 UNK         0.0000 
     49 H49         0.1706   53.2024   13.0687 H         1 UNK         0.0000 
     50 H50         0.2016   53.9554   14.6488 H         1 UNK         0.0000 
     51 H51         0.7196   52.2867   14.4638 H         1 UNK         0.0000 
     52 H52         3.8338   53.0432   12.4339 H         1 UNK         0.0000 
     53 H53         2.8389   51.7353   13.0752 H         1 UNK         0.0000 
     54 H54         2.2415   52.7411   11.7710 H         1 UNK         0.0000 
     55 H55         3.1864   55.5120   12.9061 H         1 UNK         0.0000 
     56 H56         1.6552   55.1378   12.1284 H         1 UNK         0.0000 
     57 H57         1.6714   55.8787   13.7152 H         1 UNK         0.0000 
@<TRIPOS>BOND
     1    1    2 1    
     2    1   35 1    
     3    1   36 1    
     4    1   37 1    
     5    2    3 1    
     6    2    4 1    
     7    2   12 1    
     8    4    5 2    
     9    4    6 am   BACKBONE|DICT|INTERRES
    10    6    7 am   BACKBONE|DICT|INTERRES
    11    6   38 1    
    12    7   11 1    
    13    7    8 2    
    14    8    9 1    
    15    9   10 2    
    16    9   39 1    
    17   10   11 1    
    18   10   40 1    
    19   12   13 1    
    20   13   21 1    
    21   13   14 2    
    22   14   15 1    
    23   15   20 ar   
    24   15   16 ar   
    25   16   17 ar   
    26   16   41 1    
    27   17   18 ar   
    28   17   42 1    
    29   18   19 ar   
    30   18   22 1    
    31   19   20 ar   
    32   19   43 1    
    33   20   21 1    
    34   22   23 am   BACKBONE|DICT|INTERRES
    35   22   44 1    
    36   23   24 2    
    37   23   25 1    
    38   25   30 ar   
    39   25   26 ar   
    40   26   27 ar   
    41   26   45 1    
    42   27   28 ar   
    43   27   46 1    
    44   28   29 ar   
    45   28   31 1    
    46   29   30 ar   
    47   29   47 1    
    48   30   48 1    
    49   31   32 1    
    50   31   33 1    
    51   31   34 1    
    52   32   49 1    
    53   32   50 1    
    54   32   51 1    
    55   33   52 1    
    56   33   53 1    
    57   33   54 1    
    58   34   55 1    
    59   34   56 1    
    60   34   57 1    
@<TRIPOS>SUBSTRUCTURE
     1 UNK         1 GROUP             0       ****    0 ROOT    
