@<TRIPOS>MOLECULE
ZINC28368296_5851
50   53    1
SMALL
USER_CHARGES


@<TRIPOS>ATOM
      1 C1          5.3194   55.1565   20.7173 C.3       1 UNK         0.0000 
      2 C2          4.7454   54.4723   21.9712 C.3       1 UNK         0.0000 
      3 H3          3.8465   55.0076   22.2781 H         1 UNK         0.0000 
      4 C4          4.2957   53.0282   21.6268 C.2       1 UNK         0.0000 
      5 O5          5.1045   52.0978   21.6816 O.2       1 UNK         0.0000 
      6 N6          2.9957   52.8960   21.2826 N.am      1 UNK         0.0000 
      7 C7          2.3434   51.6955   20.9559 C.ar      1 UNK         0.0000 
      8 C8          2.9304   50.7428   20.1121 C.ar      1 UNK         0.0000 
      9 C9          2.2587   49.5588   19.8102 C.ar      1 UNK         0.0000 
     10 C10         0.9998   49.3146   20.3538 C.ar      1 UNK         0.0000 
     11 C11         0.4028   50.2632   21.1841 C.ar      1 UNK         0.0000 
     12 C12         1.0670   51.4538   21.4821 C.ar      1 UNK         0.0000 
     13 F13         0.4691   52.3633   22.2899 F         1 UNK         0.0000 
     14 F14         0.3550   48.1596   20.0764 F         1 UNK         0.0000 
     15 N15         5.6829   54.4450   23.0805 N.pl3     1 UNK         0.0000 
     16 C16         5.4346   54.4156   24.4616 C.ar      1 UNK         0.0000 
     17 C17         6.5423   54.4382   25.3296 C.ar      1 UNK         0.0000 
     18 C18         6.3768   54.3453   26.7200 C.ar      1 UNK         0.0000 
     19 C19         5.0795   54.2297   27.2039 C.ar      1 UNK         0.0000 
     20 C20         3.9992   54.2263   26.3715 C.ar      1 UNK         0.0000 
     21 C21         4.1341   54.3223   24.9898 C.ar      1 UNK         0.0000 
     22 O22         2.8640   54.0996   27.1087 O.3       1 UNK         0.0000 
     23 C23         3.2604   53.9965   28.4597 C.3       1 UNK         0.0000 
     24 O24         4.6634   54.0975   28.4909 O.3       1 UNK         0.0000 
     25 C25         2.6487   55.1456   29.2674 C.3       1 UNK         0.0000 
     26 C26         1.1074   55.0676   29.2500 C.3       1 UNK         0.0000 
     27 C27         0.5941   53.6956   29.7372 C.3       1 UNK         0.0000 
     28 C28         1.2747   52.5231   28.9984 C.3       1 UNK         0.0000 
     29 C29         2.8166   52.6397   29.0272 C.3       1 UNK         0.0000 
     30 H30         4.6327   55.0996   19.8706 H         1 UNK         0.0000 
     31 H31         5.5054   56.2132   20.9068 H         1 UNK         0.0000 
     32 H32         6.2612   54.7028   20.4039 H         1 UNK         0.0000 
     33 H33         2.4092   53.7198   21.3114 H         1 UNK         0.0000 
     34 H34         3.9047   50.9178   19.6814 H         1 UNK         0.0000 
     35 H35         2.7188   48.8354   19.1512 H         1 UNK         0.0000 
     36 H36        -0.5750   50.0697   21.5985 H         1 UNK         0.0000 
     37 H37         6.6225   54.1811   22.8214 H         1 UNK         0.0000 
     38 H38         7.5374   54.5071   24.9171 H         1 UNK         0.0000 
     39 H39         7.2253   54.3486   27.3865 H         1 UNK         0.0000 
     40 H40         3.2659   54.2934   24.3517 H         1 UNK         0.0000 
     41 H41         2.9953   55.0577   30.2940 H         1 UNK         0.0000 
     42 H42         3.0091   56.0978   28.8798 H         1 UNK         0.0000 
     43 H43         0.7043   55.8610   29.8800 H         1 UNK         0.0000 
     44 H44         0.7374   55.2627   28.2412 H         1 UNK         0.0000 
     45 H45         0.7787   53.5977   30.8082 H         1 UNK         0.0000 
     46 H46        -0.4877   53.6350   29.6124 H         1 UNK         0.0000 
     47 H47         0.9654   51.5766   29.4421 H         1 UNK         0.0000 
     48 H48         0.9274   52.4919   27.9642 H         1 UNK         0.0000 
     49 H49         3.2887   51.8358   28.4631 H         1 UNK         0.0000 
     50 H50         3.1611   52.5654   30.0593 H         1 UNK         0.0000 
@<TRIPOS>BOND
     1    1    2 1    
     2    1   30 1    
     3    1   31 1    
     4    1   32 1    
     5    2    3 1    
     6    2    4 1    
     7    2   15 1    
     8    4    5 2    
     9    4    6 am   BACKBONE|DICT|INTERRES
    10    6    7 1    
    11    6   33 1    
    12    7   12 ar   
    13    7    8 ar   
    14    8    9 ar   
    15    8   34 1    
    16    9   10 ar   
    17    9   35 1    
    18   10   11 ar   
    19   10   14 1    
    20   11   12 ar   
    21   11   36 1    
    22   12   13 1    
    23   15   16 1    
    24   15   37 1    
    25   16   21 ar   
    26   16   17 ar   
    27   17   18 ar   
    28   17   38 1    
    29   18   19 ar   
    30   18   39 1    
    31   19   24 1    
    32   19   20 ar   
    33   20   21 ar   
    34   20   22 1    
    35   21   40 1    
    36   22   23 1    
    37   23   29 1    
    38   23   24 1    
    39   23   25 1    
    40   25   26 1    
    41   25   41 1    
    42   25   42 1    
    43   26   27 1    
    44   26   43 1    
    45   26   44 1    
    46   27   28 1    
    47   27   45 1    
    48   27   46 1    
    49   28   29 1    
    50   28   47 1    
    51   28   48 1    
    52   29   49 1    
    53   29   50 1    
@<TRIPOS>SUBSTRUCTURE
     1 UNK         1 GROUP             0       ****    0 ROOT    
