ZINC04236779_4919
                    3D
 Schrodinger Suite 2024-2.
 81 84  0  0  1  0            999 V2000
    3.7774   53.3090   27.8526 C   0  0  0  0  0  0
    2.3818   53.1192   28.4686 C   0  0  0  0  0  0
    1.3132   54.0355   27.8215 C   0  0  0  0  0  0
   -0.0962   53.7885   28.4226 C   0  0  0  0  0  0
   -0.3934   52.3588   28.2215 N   0  0  0  0  0  0
    0.4931   51.4974   29.0117 C   0  0  0  0  0  0
    1.9060   51.6484   28.4062 C   0  0  0  0  0  0
   -1.1407   51.9146   27.1679 C   0  0  0  0  0  0
   -1.8149   52.6826   26.4817 O   0  0  0  0  0  0
   -1.2370   50.3954   26.8817 C   0  0  0  0  0  0
   -1.6966   49.8784   25.4783 C   0  0  2  0  0  0
   -2.4982   50.5471   25.2352 H   0  0  0  0  0  0
   -2.4624   48.4963   25.5395 C   0  0  1  0  0  0
   -3.3278   48.6030   26.1963 H   0  0  0  0  0  0
   -2.9714   47.9480   24.1836 C   0  0  0  0  0  0
   -1.9658   48.1453   23.0343 C   0  0  0  0  0  0
   -1.3096   49.5582   22.9569 C   0  0  2  0  0  0
   -0.4613   49.4066   22.2860 H   0  0  0  0  0  0
   -0.6163   49.9496   24.3239 C   0  0  1  0  0  0
    0.0926   51.3457   24.1809 C   0  0  0  0  0  0
   -0.6881   52.4388   23.4209 C   0  0  0  0  0  0
   -1.2338   51.9310   22.0624 C   0  0  2  0  0  0
   -1.7848   52.7434   21.5854 H   0  0  0  0  0  0
   -2.1800   50.6890   22.2562 C   0  0  2  0  0  0
   -3.4113   51.1610   23.0930 C   0  0  0  0  0  0
   -2.7389   50.1939   20.8791 C   0  0  0  0  0  0
   -1.8206   49.5142   20.0460 O   0  0  0  0  0  0
   -0.0491   51.6871   21.2969 O   0  0  0  0  0  0
    0.0793   51.9891   19.9945 C   0  0  0  0  0  0
   -0.8722   52.0967   19.2231 O   0  0  0  0  0  0
    1.4121   52.1059   19.6162 N   0  0  0  0  0  0
    2.5525   52.3754   20.3973 C   0  0  0  0  0  0
    3.7886   52.1262   19.8101 C   0  0  0  0  0  0
    4.9666   52.4401   20.4817 C   0  0  0  0  0  0
    4.9262   53.0221   21.7486 C   0  0  0  0  0  0
    3.6931   53.2998   22.3425 C   0  0  0  0  0  0
    2.5191   52.9687   21.6691 C   0  0  0  0  0  0
    3.5670   54.0967   23.9221 S   0  0  0  0  0  0
    5.2376   54.4536   24.5357 C   0  0  0  0  0  0
    0.5588   48.9559   24.5954 C   0  0  0  0  0  0
   -1.6956   47.4551   26.0817 O   0  0  0  0  0  0
    3.7860   53.0241   26.8002 H   0  0  0  0  0  0
    4.5224   52.6975   28.3632 H   0  0  0  0  0  0
    4.1035   54.3474   27.9196 H   0  0  0  0  0  0
    2.4279   53.3899   29.5253 H   0  0  0  0  0  0
    1.6009   55.0814   27.9309 H   0  0  0  0  0  0
    1.2860   53.8655   26.7434 H   0  0  0  0  0  0
   -0.0803   53.9656   29.4992 H   0  0  0  0  0  0
   -0.8947   54.4457   28.0817 H   0  0  0  0  0  0
    0.4797   51.8716   30.0366 H   0  0  0  0  0  0
    0.1013   50.4967   29.1304 H   0  0  0  0  0  0
    1.9044   51.2966   27.3741 H   0  0  0  0  0  0
    2.6179   51.0025   28.9189 H   0  0  0  0  0  0
   -0.3164   49.8840   27.1522 H   0  0  0  0  0  0
   -2.0134   50.0976   27.5843 H   0  0  0  0  0  0
   -3.2180   46.8870   24.2563 H   0  0  0  0  0  0
   -3.8994   48.4291   23.9045 H   0  0  0  0  0  0
   -1.1796   47.4012   23.1590 H   0  0  0  0  0  0
   -2.4147   47.8552   22.0859 H   0  0  0  0  0  0
    0.5098   51.7080   25.1178 H   0  0  0  0  0  0
    0.9887   51.2036   23.5739 H   0  0  0  0  0  0
   -0.0984   53.3430   23.3006 H   0  0  0  0  0  0
   -1.4831   52.7936   24.0610 H   0  0  0  0  0  0
   -4.0956   51.6967   22.4817 H   0  0  0  0  0  0
   -4.0216   50.3638   23.4849 H   0  0  0  0  0  0
   -3.2422   51.8606   23.9010 H   0  0  0  0  0  0
   -3.5743   49.5111   21.0410 H   0  0  0  0  0  0
   -3.1567   51.0289   20.3148 H   0  0  0  0  0  0
   -1.3035   50.1811   19.5791 H   0  0  0  0  0  0
    1.5728   52.1194   18.6208 H   0  0  0  0  0  0
    3.8527   51.6967   18.8205 H   0  0  0  0  0  0
    5.9044   52.2319   19.9940 H   0  0  0  0  0  0
    5.8522   53.2646   22.2456 H   0  0  0  0  0  0
    1.5880   53.2563   22.1136 H   0  0  0  0  0  0
    5.1761   54.9866   25.4843 H   0  0  0  0  0  0
    5.7912   53.5298   24.7016 H   0  0  0  0  0  0
    5.7872   55.0765   23.8300 H   0  0  0  0  0  0
    1.2842   48.9669   23.7809 H   0  0  0  0  0  0
    1.1042   49.2129   25.5031 H   0  0  0  0  0  0
    0.2626   47.9171   24.7041 H   0  0  0  0  0  0
   -1.5328   47.6966   27.0241 H   0  0  0  0  0  0
  1  2  1  0  0  0
  1 42  1  0  0  0
  1 43  1  0  0  0
  1 44  1  0  0  0
  2  7  1  0  0  0
  2  3  1  0  0  0
  2 45  1  0  0  0
  3  4  1  0  0  0
  3 46  1  0  0  0
  3 47  1  0  0  0
  4  5  1  0  0  0
  4 48  1  0  0  0
  4 49  1  0  0  0
  5  6  1  0  0  0
  5  8  1  0  0  0
  6  7  1  0  0  0
  6 50  1  0  0  0
  6 51  1  0  0  0
  7 52  1  0  0  0
  7 53  1  0  0  0
  8  9  2  0  0  0
  8 10  1  0  0  0
 10 11  1  0  0  0
 10 54  1  0  0  0
 10 55  1  0  0  0
 11 12  1  0  0  0
 11 19  1  0  0  0
 11 13  1  0  0  0
 13 14  1  0  0  0
 13 15  1  0  0  0
 13 41  1  0  0  0
 15 16  1  0  0  0
 15 56  1  0  0  0
 15 57  1  0  0  0
 16 17  1  0  0  0
 16 58  1  0  0  0
 16 59  1  0  0  0
 17 18  1  0  0  0
 17 24  1  0  0  0
 17 19  1  0  0  0
 19 20  1  0  0  0
 19 40  1  0  0  0
 20 21  1  0  0  0
 20 60  1  0  0  0
 20 61  1  0  0  0
 21 22  1  0  0  0
 21 62  1  0  0  0
 21 63  1  0  0  0
 22 23  1  0  0  0
 22 24  1  0  0  0
 22 28  1  0  0  0
 24 25  1  0  0  0
 24 26  1  0  0  0
 25 64  1  0  0  0
 25 65  1  0  0  0
 25 66  1  0  0  0
 26 27  1  0  0  0
 26 67  1  0  0  0
 26 68  1  0  0  0
 27 69  1  0  0  0
 28 29  1  0  0  0
 29 30  2  0  0  0
 29 31  1  0  0  0
 31 32  1  0  0  0
 31 70  1  0  0  0
 32 37  2  0  0  0
 32 33  1  0  0  0
 33 34  2  0  0  0
 33 71  1  0  0  0
 34 35  1  0  0  0
 34 72  1  0  0  0
 35 36  2  0  0  0
 35 73  1  0  0  0
 36 37  1  0  0  0
 36 38  1  0  0  0
 37 74  1  0  0  0
 38 39  1  0  0  0
 39 75  1  0  0  0
 39 76  1  0  0  0
 39 77  1  0  0  0
 40 78  1  0  0  0
 40 79  1  0  0  0
 40 80  1  0  0  0
 41 81  1  0  0  0
M  END
> <i_i_glide_confnum>
410

> <i_i_glide_lignum>
4920

> <i_i_glide_posenum>
316

> <i_i_glide_rotatable_bonds>
11

> <i_m_Source_File_Index>
3856

> <b_m_subgroup_collapsed>
0

> <r_i_docking_score>
-2.74832

> <r_i_glide_ecoul>
-8.02215

> <r_i_glide_eff_state_penalty>
0

> <r_i_glide_einternal>
9.45994

> <r_i_glide_emodel>
-34.0583

> <r_i_glide_energy>
-35.3052

> <r_i_glide_erotb>
0.581462

> <r_i_glide_esite>
-0.0818938

> <r_i_glide_evdw>
-27.283

> <r_i_glide_gscore>
-2.74832

> <r_i_glide_hbond>
-0.138488

> <r_i_glide_ligand_efficiency>
-0.074279

> <r_i_glide_ligand_efficiency_ln>
-0.596047

> <r_i_glide_ligand_efficiency_sa>
-0.247514

> <r_i_glide_lipo>
-1.64879

> <r_i_glide_metal>
0

> <r_i_glide_rewards>
1.10686

> <s_i_glide_gridfile>
wee1_glide-grid

> <s_m_Source_File>
wee1_decoys_glide_SP.sdf

> <s_m_Source_Path>
/Users/zhangxujun/Desktop

> <s_m_entry_id>
4131

> <s_m_entry_name>
wee1_decoys_glide_SP.3856

> <s_m_subgroup_title>
wee1_decoys_glide_SP

> <s_m_subgroupid>
wee1_decoys_glide_SP


$$$$
