@<TRIPOS>MOLECULE
ZINC13396141_1941
53   56    1
SMALL
USER_CHARGES


@<TRIPOS>ATOM
      1 C1          7.0603   55.3216   22.2328 C.ar      1 UNK         0.0000 
      2 C2          7.2852   55.6966   20.9161 C.ar      1 UNK         0.0000 
      3 C3          6.4046   55.2923   19.9161 C.ar      1 UNK         0.0000 
      4 C4          5.3223   54.4676   20.2344 C.ar      1 UNK         0.0000 
      5 C5          5.1065   54.0754   21.5550 C.ar      1 UNK         0.0000 
      6 C6          5.9580   54.5258   22.5674 C.ar      1 UNK         0.0000 
      7 N7          5.6240   54.1710   23.8859 N.am      1 UNK         0.0000 
      8 C8          5.9928   54.7547   25.0487 C.2       1 UNK         0.0000 
      9 O9          6.7984   55.6810   25.1667 O.2       1 UNK         0.0000 
     10 C10         5.3512   54.2002   26.2195 C.2       1 UNK         0.0000 
     11 C11         6.0121   54.1409   27.4462 C.2       1 UNK         0.0000 
     12 S12         5.0473   53.4874   28.7116 S.3       1 UNK         0.0000 
     13 C13         3.6960   53.3574   27.6498 C.2       1 UNK         0.0000 
     14 C14         3.9889   53.7987   26.3473 C.2       1 UNK         0.0000 
     15 C15         2.9158   53.8113   25.2463 C.3       1 UNK         0.0000 
     16 C16         1.6219   53.0878   25.6943 C.3       1 UNK         0.0000 
     17 C17         1.2670   53.2967   27.1765 C.3       1 UNK         0.0000 
     18 C18         2.3692   52.7812   28.1112 C.3       1 UNK         0.0000 
     19 S19         6.5541   55.9144   18.2392 S.o2      1 UNK         0.0000 
     20 O20         6.1673   54.8039   17.3620 O.2       1 UNK         0.0000 
     21 O21         5.7950   57.1691   18.2383 O.2       1 UNK         0.0000 
     22 N22         8.2619   56.3071   17.9168 N.pl3     1 UNK         0.0000 
     23 C23         9.2283   55.2063   17.7013 C.3       1 UNK         0.0000 
     24 C24        10.3376   55.6776   16.7330 C.3       1 UNK         0.0000 
     25 C25        10.9929   57.0046   17.1942 C.3       1 UNK         0.0000 
     26 C26         9.9318   58.1016   17.5202 C.3       1 UNK         0.0000 
     27 H27         9.4399   58.4278   16.6034 H         1 UNK         0.0000 
     28 C28         8.8509   57.5473   18.4810 C.3       1 UNK         0.0000 
     29 C29        10.5871   59.3785   18.1140 C.2       1 UNK         0.0000 
     30 O30         9.9044   60.0967   18.8817 O.co2     1 UNK         0.0000 
     31 H31         7.7446   55.6918   22.9754 H         1 UNK         0.0000 
     32 H32         8.1307   56.3244   20.7068 H         1 UNK         0.0000 
     33 H33         4.6307   54.1558   19.4639 H         1 UNK         0.0000 
     34 H34         4.2491   53.4593   21.7844 H         1 UNK         0.0000 
     35 H35         4.9339   53.4416   23.9667 H         1 UNK         0.0000 
     36 H36         7.0291   54.4368   27.6629 H         1 UNK         0.0000 
     37 H37         3.2558   53.3222   24.3354 H         1 UNK         0.0000 
     38 H38         2.7021   54.8450   24.9687 H         1 UNK         0.0000 
     39 H39         0.7918   53.4067   25.0622 H         1 UNK         0.0000 
     40 H40         1.7265   52.0199   25.5086 H         1 UNK         0.0000 
     41 H41         1.1043   54.3590   27.3648 H         1 UNK         0.0000 
     42 H42         0.3255   52.7981   27.4099 H         1 UNK         0.0000 
     43 H43         2.1503   53.0532   29.1441 H         1 UNK         0.0000 
     44 H44         2.4061   51.6917   28.0826 H         1 UNK         0.0000 
     45 H45         9.6955   54.9681   18.6584 H         1 UNK         0.0000 
     46 H46         8.7108   54.3215   17.3292 H         1 UNK         0.0000 
     47 H47        11.0975   54.9011   16.6407 H         1 UNK         0.0000 
     48 H48         9.9148   55.8034   15.7352 H         1 UNK         0.0000 
     49 H49        11.5794   56.7724   18.0825 H         1 UNK         0.0000 
     50 H50        11.6791   57.3455   16.4171 H         1 UNK         0.0000 
     51 H51         8.0617   58.2717   18.6898 H         1 UNK         0.0000 
     52 H52         9.3686   57.2925   19.4046 H         1 UNK         0.0000 
     53 O53        11.7613   59.6523   17.7803 O.co2     1 UNK         0.0000 
@<TRIPOS>BOND
     1    1    6 ar   
     2    1    2 ar   
     3    1   31 1    
     4    2    3 ar   
     5    2   32 1    
     6    3    4 ar   
     7    3   19 1    
     8    4    5 ar   
     9    4   33 1    
    10    5    6 ar   
    11    5   34 1    
    12    6    7 1    
    13    7    8 am   BACKBONE|DICT|INTERRES
    14    7   35 1    
    15    8    9 2    
    16    8   10 1    
    17   10   14 1    
    18   10   11 2    
    19   11   12 1    
    20   11   36 1    
    21   12   13 1    
    22   13   18 1    
    23   13   14 2    
    24   14   15 1    
    25   15   16 1    
    26   15   37 1    
    27   15   38 1    
    28   16   17 1    
    29   16   39 1    
    30   16   40 1    
    31   17   18 1    
    32   17   41 1    
    33   17   42 1    
    34   18   43 1    
    35   18   44 1    
    36   19   20 2    
    37   19   21 2    
    38   19   22 1    
    39   22   28 1    
    40   22   23 1    
    41   23   24 1    
    42   23   45 1    
    43   23   46 1    
    44   24   25 1    
    45   24   47 1    
    46   24   48 1    
    47   25   26 1    
    48   25   49 1    
    49   25   50 1    
    50   26   27 1    
    51   26   28 1    
    52   26   29 1    
    53   28   51 1    
    54   28   52 1    
    55   29   30 2    
    56   29   53 1    
@<TRIPOS>SUBSTRUCTURE
     1 UNK         1 GROUP             0       ****    0 ROOT    
