@<TRIPOS>MOLECULE
ZINC10098861_3365
63   65    1
SMALL
USER_CHARGES


@<TRIPOS>ATOM
      1 C1          7.9237   56.2828   16.2839 C.3       1 UNK         0.0000 
      2 C2          7.2978   55.4640   17.4275 C.3       1 UNK         0.0000 
      3 H3          7.7849   54.4859   17.4116 H         1 UNK         0.0000 
      4 C4          5.7769   55.3139   17.2428 C.3       1 UNK         0.0000 
      5 C5          5.1809   54.2957   18.2368 C.3       1 UNK         0.0000 
      6 C6          5.6878   54.5735   19.6652 C.2       1 UNK         0.0000 
      7 C7          6.7851   55.4321   19.8724 C.2       1 UNK         0.0000 
      8 S8          7.1191   55.6965   21.5394 S.3       1 UNK         0.0000 
      9 C9          5.8192   54.6416   22.0048 C.2       1 UNK         0.0000 
     10 C10         5.1394   54.0838   20.8961 C.2       1 UNK         0.0000 
     11 C11         3.9934   53.1732   21.0494 C.2       1 UNK         0.0000 
     12 O12         3.4367   53.0402   22.1458 O.2       1 UNK         0.0000 
     13 N13         3.6392   52.4946   19.9371 N.am      1 UNK         0.0000 
     14 C14         2.6963   51.5437   19.8093 C.2       1 UNK         0.0000 
     15 O15         2.0744   50.9912   20.7236 O.2       1 UNK         0.0000 
     16 O16         2.5903   51.3112   18.4633 O.3       1 UNK         0.0000 
     17 C17         1.8291   50.1735   18.0820 C.3       1 UNK         0.0000 
     18 N18         5.4933   54.4197   23.3386 N.am      1 UNK         0.0000 
     19 C19         6.0441   54.8958   24.4737 C.2       1 UNK         0.0000 
     20 O20         7.0528   55.5952   24.5619 O.2       1 UNK         0.0000 
     21 C21         5.3086   54.4747   25.7132 C.ar      1 UNK         0.0000 
     22 C22         3.9060   54.4575   25.7387 C.ar      1 UNK         0.0000 
     23 C23         3.2339   54.0965   26.8990 C.ar      1 UNK         0.0000 
     24 C24         3.9607   53.7440   28.0343 C.ar      1 UNK         0.0000 
     25 C25         5.3548   53.7404   28.0116 C.ar      1 UNK         0.0000 
     26 C26         6.0276   54.1117   26.8554 C.ar      1 UNK         0.0000 
     27 S27         3.0966   53.3998   29.5565 S.o2      1 UNK         0.0000 
     28 O28         2.7796   54.7296   30.0817 O.2       1 UNK         0.0000 
     29 O29         3.9044   52.4581   30.3410 O.2       1 UNK         0.0000 
     30 N30         1.5759   52.5771   29.1424 N.pl3     1 UNK         0.0000 
     31 C31         1.7828   51.3852   28.2821 C.3       1 UNK         0.0000 
     32 C32         0.5589   52.3926   30.2351 C.3       1 UNK         0.0000 
     33 C33         0.2574   53.6675   31.0442 C.3       1 UNK         0.0000 
     34 C34        -0.7629   51.7928   29.7152 C.3       1 UNK         0.0000 
     35 C35         7.5814   56.1452   18.7844 C.3       1 UNK         0.0000 
     36 H36         7.4928   57.2831   16.2212 H         1 UNK         0.0000 
     37 H37         9.0001   56.3933   16.4205 H         1 UNK         0.0000 
     38 H38         7.7678   55.7966   15.3204 H         1 UNK         0.0000 
     39 H39         5.2849   56.2870   17.3025 H         1 UNK         0.0000 
     40 H40         5.5661   54.9699   16.2288 H         1 UNK         0.0000 
     41 H41         5.4565   53.2840   17.9308 H         1 UNK         0.0000 
     42 H42         4.0941   54.3635   18.1744 H         1 UNK         0.0000 
     43 H43         4.1212   52.7212   19.0822 H         1 UNK         0.0000 
     44 H44         1.8289   50.0874   16.9951 H         1 UNK         0.0000 
     45 H45         2.2641   49.2566   18.4841 H         1 UNK         0.0000 
     46 H46         0.7935   50.2514   18.4172 H         1 UNK         0.0000 
     47 H47         4.6998   53.8017   23.4542 H         1 UNK         0.0000 
     48 H48         3.3247   54.7394   24.8713 H         1 UNK         0.0000 
     49 H49         2.1537   54.1044   26.9170 H         1 UNK         0.0000 
     50 H50         5.9273   53.4701   28.8817 H         1 UNK         0.0000 
     51 H51         7.1072   54.1145   26.8565 H         1 UNK         0.0000 
     52 H52         0.9401   51.2525   27.6035 H         1 UNK         0.0000 
     53 H53         2.6775   51.5127   27.6809 H         1 UNK         0.0000 
     54 H54         1.9206   50.4967   28.8907 H         1 UNK         0.0000 
     55 H55         0.9987   51.6967   30.9475 H         1 UNK         0.0000 
     56 H56        -0.5316   53.4803   31.7690 H         1 UNK         0.0000 
     57 H57        -0.0482   54.4986   30.4079 H         1 UNK         0.0000 
     58 H58         1.1040   53.9783   31.6486 H         1 UNK         0.0000 
     59 H59        -1.4117   51.5164   30.5465 H         1 UNK         0.0000 
     60 H60        -1.2947   52.4967   29.0780 H         1 UNK         0.0000 
     61 H61        -0.6201   50.8841   29.1399 H         1 UNK         0.0000 
     62 H62         7.2799   57.1930   18.7452 H         1 UNK         0.0000 
     63 H63         8.6505   56.1235   19.0033 H         1 UNK         0.0000 
@<TRIPOS>BOND
     1    1    2 1    
     2    1   36 1    
     3    1   37 1    
     4    1   38 1    
     5    2    3 1    
     6    2   35 1    
     7    2    4 1    
     8    4    5 1    
     9    4   39 1    
    10    4   40 1    
    11    5    6 1    
    12    5   41 1    
    13    5   42 1    
    14    6   10 1    
    15    6    7 2    
    16    7    8 1    
    17    7   35 1    
    18    8    9 1    
    19    9   10 2    
    20    9   18 am   BACKBONE|DICT|INTERRES
    21   10   11 1    
    22   11   12 2    
    23   11   13 am   BACKBONE|DICT|INTERRES
    24   13   14 am   BACKBONE|DICT|INTERRES
    25   13   43 1    
    26   14   15 2    
    27   14   16 1    
    28   16   17 1    
    29   17   44 1    
    30   17   45 1    
    31   17   46 1    
    32   18   19 am   BACKBONE|DICT|INTERRES
    33   18   47 1    
    34   19   20 2    
    35   19   21 1    
    36   21   26 ar   
    37   21   22 ar   
    38   22   23 ar   
    39   22   48 1    
    40   23   24 ar   
    41   23   49 1    
    42   24   25 ar   
    43   24   27 1    
    44   25   26 ar   
    45   25   50 1    
    46   26   51 1    
    47   27   28 2    
    48   27   29 2    
    49   27   30 1    
    50   30   31 1    
    51   30   32 1    
    52   31   52 1    
    53   31   53 1    
    54   31   54 1    
    55   32   33 1    
    56   32   34 1    
    57   32   55 1    
    58   33   56 1    
    59   33   57 1    
    60   33   58 1    
    61   34   59 1    
    62   34   60 1    
    63   34   61 1    
    64   35   62 1    
    65   35   63 1    
@<TRIPOS>SUBSTRUCTURE
     1 UNK         1 GROUP             0       ****    0 ROOT    
