ZINC35646853_323
                    3D
 Schrodinger Suite 2024-2.
 78 80  0  0  1  0            999 V2000
    0.2626   48.6395   21.1035 C   0  0  0  0  0  0
   -0.0306   49.9714   20.3937 C   0  0  0  0  0  0
    0.4383   51.1543   21.1613 N   0  0  0  0  0  0
    1.7681   51.5555   21.3013 C   0  0  0  0  0  0
    2.1199   52.4438   22.2870 C   0  0  0  0  0  0
    1.0544   52.8918   23.3396 C   0  0  1  0  0  0
    1.0245   53.9833   23.2995 H   0  0  0  0  0  0
   -0.2868   52.4981   22.8752 N   0  0  0  0  0  0
   -0.5951   51.8604   21.7266 C   0  0  0  0  0  0
   -1.7046   52.0614   21.2314 O   0  0  0  0  0  0
    1.2493   52.5608   24.8436 C   0  0  0  0  0  0
    1.8264   53.5380   25.6709 C   0  0  0  0  0  0
    1.8669   53.3884   27.0557 C   0  0  0  0  0  0
    1.2914   52.2724   27.6571 C   0  0  0  0  0  0
    0.7050   51.2910   26.8575 C   0  0  0  0  0  0
    0.7047   51.4044   25.4625 C   0  0  0  0  0  0
    0.1885   50.2038   24.6798 C   0  0  0  0  0  0
    1.2852   52.1313   29.1680 C   0  0  0  0  0  0
    3.5106   52.9512   22.4818 C   0  0  0  0  0  0
    4.5158   52.4521   21.9828 O   0  0  0  0  0  0
    3.6049   54.0355   23.2901 O   0  0  0  0  0  0
    4.8521   54.4795   23.8393 C   0  0  0  0  0  0
    5.9186   54.8964   22.8033 C   0  0  0  0  0  0
    2.7465   50.9387   20.2456 C   0  0  0  0  0  0
    2.9811   51.6960   18.9001 N   0  3  2  0  0  0
    3.6854   53.0667   19.0740 C   0  0  0  0  0  0
    4.1139   53.7540   17.7627 C   0  0  0  0  0  0
    3.0197   54.5778   17.0464 C   0  0  0  0  0  0
    1.7551   53.8577   16.7940 N   0  0  0  0  0  0
    1.8592   52.3963   16.6618 C   0  0  0  0  0  0
    1.7225   51.6551   17.9985 C   0  0  0  0  0  0
    0.5307   54.4533   16.8824 C   0  0  0  0  0  0
   -0.5200   53.8071   16.9394 O   0  0  0  0  0  0
    0.5164   55.7895   16.6842 N   0  0  0  0  0  0
   -0.6854   56.6061   16.4832 C   0  0  0  0  0  0
   -1.4570   56.8667   17.7904 C   0  0  0  0  0  0
   -0.3164   57.9169   15.7735 C   0  0  0  0  0  0
   -0.0530   47.8006   20.4836 H   0  0  0  0  0  0
    1.3238   48.5064   21.3101 H   0  0  0  0  0  0
   -0.2815   48.5645   22.0466 H   0  0  0  0  0  0
   -1.1100   49.9852   20.2275 H   0  0  0  0  0  0
    0.3777   49.9575   19.3899 H   0  0  0  0  0  0
   -1.0691   52.7980   23.4367 H   0  0  0  0  0  0
    2.2079   54.4629   25.2606 H   0  0  0  0  0  0
    2.3123   54.1647   27.6617 H   0  0  0  0  0  0
    0.2706   50.4154   27.3198 H   0  0  0  0  0  0
    0.2888   49.2779   25.2516 H   0  0  0  0  0  0
   -0.8603   50.3246   24.4048 H   0  0  0  0  0  0
    0.7804   50.0523   23.7785 H   0  0  0  0  0  0
    0.4688   51.4920   29.5074 H   0  0  0  0  0  0
    2.2277   51.7106   29.5163 H   0  0  0  0  0  0
    1.1428   53.1036   29.6405 H   0  0  0  0  0  0
    4.6267   55.3249   24.4889 H   0  0  0  0  0  0
    5.2530   53.7051   24.4957 H   0  0  0  0  0  0
    6.6130   55.6289   23.2131 H   0  0  0  0  0  0
    6.5168   54.0412   22.4915 H   0  0  0  0  0  0
    5.4666   55.3061   21.9023 H   0  0  0  0  0  0
    2.4820   49.9300   19.9329 H   0  0  0  0  0  0
    3.7491   50.7616   20.6238 H   0  0  0  0  0  0
    4.5996   52.7894   19.5980 H   0  0  0  0  0  0
    3.0673   53.6954   19.7153 H   0  0  0  0  0  0
    4.5348   53.0117   17.0828 H   0  0  0  0  0  0
    4.9466   54.4218   17.9834 H   0  0  0  0  0  0
    3.4348   54.8545   16.0770 H   0  0  0  0  0  0
    2.8347   55.4787   17.6347 H   0  0  0  0  0  0
    1.0191   52.0694   16.0447 H   0  0  0  0  0  0
    2.7230   52.0769   16.0764 H   0  0  0  0  0  0
    0.8776   52.0209   18.5828 H   0  0  0  0  0  0
    1.5818   50.5912   17.7965 H   0  0  0  0  0  0
    1.3928   56.2526   16.5074 H   0  0  0  0  0  0
   -1.3532   56.0618   15.8075 H   0  0  0  0  0  0
   -2.3821   57.4036   17.5854 H   0  0  0  0  0  0
   -0.8909   57.4899   18.4813 H   0  0  0  0  0  0
   -1.7201   55.9399   18.2972 H   0  0  0  0  0  0
   -1.1904   58.5601   15.6543 H   0  0  0  0  0  0
    0.4152   58.4929   16.3470 H   0  0  0  0  0  0
    0.0818   57.7378   14.7728 H   0  0  0  0  0  0
    3.6843   51.1350   18.4146 H   0  0  0  0  0  0
  1  2  1  0  0  0
  1 38  1  0  0  0
  1 39  1  0  0  0
  1 40  1  0  0  0
  2  3  1  0  0  0
  2 41  1  0  0  0
  2 42  1  0  0  0
  3  9  1  0  0  0
  3  4  1  0  0  0
  4  5  2  0  0  0
  4 24  1  0  0  0
  5  6  1  0  0  0
  5 19  1  0  0  0
  6  7  1  0  0  0
  6  8  1  0  0  0
  6 11  1  0  0  0
  8  9  1  0  0  0
  8 43  1  0  0  0
  9 10  2  0  0  0
 11 16  2  0  0  0
 11 12  1  0  0  0
 12 13  2  0  0  0
 12 44  1  0  0  0
 13 14  1  0  0  0
 13 45  1  0  0  0
 14 15  2  0  0  0
 14 18  1  0  0  0
 15 16  1  0  0  0
 15 46  1  0  0  0
 16 17  1  0  0  0
 17 47  1  0  0  0
 17 48  1  0  0  0
 17 49  1  0  0  0
 18 50  1  0  0  0
 18 51  1  0  0  0
 18 52  1  0  0  0
 19 20  2  0  0  0
 19 21  1  0  0  0
 21 22  1  0  0  0
 22 23  1  0  0  0
 22 53  1  0  0  0
 22 54  1  0  0  0
 23 55  1  0  0  0
 23 56  1  0  0  0
 23 57  1  0  0  0
 24 25  1  0  0  0
 24 58  1  0  0  0
 24 59  1  0  0  0
 25 31  1  0  0  0
 25 26  1  0  0  0
 25 78  1  0  0  0
 26 27  1  0  0  0
 26 60  1  0  0  0
 26 61  1  0  0  0
 27 28  1  0  0  0
 27 62  1  0  0  0
 27 63  1  0  0  0
 28 29  1  0  0  0
 28 64  1  0  0  0
 28 65  1  0  0  0
 29 30  1  0  0  0
 29 32  1  0  0  0
 30 31  1  0  0  0
 30 66  1  0  0  0
 30 67  1  0  0  0
 31 68  1  0  0  0
 31 69  1  0  0  0
 32 33  2  0  0  0
 32 34  1  0  0  0
 34 35  1  0  0  0
 34 70  1  0  0  0
 35 36  1  0  0  0
 35 37  1  0  0  0
 35 71  1  0  0  0
 36 72  1  0  0  0
 36 73  1  0  0  0
 36 74  1  0  0  0
 37 75  1  0  0  0
 37 76  1  0  0  0
 37 77  1  0  0  0
M  CHG  1  25   1
M  END
> <i_i_glide_confnum>
140

> <i_i_glide_lignum>
324

> <i_i_glide_posenum>
32

> <i_i_glide_rotatable_bonds>
10

> <i_m_Source_File_Index>
1047

> <b_m_subgroup_collapsed>
0

> <r_i_docking_score>
-4.04974

> <r_i_glide_ecoul>
-5.3403

> <r_i_glide_eff_state_penalty>
0

> <r_i_glide_einternal>
14.5816

> <r_i_glide_emodel>
-42.9388

> <r_i_glide_energy>
-40.4221

> <r_i_glide_erotb>
0.570299

> <r_i_glide_esite>
-0.0970326

> <r_i_glide_evdw>
-35.0818

> <r_i_glide_gscore>
-4.04974

> <r_i_glide_hbond>
-0.209133

> <r_i_glide_ligand_efficiency>
-0.112493

> <r_i_glide_ligand_efficiency_ln>
-0.883544

> <r_i_glide_ligand_efficiency_sa>
-0.371443

> <r_i_glide_lipo>
-1.67542

> <r_i_glide_metal>
0

> <r_i_glide_rewards>
-0.083322

> <s_i_glide_gridfile>
wee1_glide-grid

> <s_m_Source_File>
wee1_decoys_glide_SP.sdf

> <s_m_Source_Path>
/Users/zhangxujun/Desktop

> <s_m_entry_id>
1322

> <s_m_entry_name>
wee1_decoys_glide_SP.1047

> <s_m_subgroup_title>
wee1_decoys_glide_SP

> <s_m_subgroupid>
wee1_decoys_glide_SP


$$$$
