@<TRIPOS>MOLECULE
ZINC66644341_1405
56   58    1
SMALL
USER_CHARGES


@<TRIPOS>ATOM
      1 C1          1.5473   56.8966   29.1390 C.3       1 UNK         0.0000 
      2 O2          2.0493   55.5922   29.3240 O.3       1 UNK         0.0000 
      3 C3          1.3945   54.6908   30.0816 C.2       1 UNK         0.0000 
      4 O4          0.3043   54.8966   30.6104 O.2       1 UNK         0.0000 
      5 N5          2.1600   53.5256   30.2393 N.am      1 UNK         0.0000 
      6 C6          1.8050   52.4847   31.2087 C.3       1 UNK         0.0000 
      7 C7          3.1462   51.8641   31.5901 C.3       1 UNK         0.0000 
      8 C8          3.8868   51.8974   30.2602 C.3       1 UNK         0.0000 
      9 C9          3.5035   53.2649   29.6630 C.3       1 UNK         0.0000 
     10 H10         4.1813   54.0239   30.0618 H         1 UNK         0.0000 
     11 C11         3.6051   53.2961   28.1226 C.2       1 UNK         0.0000 
     12 O12         4.7226   53.4099   27.6199 O.2       1 UNK         0.0000 
     13 N13         2.4367   53.2054   27.4491 N.am      1 UNK         0.0000 
     14 C14         2.2303   53.1912   26.0640 C.ar      1 UNK         0.0000 
     15 C15         3.0921   53.8071   25.1470 C.ar      1 UNK         0.0000 
     16 C16         2.8827   53.6429   23.7809 C.ar      1 UNK         0.0000 
     17 C17         1.8251   52.8398   23.3275 C.ar      1 UNK         0.0000 
     18 C18         0.9140   52.3123   24.2446 C.ar      1 UNK         0.0000 
     19 C19         1.1076   52.4964   25.6096 C.ar      1 UNK         0.0000 
     20 N20         1.6103   52.4970   21.9821 N.am      1 UNK         0.0000 
     21 C21         2.4861   52.4968   20.9490 C.2       1 UNK         0.0000 
     22 O22         3.6562   52.8666   21.0752 O.2       1 UNK         0.0000 
     23 N23         2.0060   51.9809   19.7761 N.am      1 UNK         0.0000 
     24 C24         2.8953   51.8969   18.6046 C.3       1 UNK         0.0000 
     25 C25         2.9665   53.2024   17.7904 C.3       1 UNK         0.0000 
     26 C26         1.7425   53.4431   16.8863 C.3       1 UNK         0.0000 
     27 C27         0.3678   53.3564   17.5803 C.3       1 UNK         0.0000 
     28 C28         0.0205   51.9605   18.1400 C.3       1 UNK         0.0000 
     29 C29         0.5824   51.6377   19.5446 C.3       1 UNK         0.0000 
     30 H30         2.2265   57.4315   28.4817 H         1 UNK         0.0000 
     31 H31         1.4780   57.4379   30.0842 H         1 UNK         0.0000 
     32 H32         0.5740   56.8955   28.6554 H         1 UNK         0.0000 
     33 H33         1.2767   52.8634   32.0864 H         1 UNK         0.0000 
     34 H34         1.1590   51.7532   30.7195 H         1 UNK         0.0000 
     35 H35         3.6690   52.4967   32.3032 H         1 UNK         0.0000 
     36 H36         3.0648   50.8970   32.0817 H         1 UNK         0.0000 
     37 H37         4.9635   51.7653   30.3752 H         1 UNK         0.0000 
     38 H38         3.5237   51.0990   29.6114 H         1 UNK         0.0000 
     39 H39         1.6162   53.0305   28.0092 H         1 UNK         0.0000 
     40 H40         3.9393   54.3893   25.4777 H         1 UNK         0.0000 
     41 H41         3.5750   54.1127   23.0985 H         1 UNK         0.0000 
     42 H42         0.0782   51.7134   23.9107 H         1 UNK         0.0000 
     43 H43         0.4217   52.0331   26.3051 H         1 UNK         0.0000 
     44 H44         0.7052   52.1030   21.7851 H         1 UNK         0.0000 
     45 H45         3.9045   51.6965   18.9595 H         1 UNK         0.0000 
     46 H46         2.6833   51.0018   18.0176 H         1 UNK         0.0000 
     47 H47         3.1208   54.0541   18.4569 H         1 UNK         0.0000 
     48 H48         3.8505   53.1585   17.1529 H         1 UNK         0.0000 
     49 H49         1.8439   54.4253   16.4244 H         1 UNK         0.0000 
     50 H50         1.7679   52.7286   16.0631 H         1 UNK         0.0000 
     51 H51        -0.3936   53.6395   16.8536 H         1 UNK         0.0000 
     52 H52         0.3043   54.0968   18.3767 H         1 UNK         0.0000 
     53 H53         0.3483   51.1963   17.4338 H         1 UNK         0.0000 
     54 H54        -1.0635   51.8467   18.1797 H         1 UNK         0.0000 
     55 H55         0.5002   50.5544   19.6536 H         1 UNK         0.0000 
     56 H56        -0.0676   52.1186   20.2746 H         1 UNK         0.0000 
@<TRIPOS>BOND
     1    1    2 1    
     2    1   30 1    
     3    1   31 1    
     4    1   32 1    
     5    2    3 1    
     6    3    4 2    
     7    3    5 am   BACKBONE|DICT|INTERRES
     8    5    9 1    
     9    5    6 1    
    10    6    7 1    
    11    6   33 1    
    12    6   34 1    
    13    7    8 1    
    14    7   35 1    
    15    7   36 1    
    16    8    9 1    
    17    8   37 1    
    18    8   38 1    
    19    9   10 1    
    20    9   11 1    
    21   11   12 2    
    22   11   13 am   BACKBONE|DICT|INTERRES
    23   13   14 1    
    24   13   39 1    
    25   14   19 ar   
    26   14   15 ar   
    27   15   16 ar   
    28   15   40 1    
    29   16   17 ar   
    30   16   41 1    
    31   17   18 ar   
    32   17   20 1    
    33   18   19 ar   
    34   18   42 1    
    35   19   43 1    
    36   20   21 am   BACKBONE|DICT|INTERRES
    37   20   44 1    
    38   21   22 2    
    39   21   23 am   BACKBONE|DICT|INTERRES
    40   23   29 1    
    41   23   24 1    
    42   24   25 1    
    43   24   45 1    
    44   24   46 1    
    45   25   26 1    
    46   25   47 1    
    47   25   48 1    
    48   26   27 1    
    49   26   49 1    
    50   26   50 1    
    51   27   28 1    
    52   27   51 1    
    53   27   52 1    
    54   28   29 1    
    55   28   53 1    
    56   28   54 1    
    57   29   55 1    
    58   29   56 1    
@<TRIPOS>SUBSTRUCTURE
     1 UNK         1 GROUP             0       ****    0 ROOT    
