ZINC32678540_2767
                    3D
 Schrodinger Suite 2024-2.
 47 50  0  0  1  0            999 V2000
    9.4779   55.5993   15.9625 C   0  0  0  0  0  0
    9.9213   55.7272   17.2822 C   0  0  0  0  0  0
    9.0957   55.3474   18.3429 C   0  0  0  0  0  0
    7.8276   54.8297   18.0758 C   0  0  0  0  0  0
    7.3765   54.7088   16.7492 C   0  0  0  0  0  0
    8.2047   55.0868   15.6930 C   0  0  0  0  0  0
    6.1494   54.1475   16.4387 O   0  0  0  0  0  0
    5.2400   54.0761   17.5462 C   0  0  0  0  0  0
    5.9957   53.5557   18.7962 C   0  0  1  0  0  0
    6.4134   52.5604   18.6193 H   0  0  0  0  0  0
    7.0274   54.4940   19.1471 O   0  0  0  0  0  0
    5.0373   53.4459   19.9991 C   0  0  0  0  0  0
    5.0147   54.3368   20.8507 O   0  0  0  0  0  0
    4.3078   52.3073   20.0702 N   0  0  0  0  0  0
    3.3360   51.9627   21.0325 C   0  0  0  0  0  0
    3.0166   50.6120   21.1654 C   0  0  0  0  0  0
    2.0697   50.1990   22.1037 C   0  0  0  0  0  0
    1.4055   51.1372   22.8987 C   0  0  0  0  0  0
    1.7051   52.4927   22.7419 C   0  0  0  0  0  0
    2.6585   52.9027   21.8191 C   0  0  0  0  0  0
    0.4443   50.6553   23.8046 N   0  0  0  0  0  0
   -0.6424   51.6291   24.8244 S   0  0  0  0  0  0
   -0.9274   52.8940   24.1373 O   0  0  0  0  0  0
   -1.7441   50.7340   25.1926 O   0  0  0  0  0  0
    0.2737   51.9975   26.3233 C   0  0  0  0  0  0
   -0.0961   51.3917   27.5285 C   0  0  0  0  0  0
    0.5962   51.6976   28.6976 C   0  0  0  0  0  0
    1.6644   52.5874   28.6601 C   0  0  0  0  0  0
    2.0421   53.1883   27.4618 C   0  0  0  0  0  0
    1.3437   52.8962   26.2910 C   0  0  0  0  0  0
    2.3400   52.8753   29.7965 F   0  0  0  0  0  0
   10.1247   55.8907   15.1479 H   0  0  0  0  0  0
   10.9071   56.1186   17.4896 H   0  0  0  0  0  0
    9.4394   55.4462   19.3627 H   0  0  0  0  0  0
    7.8680   54.9777   14.6724 H   0  0  0  0  0  0
    4.8297   55.0710   17.7362 H   0  0  0  0  0  0
    4.4277   53.4050   17.2633 H   0  0  0  0  0  0
    4.5272   51.5857   19.3872 H   0  0  0  0  0  0
    3.5019   49.8721   20.5502 H   0  0  0  0  0  0
    1.8489   49.1471   22.2000 H   0  0  0  0  0  0
    1.2091   53.2615   23.3052 H   0  0  0  0  0  0
    2.8325   53.9614   21.7153 H   0  0  0  0  0  0
    0.3580   49.6563   23.9072 H   0  0  0  0  0  0
   -0.9186   50.6888   27.5732 H   0  0  0  0  0  0
    0.2987   51.2505   29.6343 H   0  0  0  0  0  0
    2.8752   53.8772   27.4377 H   0  0  0  0  0  0
    1.6372   53.3747   25.3717 H   0  0  0  0  0  0
  1  6  2  0  0  0
  1  2  1  0  0  0
  1 32  1  0  0  0
  2  3  2  0  0  0
  2 33  1  0  0  0
  3  4  1  0  0  0
  3 34  1  0  0  0
  4 11  1  0  0  0
  4  5  2  0  0  0
  5  6  1  0  0  0
  5  7  1  0  0  0
  6 35  1  0  0  0
  7  8  1  0  0  0
  8  9  1  0  0  0
  8 36  1  0  0  0
  8 37  1  0  0  0
  9 10  1  0  0  0
  9 11  1  0  0  0
  9 12  1  0  0  0
 12 13  2  0  0  0
 12 14  1  0  0  0
 14 15  1  0  0  0
 14 38  1  0  0  0
 15 20  2  0  0  0
 15 16  1  0  0  0
 16 17  2  0  0  0
 16 39  1  0  0  0
 17 18  1  0  0  0
 17 40  1  0  0  0
 18 19  2  0  0  0
 18 21  1  0  0  0
 19 20  1  0  0  0
 19 41  1  0  0  0
 20 42  1  0  0  0
 21 22  1  0  0  0
 21 43  1  0  0  0
 22 23  2  0  0  0
 22 24  2  0  0  0
 22 25  1  0  0  0
 25 30  2  0  0  0
 25 26  1  0  0  0
 26 27  2  0  0  0
 26 44  1  0  0  0
 27 28  1  0  0  0
 27 45  1  0  0  0
 28 29  2  0  0  0
 28 31  1  0  0  0
 29 30  1  0  0  0
 29 46  1  0  0  0
 30 47  1  0  0  0
M  END
> <i_i_glide_confnum>
136

> <i_i_glide_lignum>
2768

> <i_i_glide_posenum>
216

> <i_i_glide_rotatable_bonds>
6

> <i_m_Source_File_Index>
2277

> <b_m_subgroup_collapsed>
0

> <r_i_docking_score>
-3.89014

> <r_i_glide_ecoul>
-6.00659

> <r_i_glide_eff_state_penalty>
0

> <r_i_glide_einternal>
1.46341

> <r_i_glide_emodel>
-51.0881

> <r_i_glide_energy>
-39.7571

> <r_i_glide_erotb>
0.649295

> <r_i_glide_esite>
-0.114128

> <r_i_glide_evdw>
-33.7506

> <r_i_glide_gscore>
-3.89014

> <r_i_glide_hbond>
-0.16

> <r_i_glide_ligand_efficiency>
-0.129671

> <r_i_glide_ligand_efficiency_ln>
-0.883882

> <r_i_glide_ligand_efficiency_sa>
-0.402919

> <r_i_glide_lipo>
-1.30237

> <r_i_glide_metal>
0

> <r_i_glide_rewards>
-0.374422

> <s_i_glide_gridfile>
wee1_glide-grid

> <s_m_Source_File>
wee1_decoys_glide_SP.sdf

> <s_m_Source_Path>
/Users/zhangxujun/Desktop

> <s_m_entry_id>
2552

> <s_m_entry_name>
wee1_decoys_glide_SP.2277

> <s_m_subgroup_title>
wee1_decoys_glide_SP

> <s_m_subgroupid>
wee1_decoys_glide_SP


$$$$
