@<TRIPOS>MOLECULE
ZINC01474310_925
53   55    1
SMALL
USER_CHARGES


@<TRIPOS>ATOM
      1 C1          2.4055   52.8851   23.0880 C.3       1 UNK         0.0000 
      2 C2          3.0178   54.2799   23.2936 C.3       1 UNK         0.0000 
      3 N3          4.4686   54.2051   23.4679 N.pl3     1 UNK         0.0000 
      4 C4          5.2336   54.1716   24.6279 C.ar      1 UNK         0.0000 
      5 N5          6.5090   54.1576   24.3040 N.2       1 UNK         0.0000 
      6 N6          6.6083   54.1199   22.9221 N.2       1 UNK         0.0000 
      7 C7          5.3920   54.1213   22.4470 C.ar      1 UNK         0.0000 
      8 S8          4.9997   54.0946   20.7256 S.3       1 UNK         0.0000 
      9 C9          5.9018   55.5898   20.1981 C.3       1 UNK         0.0000 
     10 C10         7.2307   55.2831   19.5022 C.2       1 UNK         0.0000 
     11 O11         8.2547   55.8455   19.8947 O.2       1 UNK         0.0000 
     12 N12         7.1783   54.4016   18.4812 N.am      1 UNK         0.0000 
     13 N13         8.2708   53.9820   17.8119 N.2       1 UNK         0.0000 
     14 C14         8.0090   53.0698   16.9616 C.2       1 UNK         0.0000 
     15 C15         9.0285   52.4078   16.1328 C.ar      1 UNK         0.0000 
     16 C16        10.4015   52.6281   16.3102 C.ar      1 UNK         0.0000 
     17 C17        11.3624   51.9888   15.5055 C.ar      1 UNK         0.0000 
     18 C18        10.9271   51.1185   14.4929 C.ar      1 UNK         0.0000 
     19 C19         9.5594   50.8833   14.3137 C.ar      1 UNK         0.0000 
     20 C20         8.6272   51.5206   15.1302 C.ar      1 UNK         0.0000 
     21 Br21        8.9277   49.6968   12.9635 Br        1 UNK         0.0000 
     22 O22        11.8504   50.4969   13.6831 O.3       1 UNK         0.0000 
     23 O23        12.7269   52.1800   15.6524 O.3       1 UNK         0.0000 
     24 C24        13.2129   52.9941   16.7133 C.3       1 UNK         0.0000 
     25 C25         4.7721   54.1242   26.0655 C.ar      1 UNK         0.0000 
     26 C26         3.4915   53.6963   26.4377 C.ar      1 UNK         0.0000 
     27 C27         3.1492   53.5421   27.7770 C.ar      1 UNK         0.0000 
     28 C28         4.0891   53.8069   28.7698 C.ar      1 UNK         0.0000 
     29 C29         5.3554   54.2761   28.4227 C.ar      1 UNK         0.0000 
     30 C30         5.6932   54.4314   27.0801 C.ar      1 UNK         0.0000 
     31 C31         3.7306   53.5710   30.2237 C.3       1 UNK         0.0000 
     32 H32         1.3220   52.9517   22.9913 H         1 UNK         0.0000 
     33 H33         2.7870   52.4153   22.1801 H         1 UNK         0.0000 
     34 H34         2.6218   52.2113   23.9151 H         1 UNK         0.0000 
     35 H35         2.5784   54.8177   24.1319 H         1 UNK         0.0000 
     36 H36         2.8128   54.8968   22.4190 H         1 UNK         0.0000 
     37 H37         6.0618   56.2604   21.0449 H         1 UNK         0.0000 
     38 H38         5.2790   56.1336   19.4883 H         1 UNK         0.0000 
     39 H39         6.3084   53.9604   18.2196 H         1 UNK         0.0000 
     40 H40         6.9952   52.7096   16.7864 H         1 UNK         0.0000 
     41 H41        10.7155   53.3021   17.0926 H         1 UNK         0.0000 
     42 H42         7.5773   51.3174   14.9679 H         1 UNK         0.0000 
     43 H43        11.5046   50.0101   12.9239 H         1 UNK         0.0000 
     44 H44        14.3028   52.9908   16.6990 H         1 UNK         0.0000 
     45 H45        12.8822   54.0289   16.6110 H         1 UNK         0.0000 
     46 H46        12.8948   52.6097   17.6825 H         1 UNK         0.0000 
     47 H47         2.7547   53.4053   25.7131 H         1 UNK         0.0000 
     48 H48         2.1680   53.1729   28.0362 H         1 UNK         0.0000 
     49 H49         6.0918   54.4959   29.1853 H         1 UNK         0.0000 
     50 H50         6.6920   54.7602   26.8357 H         1 UNK         0.0000 
     51 H51         2.6734   53.7794   30.3948 H         1 UNK         0.0000 
     52 H52         3.9285   52.5345   30.4986 H         1 UNK         0.0000 
     53 H53         4.3042   54.2234   30.8812 H         1 UNK         0.0000 
@<TRIPOS>BOND
     1    1    2 1    
     2    1   32 1    
     3    1   33 1    
     4    1   34 1    
     5    2    3 1    
     6    2   35 1    
     7    2   36 1    
     8    3    7 ar   
     9    3    4 ar   
    10    4    5 ar   
    11    4   25 1    
    12    5    6 ar   
    13    6    7 ar   
    14    7    8 1    
    15    8    9 1    
    16    9   10 1    
    17    9   37 1    
    18    9   38 1    
    19   10   11 2    
    20   10   12 am   BACKBONE|DICT|INTERRES
    21   12   13 1    
    22   12   39 1    
    23   13   14 2    
    24   14   15 1    
    25   14   40 1    
    26   15   20 ar   
    27   15   16 ar   
    28   16   17 ar   
    29   16   41 1    
    30   17   18 ar   
    31   17   23 1    
    32   18   19 ar   
    33   18   22 1    
    34   19   20 ar   
    35   19   21 1    
    36   20   42 1    
    37   22   43 1    
    38   23   24 1    
    39   24   44 1    
    40   24   45 1    
    41   24   46 1    
    42   25   30 ar   
    43   25   26 ar   
    44   26   27 ar   
    45   26   47 1    
    46   27   28 ar   
    47   27   48 1    
    48   28   29 ar   
    49   28   31 1    
    50   29   30 ar   
    51   29   49 1    
    52   30   50 1    
    53   31   51 1    
    54   31   52 1    
    55   31   53 1    
@<TRIPOS>SUBSTRUCTURE
     1 UNK         1 GROUP             0       ****    0 ROOT    
