@<TRIPOS>MOLECULE
ZINC61818972_3793
44   45    1
SMALL
USER_CHARGES


@<TRIPOS>ATOM
      1 C1          6.6948   54.6628   27.3332 C.3       1 UNK         0.0000 
      2 C2          5.4181   54.3674   26.5651 C.ar      1 UNK         0.0000 
      3 C3          4.2672   54.0194   27.2755 C.ar      1 UNK         0.0000 
      4 C4          3.0871   53.6953   26.6077 C.ar      1 UNK         0.0000 
      5 C5          3.0457   53.7020   25.2038 C.ar      1 UNK         0.0000 
      6 C6          4.1884   54.0997   24.4984 C.ar      1 UNK         0.0000 
      7 C7          5.3752   54.4268   25.1622 C.ar      1 UNK         0.0000 
      8 C8          6.5984   54.8252   24.3479 C.3       1 UNK         0.0000 
      9 S9          1.5675   53.2521   24.2618 S.o2      1 UNK         0.0000 
     10 O10         0.6860   52.4770   25.1429 O.2       1 UNK         0.0000 
     11 O11         1.1062   54.4964   23.6479 O.2       1 UNK         0.0000 
     12 N12         2.1390   52.1814   22.9593 N.pl3     1 UNK         0.0000 
     13 C13         2.6361   52.7632   21.6811 C.3       1 UNK         0.0000 
     14 C14         1.7431   52.3422   20.4937 C.3       1 UNK         0.0000 
     15 C15         1.5931   50.7997   20.3997 C.3       1 UNK         0.0000 
     16 C16         0.9472   50.3402   21.7376 C.3       1 UNK         0.0000 
     17 C17         1.8000   50.7293   22.9711 C.3       1 UNK         0.0000 
     18 C18         2.9653   50.1147   20.1681 C.3       1 UNK         0.0000 
     19 C19         0.6004   50.4870   19.2585 C.3       1 UNK         0.0000 
     20 N20         1.9764   53.3627   27.3774 N.pl3     1 UNK         0.0000 
     21 H21         6.5804   54.4954   28.4055 H         1 UNK         0.0000 
     22 H22         6.9951   55.6961   27.1795 H         1 UNK         0.0000 
     23 H23         7.5047   54.0248   26.9845 H         1 UNK         0.0000 
     24 H24         4.2971   53.9854   28.3550 H         1 UNK         0.0000 
     25 H25         4.1623   54.1434   23.4201 H         1 UNK         0.0000 
     26 H26         6.3850   54.8976   23.2798 H         1 UNK         0.0000 
     27 H27         6.9710   55.7961   24.6748 H         1 UNK         0.0000 
     28 H28         7.4037   54.1024   24.4855 H         1 UNK         0.0000 
     29 H29         2.6386   53.8507   21.7596 H         1 UNK         0.0000 
     30 H30         3.6792   52.4709   21.5493 H         1 UNK         0.0000 
     31 H31         0.7678   52.8262   20.5899 H         1 UNK         0.0000 
     32 H32         2.1689   52.7389   19.5695 H         1 UNK         0.0000 
     33 H33         0.7969   49.2582   21.7350 H         1 UNK         0.0000 
     34 H34        -0.0523   50.7684   21.8489 H         1 UNK         0.0000 
     35 H35         2.7215   50.1531   23.0368 H         1 UNK         0.0000 
     36 H36         1.2523   50.4955   23.8820 H         1 UNK         0.0000 
     37 H37         3.4771   50.5129   19.2878 H         1 UNK         0.0000 
     38 H38         3.6467   50.2394   21.0064 H         1 UNK         0.0000 
     39 H39         2.8385   49.0431   20.0070 H         1 UNK         0.0000 
     40 H40         0.9922   50.8174   18.2941 H         1 UNK         0.0000 
     41 H41         0.4137   49.4136   19.1785 H         1 UNK         0.0000 
     42 H42        -0.3657   50.9776   19.4055 H         1 UNK         0.0000 
     43 H43         2.0806   53.2244   28.3720 H         1 UNK         0.0000 
     44 H44         1.1836   52.9707   26.8769 H         1 UNK         0.0000 
@<TRIPOS>BOND
     1    1    2 1    
     2    1   21 1    
     3    1   22 1    
     4    1   23 1    
     5    2    7 ar   
     6    2    3 ar   
     7    3    4 ar   
     8    3   24 1    
     9    4    5 ar   
    10    4   20 1    
    11    5    6 ar   
    12    5    9 1    
    13    6    7 ar   
    14    6   25 1    
    15    7    8 1    
    16    8   26 1    
    17    8   27 1    
    18    8   28 1    
    19    9   10 2    
    20    9   11 2    
    21    9   12 1    
    22   12   17 1    
    23   12   13 1    
    24   13   14 1    
    25   13   29 1    
    26   13   30 1    
    27   14   15 1    
    28   14   31 1    
    29   14   32 1    
    30   15   16 1    
    31   15   18 1    
    32   15   19 1    
    33   16   17 1    
    34   16   33 1    
    35   16   34 1    
    36   17   35 1    
    37   17   36 1    
    38   18   37 1    
    39   18   38 1    
    40   18   39 1    
    41   19   40 1    
    42   19   41 1    
    43   19   42 1    
    44   20   43 1    
    45   20   44 1    
@<TRIPOS>SUBSTRUCTURE
     1 UNK         1 GROUP             0       ****    0 ROOT    
