@<TRIPOS>MOLECULE
ZINC01390560_3864
31   33    1
SMALL
USER_CHARGES


@<TRIPOS>ATOM
      1 C1          5.4112   54.4880   24.3913 C.ar      1 UNK         0.0000 
      2 C2          6.4634   54.9006   23.5772 C.ar      1 UNK         0.0000 
      3 C3          6.2985   54.9336   22.1948 C.ar      1 UNK         0.0000 
      4 C4          5.1086   54.4966   21.6184 C.ar      1 UNK         0.0000 
      5 C5          4.0554   54.0890   22.4312 C.ar      1 UNK         0.0000 
      6 C6          4.1917   54.0954   23.8247 C.ar      1 UNK         0.0000 
      7 C7          3.0377   53.6610   24.6844 C.ar      1 UNK         0.0000 
      8 C8          1.9076   52.9274   24.2967 C.ar      1 UNK         0.0000 
      9 C9          1.1511   52.7258   25.4299 C.ar      1 UNK         0.0000 
     10 N10         1.8560   53.3499   26.4492 N.pl3     1 UNK         0.0000 
     11 N11         2.9904   53.9151   25.9767 N.2       1 UNK         0.0000 
     12 C12         1.5052   53.5123   27.8210 C.ar      1 UNK         0.0000 
     13 C13         1.7996   54.7135   28.4817 C.ar      1 UNK         0.0000 
     14 C14         1.3951   54.9093   29.7995 C.ar      1 UNK         0.0000 
     15 C15         0.7047   53.9012   30.4643 C.ar      1 UNK         0.0000 
     16 C16         0.4327   52.6910   29.8336 C.ar      1 UNK         0.0000 
     17 C17         0.8388   52.4910   28.5151 C.ar      1 UNK         0.0000 
     18 F18         0.3053   54.0966   31.7376 F         1 UNK         0.0000 
     19 N19        -0.0541   52.0958   25.5774 N.pl3     1 UNK         0.0000 
     20 Br20        7.6497   55.6960   21.0924 Br        1 UNK         0.0000 
     21 H21         5.5442   54.4819   25.4632 H         1 UNK         0.0000 
     22 H22         7.3913   55.2361   24.0198 H         1 UNK         0.0000 
     23 H23         4.9828   54.5230   20.5462 H         1 UNK         0.0000 
     24 H24         3.1273   53.7911   21.9670 H         1 UNK         0.0000 
     25 H25         1.6722   52.5726   23.3045 H         1 UNK         0.0000 
     26 H26         2.3136   55.5153   27.9731 H         1 UNK         0.0000 
     27 H27         1.6059   55.8429   30.3029 H         1 UNK         0.0000 
     28 H28        -0.0954   51.9138   30.3695 H         1 UNK         0.0000 
     29 H29         0.6296   51.5352   28.0520 H         1 UNK         0.0000 
     30 H30        -0.5018   51.6257   24.8043 H         1 UNK         0.0000 
     31 H31        -0.5193   52.0360   26.4718 H         1 UNK         0.0000 
@<TRIPOS>BOND
     1    1    6 ar   
     2    1    2 ar   
     3    1   21 1    
     4    2    3 ar   
     5    2   22 1    
     6    3    4 ar   
     7    3   20 1    
     8    4    5 ar   
     9    4   23 1    
    10    5    6 ar   
    11    5   24 1    
    12    6    7 1    
    13    7   11 ar   
    14    7    8 ar   
    15    8    9 ar   
    16    8   25 1    
    17    9   10 ar   
    18    9   19 1    
    19   10   11 ar   
    20   10   12 1    
    21   12   17 ar   
    22   12   13 ar   
    23   13   14 ar   
    24   13   26 1    
    25   14   15 ar   
    26   14   27 1    
    27   15   16 ar   
    28   15   18 1    
    29   16   17 ar   
    30   16   28 1    
    31   17   29 1    
    32   19   30 1    
    33   19   31 1    
@<TRIPOS>SUBSTRUCTURE
     1 UNK         1 GROUP             0       ****    0 ROOT    
