ZINC07785034_3911
                    3D
 Schrodinger Suite 2024-2.
 40 43  0  0  1  0            999 V2000
    7.4600   55.3533   16.5370 C   0  0  0  0  0  0
    7.4337   56.5815   15.8835 C   0  0  0  0  0  0
    7.2463   57.7519   16.6142 C   0  0  0  0  0  0
    7.0911   57.7031   18.0000 C   0  0  0  0  0  0
    7.1132   56.4640   18.6801 C   0  0  0  0  0  0
    7.2968   55.2936   17.9196 C   0  0  0  0  0  0
    6.8894   56.3719   20.1778 C   0  0  0  0  0  0
    6.3045   57.2628   20.7902 O   0  0  0  0  0  0
    7.4084   55.2967   20.8056 N   0  0  0  0  0  0
    7.1048   55.0644   22.1597 N   0  0  0  0  0  0
    5.9269   54.4967   22.5116 C   0  0  0  0  0  0
    5.1007   54.0549   21.7097 O   0  0  0  0  0  0
    5.7006   54.4465   23.9351 C   0  0  0  0  0  0
    6.6166   54.5667   24.9805 C   0  0  0  0  0  0
    6.0391   54.3849   26.2410 C   0  0  0  0  0  0
    4.6759   54.0966   26.1949 C   0  0  0  0  0  0
    4.1082   54.0968   24.5456 S   0  0  0  0  0  0
    3.7841   53.7703   27.3035 C   0  0  0  0  0  0
    2.4851   53.6965   27.1826 N   0  0  0  0  0  0
    1.8913   53.3018   28.3392 C   0  0  0  0  0  0
    0.5105   53.1295   28.5133 C   0  0  0  0  0  0
    0.0460   52.7234   29.7653 C   0  0  0  0  0  0
    0.9228   52.4964   30.8243 C   0  0  0  0  0  0
    2.3022   52.6296   30.6675 C   0  0  0  0  0  0
    2.7789   53.0511   29.4188 C   0  0  0  0  0  0
    4.4227   53.3571   28.8817 S   0  0  0  0  0  0
    6.9260   58.8969   18.6547 O   0  0  0  0  0  0
    7.5962   54.4432   15.9705 H   0  0  0  0  0  0
    7.5538   56.6268   14.8109 H   0  0  0  0  0  0
    7.2242   58.7009   16.0978 H   0  0  0  0  0  0
    7.2990   54.3161   18.3814 H   0  0  0  0  0  0
    7.6835   54.4540   20.3251 H   0  0  0  0  0  0
    7.7786   55.4605   22.8009 H   0  0  0  0  0  0
    7.6678   54.7625   24.8378 H   0  0  0  0  0  0
    6.6035   54.4307   27.1615 H   0  0  0  0  0  0
   -0.1762   53.2968   27.6975 H   0  0  0  0  0  0
   -1.0113   52.5707   29.9214 H   0  0  0  0  0  0
    0.5154   52.1832   31.7779 H   0  0  0  0  0  0
    2.9743   52.4352   31.4912 H   0  0  0  0  0  0
    6.7021   59.6422   18.0813 H   0  0  0  0  0  0
  1  6  2  0  0  0
  1  2  1  0  0  0
  1 28  1  0  0  0
  2  3  2  0  0  0
  2 29  1  0  0  0
  3  4  1  0  0  0
  3 30  1  0  0  0
  4  5  2  0  0  0
  4 27  1  0  0  0
  5  6  1  0  0  0
  5  7  1  0  0  0
  6 31  1  0  0  0
  7  8  2  0  0  0
  7  9  1  0  0  0
  9 10  1  0  0  0
  9 32  1  0  0  0
 10 11  1  0  0  0
 10 33  1  0  0  0
 11 12  2  0  0  0
 11 13  1  0  0  0
 13 17  1  0  0  0
 13 14  2  0  0  0
 14 15  1  0  0  0
 14 34  1  0  0  0
 15 16  2  0  0  0
 15 35  1  0  0  0
 16 17  1  0  0  0
 16 18  1  0  0  0
 18 26  1  0  0  0
 18 19  2  0  0  0
 19 20  1  0  0  0
 20 25  2  0  0  0
 20 21  1  0  0  0
 21 22  2  0  0  0
 21 36  1  0  0  0
 22 23  1  0  0  0
 22 37  1  0  0  0
 23 24  2  0  0  0
 23 38  1  0  0  0
 24 25  1  0  0  0
 24 39  1  0  0  0
 25 26  1  0  0  0
 27 40  1  0  0  0
M  END
> <i_i_glide_confnum>
8

> <i_i_glide_lignum>
3912

> <i_i_glide_posenum>
148

> <i_i_glide_rotatable_bonds>
7

> <i_m_Source_File_Index>
4392

> <b_m_subgroup_collapsed>
0

> <r_i_docking_score>
-6.55851

> <r_i_glide_ecoul>
-7.22247

> <r_i_glide_eff_state_penalty>
0

> <r_i_glide_einternal>
3.18292

> <r_i_glide_emodel>
-70.9813

> <r_i_glide_energy>
-49.8716

> <r_i_glide_erotb>
0.750261

> <r_i_glide_esite>
-0.00820867

> <r_i_glide_evdw>
-42.6491

> <r_i_glide_gscore>
-6.55851

> <r_i_glide_hbond>
-0.500681

> <r_i_glide_ligand_efficiency>
-0.242908

> <r_i_glide_ligand_efficiency_ln>
-1.52671

> <r_i_glide_ligand_efficiency_sa>
-0.728723

> <r_i_glide_lipo>
-2.44742

> <r_i_glide_metal>
0

> <r_i_glide_rewards>
-1.13663

> <s_i_glide_gridfile>
wee1_glide-grid

> <s_m_Source_File>
wee1_decoys_glide_SP.sdf

> <s_m_Source_Path>
/Users/zhangxujun/Desktop

> <s_m_entry_id>
4667

> <s_m_entry_name>
wee1_decoys_glide_SP.4392

> <s_m_subgroup_title>
wee1_decoys_glide_SP

> <s_m_subgroupid>
wee1_decoys_glide_SP


$$$$
