@<TRIPOS>MOLECULE
ZINC63205566_1110
75   79    1
SMALL
USER_CHARGES


@<TRIPOS>ATOM
      1 C1          7.0547   54.0571   26.1410 C.3       1 UNK         0.0000 
      2 O2          6.7184   55.1425   25.2830 O.3       1 UNK         0.0000 
      3 C3          6.1143   54.7980   24.0927 C.ar      1 UNK         0.0000 
      4 C4          6.7194   55.2048   22.9059 C.ar      1 UNK         0.0000 
      5 C5          6.1607   54.8976   21.6666 C.ar      1 UNK         0.0000 
      6 C6          4.9515   54.1916   21.5775 C.ar      1 UNK         0.0000 
      7 C7          4.3270   53.8266   22.7831 C.ar      1 UNK         0.0000 
      8 C8          4.8935   54.1077   24.0256 C.ar      1 UNK         0.0000 
      9 O9          4.2209   53.6966   25.1494 O.3       1 UNK         0.0000 
     10 C10         3.6642   54.7475   25.9215 C.3       1 UNK         0.0000 
     11 C11         4.2424   53.9054   20.2448 C.3       1 UNK         0.0000 
     12 H12         3.3483   54.5145   20.2713 H         1 UNK         0.0000 
     13 C13         3.6573   52.4561   20.1269 C.2       1 UNK         0.0000 
     14 O14         4.0131   51.5676   20.9068 O.2       1 UNK         0.0000 
     15 N15         2.7988   52.2406   19.1156 N.am      1 UNK         0.0000 
     16 C16         2.2456   50.9339   18.7520 C.3       1 UNK         0.0000 
     17 C17         1.3089   50.2783   19.8039 C.3       1 UNK         0.0000 
     18 C18         0.7575   48.9082   19.3605 C.3       1 UNK         0.0000 
     19 C19         0.1041   48.9727   17.9704 C.3       1 UNK         0.0000 
     20 C20         1.0829   49.5266   16.9229 C.3       1 UNK         0.0000 
     21 C21         1.6598   50.8995   17.3220 C.3       1 UNK         0.0000 
     22 N22         5.0102   54.3636   19.0281 N.am      1 UNK         0.0000 
     23 C23         4.8734   55.7864   18.6772 C.3       1 UNK         0.0000 
     24 C24         3.8135   56.0568   17.6331 C.2       1 UNK         0.0000 
     25 C25         2.9266   55.2811   16.8944 C.2       1 UNK         0.0000 
     26 C26         2.2005   56.1567   16.0849 C.2       1 UNK         0.0000 
     27 C27         2.6865   57.4254   16.3492 C.2       1 UNK         0.0000 
     28 O28         3.6687   57.3603   17.2813 O.3       1 UNK         0.0000 
     29 C29         5.9649   53.6098   18.4150 C.2       1 UNK         0.0000 
     30 O30         6.3044   52.5353   18.8820 O.2       1 UNK         0.0000 
     31 C31         6.6104   54.0227   17.0768 C.3       1 UNK         0.0000 
     32 C32         8.1275   53.9057   17.1285 C.2       1 UNK         0.0000 
     33 C33         8.9519   52.9509   16.6561 C.2       1 UNK         0.0000 
     34 C34         8.6586   51.6768   15.9788 C.2       1 UNK         0.0000 
     35 C35         9.6543   50.8571   15.5867 C.2       1 UNK         0.0000 
     36 C36        11.0245   51.2733   15.8525 C.2       1 UNK         0.0000 
     37 C37        11.3137   52.4436   16.4821 C.2       1 UNK         0.0000 
     38 C38        10.2841   53.2982   16.8994 C.2       1 UNK         0.0000 
     39 N39        10.3529   54.4434   17.5370 N.pl3     1 UNK         0.0000 
     40 C40         8.9973   54.9766   17.7616 C.3       1 UNK         0.0000 
     41 H41         7.7813   54.3897   26.8834 H         1 UNK         0.0000 
     42 H42         6.1921   53.6890   26.6956 H         1 UNK         0.0000 
     43 H43         7.4752   53.2200   25.5815 H         1 UNK         0.0000 
     44 H44         7.6393   55.7661   22.9535 H         1 UNK         0.0000 
     45 H45         6.6771   55.2322   20.7806 H         1 UNK         0.0000 
     46 H46         3.3763   53.3133   22.7666 H         1 UNK         0.0000 
     47 H47         2.9509   54.3431   26.6407 H         1 UNK         0.0000 
     48 H48         4.4254   55.2985   26.4750 H         1 UNK         0.0000 
     49 H49         3.1410   55.4457   25.2747 H         1 UNK         0.0000 
     50 H50         2.5067   53.0295   18.5601 H         1 UNK         0.0000 
     51 H51         3.1036   50.2584   18.6996 H         1 UNK         0.0000 
     52 H52         1.8260   50.1543   20.7564 H         1 UNK         0.0000 
     53 H53         0.4659   50.9452   19.9890 H         1 UNK         0.0000 
     54 H54         1.5751   48.1856   19.3398 H         1 UNK         0.0000 
     55 H55         0.0434   48.5305   20.0954 H         1 UNK         0.0000 
     56 H56        -0.2346   47.9796   17.6756 H         1 UNK         0.0000 
     57 H57        -0.7854   49.6028   18.0106 H         1 UNK         0.0000 
     58 H58         1.9046   48.8221   16.7889 H         1 UNK         0.0000 
     59 H59         0.5921   49.5974   15.9517 H         1 UNK         0.0000 
     60 H60         0.8591   51.6361   17.2499 H         1 UNK         0.0000 
     61 H61         2.4271   51.1846   16.5999 H         1 UNK         0.0000 
     62 H62         4.7045   56.3472   19.5866 H         1 UNK         0.0000 
     63 H63         5.8250   56.1844   18.3249 H         1 UNK         0.0000 
     64 H64         2.8178   54.2076   16.9409 H         1 UNK         0.0000 
     65 H65         1.4182   55.8993   15.3855 H         1 UNK         0.0000 
     66 H66         2.4487   58.4139   15.9789 H         1 UNK         0.0000 
     67 H67         6.3289   55.0064   16.7072 H         1 UNK         0.0000 
     68 H68         6.2417   53.3165   16.3329 H         1 UNK         0.0000 
     69 H69         7.6414   51.3574   15.7982 H         1 UNK         0.0000 
     70 H70         9.4463   49.9126   15.1010 H         1 UNK         0.0000 
     71 H71        11.8353   50.6263   15.5446 H         1 UNK         0.0000 
     72 H72        12.3499   52.6938   16.6579 H         1 UNK         0.0000 
     73 H73         8.8530   55.0820   18.8407 H         1 UNK         0.0000 
     74 H74         8.9269   55.9517   17.2744 H         1 UNK         0.0000 
     75 H75        11.2068   54.8985   17.8546 H         1 UNK         0.0000 
@<TRIPOS>BOND
     1    1    2 1    
     2    1   41 1    
     3    1   42 1    
     4    1   43 1    
     5    2    3 1    
     6    3    8 ar   
     7    3    4 ar   
     8    4    5 ar   
     9    4   44 1    
    10    5    6 ar   
    11    5   45 1    
    12    6    7 ar   
    13    6   11 1    
    14    7    8 ar   
    15    7   46 1    
    16    8    9 1    
    17    9   10 1    
    18   10   47 1    
    19   10   48 1    
    20   10   49 1    
    21   11   12 1    
    22   11   13 1    
    23   11   22 1    
    24   13   14 2    
    25   13   15 am   BACKBONE|DICT|INTERRES
    26   15   16 1    
    27   15   50 1    
    28   16   21 1    
    29   16   17 1    
    30   16   51 1    
    31   17   18 1    
    32   17   52 1    
    33   17   53 1    
    34   18   19 1    
    35   18   54 1    
    36   18   55 1    
    37   19   20 1    
    38   19   56 1    
    39   19   57 1    
    40   20   21 1    
    41   20   58 1    
    42   20   59 1    
    43   21   60 1    
    44   21   61 1    
    45   22   23 1    
    46   22   29 am   BACKBONE|DICT|INTERRES
    47   23   24 1    
    48   23   62 1    
    49   23   63 1    
    50   24   28 1    
    51   24   25 2    
    52   25   26 1    
    53   25   64 1    
    54   26   27 2    
    55   26   65 1    
    56   27   28 1    
    57   27   66 1    
    58   29   30 2    
    59   29   31 1    
    60   31   32 1    
    61   31   67 1    
    62   31   68 1    
    63   32   40 1    
    64   32   33 2    
    65   33   38 1    
    66   33   34 1    
    67   34   35 2    
    68   34   69 1    
    69   35   36 1    
    70   35   70 1    
    71   36   37 2    
    72   36   71 1    
    73   37   38 1    
    74   37   72 1    
    75   38   39 2    
    76   39   40 1    
    77   39   75 1    
    78   40   73 1    
    79   40   74 1    
@<TRIPOS>SUBSTRUCTURE
     1 UNK         1 GROUP             0       ****    0 ROOT    
