@<TRIPOS>MOLECULE
ZINC49152305_4450
35   35    1
SMALL
USER_CHARGES


@<TRIPOS>ATOM
      1 C1          8.7848   56.5786   19.2324 C.3       1 UNK         0.0000 
      2 C2          7.4142   55.9892   19.6048 C.3       1 UNK         0.0000 
      3 C3          6.8451   56.6313   20.8803 C.3       1 UNK         0.0000 
      4 C4          6.4200   56.0729   18.4176 C.3       1 UNK         0.0000 
      5 N5          5.1362   55.4025   18.6524 N.am      1 UNK         0.0000 
      6 C6          5.0050   54.0777   18.8159 C.2       1 UNK         0.0000 
      7 O7          5.9448   53.2942   18.6908 O.2       1 UNK         0.0000 
      8 N8          3.7441   53.7217   19.1074 N.am      1 UNK         0.0000 
      9 N9          3.3066   52.4108   19.0183 N.pl3     1 UNK         0.0000 
     10 S10         3.4925   51.4479   20.4866 S.o2      1 UNK         0.0000 
     11 O11         2.8270   50.1640   20.2383 O.2       1 UNK         0.0000 
     12 O12         4.8995   51.4616   20.8889 O.2       1 UNK         0.0000 
     13 C13         2.5329   52.2905   21.7529 C.ar      1 UNK         0.0000 
     14 C14         1.1886   51.9177   21.8837 C.ar      1 UNK         0.0000 
     15 C15         0.3844   52.4960   22.8624 C.ar      1 UNK         0.0000 
     16 C16         0.9208   53.4481   23.7222 C.ar      1 UNK         0.0000 
     17 C17         2.2487   53.8452   23.5889 C.ar      1 UNK         0.0000 
     18 C18         3.0609   53.2820   22.6059 C.ar      1 UNK         0.0000 
     19 Br19        4.8600   53.9133   22.5192 Br        1 UNK         0.0000 
     20 Br20       -1.4488   52.0077   23.0066 Br        1 UNK         0.0000 
     21 H21         8.7121   57.6292   18.9527 H         1 UNK         0.0000 
     22 H22         9.2211   56.0475   18.3858 H         1 UNK         0.0000 
     23 H23         9.4924   56.4971   20.0598 H         1 UNK         0.0000 
     24 H24         7.5929   54.9374   19.8323 H         1 UNK         0.0000 
     25 H25         6.6607   57.6956   20.7381 H         1 UNK         0.0000 
     26 H26         5.8977   56.1798   21.1682 H         1 UNK         0.0000 
     27 H27         7.5301   56.4961   21.7178 H         1 UNK         0.0000 
     28 H28         6.2105   57.1198   18.1918 H         1 UNK         0.0000 
     29 H29         6.8759   55.6694   17.5109 H         1 UNK         0.0000 
     30 H30         4.3136   55.9850   18.6672 H         1 UNK         0.0000 
     31 H31         2.9963   54.4031   19.1124 H         1 UNK         0.0000 
     32 H32         3.7198   51.9557   18.1960 H         1 UNK         0.0000 
     33 H33         0.7602   51.1729   21.2281 H         1 UNK         0.0000 
     34 H34         0.3018   53.8879   24.4816 H         1 UNK         0.0000 
     35 H35         2.6503   54.5955   24.2538 H         1 UNK         0.0000 
@<TRIPOS>BOND
     1    1    2 1    
     2    1   21 1    
     3    1   22 1    
     4    1   23 1    
     5    2    3 1    
     6    2    4 1    
     7    2   24 1    
     8    3   25 1    
     9    3   26 1    
    10    3   27 1    
    11    4    5 1    
    12    4   28 1    
    13    4   29 1    
    14    5    6 am   BACKBONE|DICT|INTERRES
    15    5   30 1    
    16    6    7 2    
    17    6    8 am   BACKBONE|DICT|INTERRES
    18    8    9 1    
    19    8   31 1    
    20    9   10 1    
    21    9   32 1    
    22   10   11 2    
    23   10   12 2    
    24   10   13 1    
    25   13   18 ar   
    26   13   14 ar   
    27   14   15 ar   
    28   14   33 1    
    29   15   16 ar   
    30   15   20 1    
    31   16   17 ar   
    32   16   34 1    
    33   17   18 ar   
    34   17   35 1    
    35   18   19 1    
@<TRIPOS>SUBSTRUCTURE
     1 UNK         1 GROUP             0       ****    0 ROOT    
