ZINC43407931_4688
                    3D
 Schrodinger Suite 2024-2.
 35 37  0  0  1  0            999 V2000
    5.3536   53.6998   27.4705 C   0  0  0  0  0  0
    6.2163   54.1699   26.4821 C   0  0  0  0  0  0
    5.6842   54.7251   25.3200 C   0  0  0  0  0  0
    4.3131   54.8349   25.1510 C   0  0  0  0  0  0
    3.4609   54.3768   26.1402 C   0  0  0  0  0  0
    3.9692   53.7725   27.2951 C   0  0  0  0  0  0
    3.1809   53.2721   28.3155 O   0  0  0  0  0  0
    1.9043   52.7277   28.1929 C   0  0  0  0  0  0
    1.1922   52.3619   29.3614 C   0  0  0  0  0  0
   -0.1077   51.8418   29.1741 C   0  0  0  0  0  0
   -0.6429   51.6966   27.8964 C   0  0  0  0  0  0
    0.1406   52.0622   26.8148 C   0  0  0  0  0  0
    1.3940   52.5436   26.9411 N   0  0  0  0  0  0
   -0.6142   51.9158   25.5159 C   0  0  0  0  0  0
   -1.8454   51.0993   25.9220 C   0  0  0  0  0  0
   -2.0260   51.2970   27.4313 C   0  0  0  0  0  0
    1.7763   52.4433   30.7372 C   0  0  0  0  0  0
    1.1462   52.6827   31.8158 N   0  0  0  0  0  0
   -0.0956   53.2967   31.6817 O   0  0  0  0  0  0
    3.1063   52.0968   30.7462 N   0  0  0  0  0  0
    6.7044   55.2898   24.0610 Cl  0  0  0  0  0  0
    5.7605   53.2567   28.3673 H   0  0  0  0  0  0
    7.2846   54.0906   26.6146 H   0  0  0  0  0  0
    3.9073   55.2806   24.2549 H   0  0  0  0  0  0
    2.4027   54.4964   25.9841 H   0  0  0  0  0  0
   -0.7047   51.5310   30.0208 H   0  0  0  0  0  0
   -0.0384   51.4035   24.7449 H   0  0  0  0  0  0
   -0.9037   52.8914   25.1249 H   0  0  0  0  0  0
   -1.6543   50.0413   25.7294 H   0  0  0  0  0  0
   -2.7367   51.3684   25.3535 H   0  0  0  0  0  0
   -2.7421   52.0964   27.6212 H   0  0  0  0  0  0
   -2.4187   50.4035   27.9154 H   0  0  0  0  0  0
   -0.6302   52.8128   32.3444 H   0  0  0  0  0  0
    3.6064   52.0969   31.6227 H   0  0  0  0  0  0
    3.6211   52.1283   29.8761 H   0  0  0  0  0  0
  1  6  2  0  0  0
  1  2  1  0  0  0
  1 22  1  0  0  0
  2  3  2  0  0  0
  2 23  1  0  0  0
  3  4  1  0  0  0
  3 21  1  0  0  0
  4  5  2  0  0  0
  4 24  1  0  0  0
  5  6  1  0  0  0
  5 25  1  0  0  0
  6  7  1  0  0  0
  7  8  1  0  0  0
  8 13  2  0  0  0
  8  9  1  0  0  0
  9 10  2  0  0  0
  9 17  1  0  0  0
 10 11  1  0  0  0
 10 26  1  0  0  0
 11 16  1  0  0  0
 11 12  2  0  0  0
 12 13  1  0  0  0
 12 14  1  0  0  0
 14 15  1  0  0  0
 14 27  1  0  0  0
 14 28  1  0  0  0
 15 16  1  0  0  0
 15 29  1  0  0  0
 15 30  1  0  0  0
 16 31  1  0  0  0
 16 32  1  0  0  0
 17 18  2  0  0  0
 17 20  1  0  0  0
 18 19  1  0  0  0
 19 33  1  0  0  0
 20 34  1  0  0  0
 20 35  1  0  0  0
M  END
> <i_i_glide_confnum>
14

> <i_i_glide_lignum>
4689

> <i_i_glide_posenum>
312

> <i_i_glide_rotatable_bonds>
4

> <i_m_Source_File_Index>
3428

> <b_m_subgroup_collapsed>
0

> <r_i_docking_score>
-5.74779

> <r_i_glide_ecoul>
-5.98425

> <r_i_glide_eff_state_penalty>
0

> <r_i_glide_einternal>
5.75617

> <r_i_glide_emodel>
-51.7824

> <r_i_glide_energy>
-39.3233

> <r_i_glide_erotb>
0.799124

> <r_i_glide_esite>
-0.212562

> <r_i_glide_evdw>
-33.339

> <r_i_glide_gscore>
-5.74779

> <r_i_glide_hbond>
-0.16

> <r_i_glide_ligand_efficiency>
-0.273704

> <r_i_glide_ligand_efficiency_ln>
-1.42113

> <r_i_glide_ligand_efficiency_sa>
-0.755129

> <r_i_glide_lipo>
-2.14665

> <r_i_glide_metal>
0

> <r_i_glide_rewards>
-1.46311

> <s_i_glide_gridfile>
wee1_glide-grid

> <s_m_Source_File>
wee1_decoys_glide_SP.sdf

> <s_m_Source_Path>
/Users/zhangxujun/Desktop

> <s_m_entry_id>
3703

> <s_m_entry_name>
wee1_decoys_glide_SP.3428

> <s_m_subgroup_title>
wee1_decoys_glide_SP

> <s_m_subgroupid>
wee1_decoys_glide_SP


$$$$
