@<TRIPOS>MOLECULE
ZINC02347377_3908
55   59    1
SMALL
USER_CHARGES


@<TRIPOS>ATOM
      1 C1          2.1649   54.9207   29.2860 C.3       1 UNK         0.0000 
      2 C2          3.4297   54.5953   28.5161 C.ar      1 UNK         0.0000 
      3 C3          4.6316   54.3904   29.1926 C.ar      1 UNK         0.0000 
      4 C4          5.7863   54.0655   28.4815 C.ar      1 UNK         0.0000 
      5 C5          5.7489   53.9654   27.0942 C.ar      1 UNK         0.0000 
      6 C6          4.5641   54.2350   26.3932 C.ar      1 UNK         0.0000 
      7 C7          3.3965   54.4964   27.1240 C.ar      1 UNK         0.0000 
      8 N8          4.5431   54.1841   24.9662 N.pl3     1 UNK         0.0000 
      9 C9          5.5308   54.6685   24.0982 C.ar      1 UNK         0.0000 
     10 C10         5.1877   54.4464   22.7557 C.ar      1 UNK         0.0000 
     11 C11         3.9072   53.7918   22.8198 C.ar      1 UNK         0.0000 
     12 C12         3.5092   53.6970   24.1760 C.ar      1 UNK         0.0000 
     13 N13         2.3396   53.1631   24.5527 N.ar      1 UNK         0.0000 
     14 C14         1.5137   52.6820   23.5861 C.ar      1 UNK         0.0000 
     15 C15         0.2698   52.0993   23.9304 C.ar      1 UNK         0.0000 
     16 C16        -0.5584   51.5962   22.9285 C.ar      1 UNK         0.0000 
     17 C17        -0.1782   51.6628   21.5896 C.ar      1 UNK         0.0000 
     18 C18         1.0423   52.2290   21.2220 C.ar      1 UNK         0.0000 
     19 C19         1.9038   52.7498   22.2161 C.ar      1 UNK         0.0000 
     20 N20         3.0950   53.3114   21.8695 N.ar      1 UNK         0.0000 
     21 C21         5.9936   54.8437   21.6138 C.2       1 UNK         0.0000 
     22 O22         7.0579   55.4526   21.7394 O.2       1 UNK         0.0000 
     23 N23         5.5044   54.4391   20.4277 N.am      1 UNK         0.0000 
     24 C24         6.1840   54.5132   19.1294 C.3       1 UNK         0.0000 
     25 H25         7.0481   53.8464   19.2043 H         1 UNK         0.0000 
     26 C26         5.2912   53.9096   18.0314 C.3       1 UNK         0.0000 
     27 C27         6.7085   55.9051   18.7548 C.ar      1 UNK         0.0000 
     28 C28         5.8168   56.9290   18.4150 C.ar      1 UNK         0.0000 
     29 C29         6.3032   58.1802   18.0464 C.ar      1 UNK         0.0000 
     30 C30         7.6762   58.4100   18.0179 C.ar      1 UNK         0.0000 
     31 C31         8.5715   57.3953   18.3553 C.ar      1 UNK         0.0000 
     32 C32         8.0874   56.1431   18.7229 C.ar      1 UNK         0.0000 
     33 N33         6.6475   55.2977   24.5939 N.pl3     1 UNK         0.0000 
     34 H34         2.1101   54.3293   30.2032 H         1 UNK         0.0000 
     35 H35         2.1393   55.9806   29.5535 H         1 UNK         0.0000 
     36 H36         1.2669   54.6780   28.7059 H         1 UNK         0.0000 
     37 H37         4.6742   54.4785   30.2683 H         1 UNK         0.0000 
     38 H38         6.7162   53.8911   29.0056 H         1 UNK         0.0000 
     39 H39         6.6533   53.6766   26.5780 H         1 UNK         0.0000 
     40 H40         2.4583   54.6548   26.6190 H         1 UNK         0.0000 
     41 H41        -0.0224   52.0372   24.9693 H         1 UNK         0.0000 
     42 H42        -1.4981   51.1397   23.1943 H         1 UNK         0.0000 
     43 H43        -0.8299   51.2584   20.8282 H         1 UNK         0.0000 
     44 H44         1.3361   52.2747   20.1827 H         1 UNK         0.0000 
     45 H45         4.6664   53.8764   20.4473 H         1 UNK         0.0000 
     46 H46         5.8119   53.8772   17.0735 H         1 UNK         0.0000 
     47 H47         5.0057   52.8857   18.2733 H         1 UNK         0.0000 
     48 H48         4.3716   54.4797   17.8925 H         1 UNK         0.0000 
     49 H49         4.7496   56.7585   18.4382 H         1 UNK         0.0000 
     50 H50         5.6195   58.9746   17.7802 H         1 UNK         0.0000 
     51 H51         8.0412   59.3845   17.7279 H         1 UNK         0.0000 
     52 H52         9.6341   57.5789   18.3338 H         1 UNK         0.0000 
     53 H53         8.7886   55.3630   18.9877 H         1 UNK         0.0000 
     54 H54         7.3930   55.5835   23.9668 H         1 UNK         0.0000 
     55 H55         6.7064   55.5727   25.5617 H         1 UNK         0.0000 
@<TRIPOS>BOND
     1    1    2 1    
     2    1   34 1    
     3    1   35 1    
     4    1   36 1    
     5    2    7 ar   
     6    2    3 ar   
     7    3    4 ar   
     8    3   37 1    
     9    4    5 ar   
    10    4   38 1    
    11    5    6 ar   
    12    5   39 1    
    13    6    7 ar   
    14    6    8 1    
    15    7   40 1    
    16    8   12 ar   
    17    8    9 ar   
    18    9   10 ar   
    19    9   33 1    
    20   10   11 ar   
    21   10   21 1    
    22   11   20 ar   
    23   11   12 ar   
    24   12   13 ar   
    25   13   14 ar   
    26   14   19 ar   
    27   14   15 ar   
    28   15   16 ar   
    29   15   41 1    
    30   16   17 ar   
    31   16   42 1    
    32   17   18 ar   
    33   17   43 1    
    34   18   19 ar   
    35   18   44 1    
    36   19   20 ar   
    37   21   22 2    
    38   21   23 am   BACKBONE|DICT|INTERRES
    39   23   24 1    
    40   23   45 1    
    41   24   25 1    
    42   24   26 1    
    43   24   27 1    
    44   26   46 1    
    45   26   47 1    
    46   26   48 1    
    47   27   32 ar   
    48   27   28 ar   
    49   28   29 ar   
    50   28   49 1    
    51   29   30 ar   
    52   29   50 1    
    53   30   31 ar   
    54   30   51 1    
    55   31   32 ar   
    56   31   52 1    
    57   32   53 1    
    58   33   54 1    
    59   33   55 1    
@<TRIPOS>SUBSTRUCTURE
     1 UNK         1 GROUP             0       ****    0 ROOT    
