ZINC02788758_2691
                    3D
 Schrodinger Suite 2024-2.
 52 57  0  0  1  0            999 V2000
   -3.1969   50.2116   22.7243 C   0  0  0  0  0  0
   -2.9444   49.7153   24.0031 C   0  0  0  0  0  0
   -1.9556   50.3049   24.7852 C   0  0  0  0  0  0
   -1.2128   51.3891   24.2961 C   0  0  0  0  0  0
   -1.4911   51.8824   23.0153 C   0  0  0  0  0  0
   -2.4737   51.2928   22.2287 C   0  0  0  0  0  0
   -0.1384   52.0178   25.1364 C   0  0  0  0  0  0
    1.0203   52.7159   24.7226 C   0  0  0  0  0  0
    1.6585   53.0142   25.9104 C   0  0  0  0  0  0
    0.9232   52.4970   26.9462 N   0  0  0  0  0  0
   -0.1718   51.8944   26.4543 N   0  0  0  0  0  0
    1.1745   52.5087   28.3379 C   0  0  0  0  0  0
    0.0990   52.5078   29.2344 C   0  0  0  0  0  0
    0.3329   52.5010   30.6017 C   0  0  0  0  0  0
    1.6400   52.4965   31.0791 C   0  0  0  0  0  0
    2.7200   52.4970   30.1996 C   0  0  0  0  0  0
    2.4878   52.4991   28.8251 C   0  0  0  0  0  0
    2.8539   53.6679   26.0811 O   0  0  0  0  0  0
    3.4980   53.9598   24.9181 C   0  0  0  0  0  0
    3.0574   53.6960   23.6606 C   0  0  0  0  0  0
    1.6907   53.0334   23.3794 C   0  0  1  0  0  0
    1.0913   53.7844   22.8618 H   0  0  0  0  0  0
    1.7583   51.8284   22.4328 C   0  0  0  0  0  0
    1.9050   50.5162   22.8958 C   0  0  0  0  0  0
    1.9274   49.4500   22.0620 N   0  0  0  0  0  0
    1.7918   49.7000   20.7292 C   0  0  0  0  0  0
    1.7970   48.6255   19.8123 C   0  0  0  0  0  0
    1.6509   48.8771   18.4517 C   0  0  0  0  0  0
    1.5063   50.1809   17.9792 C   0  0  0  0  0  0
    1.4962   51.2631   18.8595 C   0  0  0  0  0  0
    1.6377   51.0381   20.2468 C   0  0  0  0  0  0
    1.6253   52.0948   21.1070 N   0  0  0  0  0  0
    3.8859   54.0320   22.5475 C   0  0  0  0  0  0
    4.6033   54.3041   21.6818 N   0  0  0  0  0  0
    4.6980   54.5209   25.2544 N   0  0  0  0  0  0
   -3.9606   49.7529   22.1146 H   0  0  0  0  0  0
   -3.5098   48.8772   24.3829 H   0  0  0  0  0  0
   -1.7652   49.9023   25.7732 H   0  0  0  0  0  0
   -0.9441   52.7237   22.6199 H   0  0  0  0  0  0
   -2.6727   51.6703   21.2355 H   0  0  0  0  0  0
   -0.9219   52.4964   28.8810 H   0  0  0  0  0  0
   -0.5038   52.4801   31.2820 H   0  0  0  0  0  0
    1.8121   52.4902   32.1458 H   0  0  0  0  0  0
    3.7325   52.4953   30.5775 H   0  0  0  0  0  0
    3.3350   52.4810   28.1532 H   0  0  0  0  0  0
    2.0011   50.2953   23.9507 H   0  0  0  0  0  0
    1.9340   47.6169   20.1725 H   0  0  0  0  0  0
    1.6809   48.0615   17.7451 H   0  0  0  0  0  0
    1.4254   50.3520   16.9164 H   0  0  0  0  0  0
    1.3964   52.2739   18.4917 H   0  0  0  0  0  0
    5.3321   54.8257   24.5324 H   0  0  0  0  0  0
    5.0862   54.3573   26.1730 H   0  0  0  0  0  0
  1  6  2  0  0  0
  1  2  1  0  0  0
  1 36  1  0  0  0
  2  3  2  0  0  0
  2 37  1  0  0  0
  3  4  1  0  0  0
  3 38  1  0  0  0
  4  5  2  0  0  0
  4  7  1  0  0  0
  5  6  1  0  0  0
  5 39  1  0  0  0
  6 40  1  0  0  0
  7 11  2  0  0  0
  7  8  1  0  0  0
  8 21  1  0  0  0
  8  9  2  0  0  0
  9 10  1  0  0  0
  9 18  1  0  0  0
 10 11  1  0  0  0
 10 12  1  0  0  0
 12 17  2  0  0  0
 12 13  1  0  0  0
 13 14  2  0  0  0
 13 41  1  0  0  0
 14 15  1  0  0  0
 14 42  1  0  0  0
 15 16  2  0  0  0
 15 43  1  0  0  0
 16 17  1  0  0  0
 16 44  1  0  0  0
 17 45  1  0  0  0
 18 19  1  0  0  0
 19 20  2  0  0  0
 19 35  1  0  0  0
 20 21  1  0  0  0
 20 33  1  0  0  0
 21 22  1  0  0  0
 21 23  1  0  0  0
 23 32  2  0  0  0
 23 24  1  0  0  0
 24 25  2  0  0  0
 24 46  1  0  0  0
 25 26  1  0  0  0
 26 31  2  0  0  0
 26 27  1  0  0  0
 27 28  2  0  0  0
 27 47  1  0  0  0
 28 29  1  0  0  0
 28 48  1  0  0  0
 29 30  2  0  0  0
 29 49  1  0  0  0
 30 31  1  0  0  0
 30 50  1  0  0  0
 31 32  1  0  0  0
 33 34  3  0  0  0
 35 51  1  0  0  0
 35 52  1  0  0  0
M  END
> <i_i_glide_confnum>
15

> <i_i_glide_lignum>
2692

> <i_i_glide_posenum>
270

> <i_i_glide_rotatable_bonds>
4

> <i_m_Source_File_Index>
5493

> <b_m_subgroup_collapsed>
0

> <r_i_docking_score>
-4.33192

> <r_i_glide_ecoul>
-0.00640726

> <r_i_glide_eff_state_penalty>
0

> <r_i_glide_einternal>
2.13516

> <r_i_glide_emodel>
-55.2581

> <r_i_glide_energy>
-44.4403

> <r_i_glide_erotb>
0.306214

> <r_i_glide_esite>
0

> <r_i_glide_evdw>
-44.4339

> <r_i_glide_gscore>
-4.33192

> <r_i_glide_hbond>
0

> <r_i_glide_ligand_efficiency>
-0.127409

> <r_i_glide_ligand_efficiency_ln>
-0.957042

> <r_i_glide_ligand_efficiency_sa>
-0.412757

> <r_i_glide_lipo>
-1.65757

> <r_i_glide_metal>
0

> <r_i_glide_rewards>
-0.757905

> <s_i_glide_gridfile>
wee1_glide-grid

> <s_m_Source_File>
wee1_decoys_glide_SP.sdf

> <s_m_Source_Path>
/Users/zhangxujun/Desktop

> <s_m_entry_id>
5768

> <s_m_entry_name>
wee1_decoys_glide_SP.5493

> <s_m_subgroup_title>
wee1_decoys_glide_SP

> <s_m_subgroupid>
wee1_decoys_glide_SP


$$$$
