ZINC56933984_1387
                    3D
 Schrodinger Suite 2024-2.
 48 51  0  0  1  0            999 V2000
    3.0992   54.0985   24.4221 C   0  0  0  0  0  0
    4.4963   54.2425   25.0177 C   0  0  0  0  0  0
    4.9853   54.2168   26.3442 C   0  0  0  0  0  0
    6.2808   54.4927   26.3277 N   0  0  0  0  0  0
    6.7036   54.6196   25.0225 N   0  0  0  0  0  0
    5.6305   54.4429   24.2437 N   0  0  0  0  0  0
    5.7663   54.4965   22.8591 C   0  0  0  0  0  0
    4.8963   53.9926   22.0135 N   0  0  0  0  0  0
    5.2086   54.2252   20.7523 C   0  0  0  0  0  0
    6.3771   54.9625   20.5447 C   0  0  0  0  0  0
    7.1043   55.2970   22.0821 S   0  0  0  0  0  0
    6.9958   55.2882   19.1961 C   0  0  0  0  0  0
    5.9522   55.0194   18.0875 C   0  0  0  0  0  0
    5.1840   53.6966   18.3047 C   0  0  0  0  0  0
    4.3457   53.7184   19.6043 C   0  0  0  0  0  0
    4.2284   54.0297   27.5694 C   0  0  0  0  0  0
    4.6164   54.4968   28.6417 O   0  0  0  0  0  0
    3.1083   53.2975   27.3989 N   0  0  0  0  0  0
    2.1071   52.9321   28.3163 C   0  0  0  0  0  0
    2.1962   53.0889   29.7082 C   0  0  0  0  0  0
    1.1463   52.6758   30.5305 C   0  0  0  0  0  0
    0.0056   52.0978   29.9760 C   0  0  0  0  0  0
   -0.0974   51.9360   28.5915 C   0  0  0  0  0  0
    0.9589   52.3510   27.7694 C   0  0  0  0  0  0
   -1.2397   51.2970   28.0850 N   0  0  0  0  0  0
   -1.8864   51.5823   26.9383 C   0  0  0  0  0  0
   -1.5894   52.4957   26.1688 O   0  0  0  0  0  0
   -3.0916   50.7046   26.6250 C   0  0  0  0  0  0
    2.3004   54.2526   25.1456 H   0  0  0  0  0  0
    2.9181   54.8401   23.6427 H   0  0  0  0  0  0
    2.9501   53.1164   23.9728 H   0  0  0  0  0  0
    7.3424   56.3221   19.1479 H   0  0  0  0  0  0
    7.8648   54.6494   19.0294 H   0  0  0  0  0  0
    5.2393   55.8445   18.0502 H   0  0  0  0  0  0
    6.4461   55.0077   17.1153 H   0  0  0  0  0  0
    4.5302   53.4974   17.4532 H   0  0  0  0  0  0
    5.8909   52.8647   18.3366 H   0  0  0  0  0  0
    3.9340   52.7275   19.8048 H   0  0  0  0  0  0
    3.5036   54.3926   19.4672 H   0  0  0  0  0  0
    2.9425   52.9907   26.4526 H   0  0  0  0  0  0
    3.0725   53.5129   30.1701 H   0  0  0  0  0  0
    1.2170   52.7904   31.6031 H   0  0  0  0  0  0
   -0.7901   51.7627   30.6302 H   0  0  0  0  0  0
    0.8927   52.2046   26.7014 H   0  0  0  0  0  0
   -1.6191   50.5458   28.6477 H   0  0  0  0  0  0
   -2.8827   49.6584   26.8600 H   0  0  0  0  0  0
   -3.3548   50.7716   25.5648 H   0  0  0  0  0  0
   -3.9538   51.0235   27.2163 H   0  0  0  0  0  0
  1  2  1  0  0  0
  1 29  1  0  0  0
  1 30  1  0  0  0
  1 31  1  0  0  0
  2  6  1  0  0  0
  2  3  2  0  0  0
  3  4  1  0  0  0
  3 16  1  0  0  0
  4  5  2  0  0  0
  5  6  1  0  0  0
  6  7  1  0  0  0
  7 11  1  0  0  0
  7  8  2  0  0  0
  8  9  1  0  0  0
  9 15  1  0  0  0
  9 10  2  0  0  0
 10 11  1  0  0  0
 10 12  1  0  0  0
 12 13  1  0  0  0
 12 32  1  0  0  0
 12 33  1  0  0  0
 13 14  1  0  0  0
 13 34  1  0  0  0
 13 35  1  0  0  0
 14 15  1  0  0  0
 14 36  1  0  0  0
 14 37  1  0  0  0
 15 38  1  0  0  0
 15 39  1  0  0  0
 16 17  2  0  0  0
 16 18  1  0  0  0
 18 19  1  0  0  0
 18 40  1  0  0  0
 19 24  2  0  0  0
 19 20  1  0  0  0
 20 21  2  0  0  0
 20 41  1  0  0  0
 21 22  1  0  0  0
 21 42  1  0  0  0
 22 23  2  0  0  0
 22 43  1  0  0  0
 23 24  1  0  0  0
 23 25  1  0  0  0
 24 44  1  0  0  0
 25 26  1  0  0  0
 25 45  1  0  0  0
 26 27  2  0  0  0
 26 28  1  0  0  0
 28 46  1  0  0  0
 28 47  1  0  0  0
 28 48  1  0  0  0
M  END
> <i_i_glide_confnum>
103

> <i_i_glide_lignum>
1388

> <i_i_glide_posenum>
264

> <i_i_glide_rotatable_bonds>
6

> <i_m_Source_File_Index>
1536

> <b_m_subgroup_collapsed>
0

> <r_i_docking_score>
-5.89166

> <r_i_glide_ecoul>
-4.39291

> <r_i_glide_eff_state_penalty>
0

> <r_i_glide_einternal>
9.28952

> <r_i_glide_emodel>
-68.3311

> <r_i_glide_energy>
-53.5758

> <r_i_glide_erotb>
0.622355

> <r_i_glide_esite>
-0.153058

> <r_i_glide_evdw>
-49.1829

> <r_i_glide_gscore>
-5.89166

> <r_i_glide_hbond>
-0.0636423

> <r_i_glide_ligand_efficiency>
-0.210417

> <r_i_glide_ligand_efficiency_ln>
-1.35997

> <r_i_glide_ligand_efficiency_sa>
-0.638949

> <r_i_glide_lipo>
-1.58006

> <r_i_glide_metal>
0

> <r_i_glide_rewards>
-1.59918

> <s_i_glide_gridfile>
wee1_glide-grid

> <s_m_Source_File>
wee1_decoys_glide_SP.sdf

> <s_m_Source_Path>
/Users/zhangxujun/Desktop

> <s_m_entry_id>
1811

> <s_m_entry_name>
wee1_decoys_glide_SP.1536

> <s_m_subgroup_title>
wee1_decoys_glide_SP

> <s_m_subgroupid>
wee1_decoys_glide_SP


$$$$
