@<TRIPOS>MOLECULE
ZINC36329125_5660
47   49    1
SMALL
USER_CHARGES


@<TRIPOS>ATOM
      1 C1         -1.9291   51.5211   28.3966 C.3       1 UNK         0.0000 
      2 C2         -0.4637   51.7852   28.7245 C.ar      1 UNK         0.0000 
      3 C3         -0.1360   52.1869   30.0253 C.ar      1 UNK         0.0000 
      4 C4          1.1763   52.4967   30.3707 C.ar      1 UNK         0.0000 
      5 C5          2.1898   52.3900   29.4176 C.ar      1 UNK         0.0000 
      6 C6          1.8733   51.9924   28.1200 C.ar      1 UNK         0.0000 
      7 C7          0.5591   51.6777   27.7573 C.ar      1 UNK         0.0000 
      8 C8          0.3044   51.2765   26.3291 C.2       1 UNK         0.0000 
      9 O9          0.6544   52.0333   25.4226 O.2       1 UNK         0.0000 
     10 N10        -0.2603   50.0602   26.1648 N.am      1 UNK         0.0000 
     11 C11        -0.5626   49.3738   24.9720 C.ar      1 UNK         0.0000 
     12 C12        -0.1233   49.7617   23.6972 C.ar      1 UNK         0.0000 
     13 C13        -0.4949   49.0235   22.5778 C.ar      1 UNK         0.0000 
     14 C14        -1.2961   47.8906   22.7038 C.ar      1 UNK         0.0000 
     15 C15        -1.7115   47.4867   23.9813 C.ar      1 UNK         0.0000 
     16 C16        -1.3435   48.2243   25.1046 C.ar      1 UNK         0.0000 
     17 O17        -1.6125   47.2389   21.5264 O.3       1 UNK         0.0000 
     18 C18        -2.5564   46.1704   21.5148 C.3       1 UNK         0.0000 
     19 F19        -2.7464   45.8210   20.2440 F         1 UNK         0.0000 
     20 F20        -3.7381   46.5431   22.0095 F         1 UNK         0.0000 
     21 F21        -2.0956   45.0973   22.1594 F         1 UNK         0.0000 
     22 S22         3.8872   52.7888   29.8293 S.o2      1 UNK         0.0000 
     23 O23         3.9044   52.8967   31.2817 O.2       1 UNK         0.0000 
     24 O24         4.6821   51.6967   29.2817 O.2       1 UNK         0.0000 
     25 N25         4.0193   54.1637   29.0970 N.2       1 UNK         0.0000 
     26 C26         4.5254   54.1987   27.8231 C.ar      1 UNK         0.0000 
     27 C27         3.6555   54.4967   26.7677 C.ar      1 UNK         0.0000 
     28 C28         4.1102   54.6016   25.4541 C.ar      1 UNK         0.0000 
     29 C29         5.4627   54.4346   25.1735 C.ar      1 UNK         0.0000 
     30 C30         6.3480   54.1342   26.2050 C.ar      1 UNK         0.0000 
     31 C31         5.8877   54.0071   27.5168 C.ar      1 UNK         0.0000 
     32 F32         6.7856   53.6967   28.4817 F         1 UNK         0.0000 
     33 H33        -2.5864   51.6967   29.2465 H         1 UNK         0.0000 
     34 H34        -2.2550   52.1402   27.5626 H         1 UNK         0.0000 
     35 H35        -2.0821   50.4967   28.0851 H         1 UNK         0.0000 
     36 H36        -0.8956   52.2615   30.7890 H         1 UNK         0.0000 
     37 H37         1.3966   52.8056   31.3826 H         1 UNK         0.0000 
     38 H38         2.6686   51.9348   27.3906 H         1 UNK         0.0000 
     39 H39        -0.5289   49.5686   27.0127 H         1 UNK         0.0000 
     40 H40         0.5069   50.6226   23.5438 H         1 UNK         0.0000 
     41 H41        -0.1565   49.3338   21.6001 H         1 UNK         0.0000 
     42 H42        -2.3232   46.6110   24.1255 H         1 UNK         0.0000 
     43 H43        -1.6746   47.8994   26.0817 H         1 UNK         0.0000 
     44 H44         2.6052   54.6475   26.9705 H         1 UNK         0.0000 
     45 H45         3.4150   54.8264   24.6584 H         1 UNK         0.0000 
     46 H46         5.8218   54.5247   24.1587 H         1 UNK         0.0000 
     47 H47         7.3944   53.9920   25.9881 H         1 UNK         0.0000 
@<TRIPOS>BOND
     1    1    2 1    
     2    1   33 1    
     3    1   34 1    
     4    1   35 1    
     5    2    7 ar   
     6    2    3 ar   
     7    3    4 ar   
     8    3   36 1    
     9    4    5 ar   
    10    4   37 1    
    11    5    6 ar   
    12    5   22 1    
    13    6    7 ar   
    14    6   38 1    
    15    7    8 1    
    16    8    9 2    
    17    8   10 am   BACKBONE|DICT|INTERRES
    18   10   11 1    
    19   10   39 1    
    20   11   16 ar   
    21   11   12 ar   
    22   12   13 ar   
    23   12   40 1    
    24   13   14 ar   
    25   13   41 1    
    26   14   15 ar   
    27   14   17 1    
    28   15   16 ar   
    29   15   42 1    
    30   16   43 1    
    31   17   18 1    
    32   18   19 1    
    33   18   20 1    
    34   18   21 1    
    35   22   23 2    
    36   22   24 2    
    37   22   25 1    
    38   25   26 1    
    39   26   31 ar   
    40   26   27 ar   
    41   27   28 ar   
    42   27   44 1    
    43   28   29 ar   
    44   28   45 1    
    45   29   30 ar   
    46   29   46 1    
    47   30   31 ar   
    48   30   47 1    
    49   31   32 1    
@<TRIPOS>SUBSTRUCTURE
     1 UNK         1 GROUP             0       ****    0 ROOT    
