@<TRIPOS>MOLECULE
ZINC63480288_4099
61   67    1
SMALL
USER_CHARGES


@<TRIPOS>ATOM
      1 C1         -2.4885   50.9091   27.7506 C.3       1 UNK         0.0000 
      2 C2         -2.4535   51.1111   26.2450 C.ar      1 UNK         0.0000 
      3 C3         -2.9029   52.3165   25.6925 C.ar      1 UNK         0.0000 
      4 C4         -2.9229   52.4965   24.3054 C.ar      1 UNK         0.0000 
      5 C5         -2.4904   51.4727   23.4589 C.ar      1 UNK         0.0000 
      6 C6         -2.0130   50.2756   24.0022 C.ar      1 UNK         0.0000 
      7 C7         -2.0073   50.1081   25.3758 C.ar      1 UNK         0.0000 
      8 N8         -1.5441   48.8395   25.6787 N.am      1 UNK         0.0000 
      9 C9         -1.2595   48.0975   24.5928 C.2       1 UNK         0.0000 
     10 O10        -0.8883   46.9231   24.5913 O.2       1 UNK         0.0000 
     11 C11        -1.4766   49.0183   23.3526 C.3       1 UNK         0.0000 
     12 C12        -2.4043   48.4517   22.2172 C.3       1 UNK         0.0000 
     13 H13        -3.4280   48.8134   22.3428 H         1 UNK         0.0000 
     14 C14        -1.8042   48.9762   20.9427 C.3       1 UNK         0.0000 
     15 H15        -2.4472   49.7672   20.5556 H         1 UNK         0.0000 
     16 C16        -0.3704   49.4536   21.2928 C.3       1 UNK         0.0000 
     17 H17         0.3676   48.8196   20.7898 H         1 UNK         0.0000 
     18 N18        -0.1717   49.1839   22.7078 N.3       1 UNK         0.0000 
     19 C19        -0.0735   50.9067   20.8576 C.3       1 UNK         0.0000 
     20 C20         1.3965   51.2270   20.6553 C.2       1 UNK         0.0000 
     21 C21         2.2136   52.0767   21.3077 C.2       1 UNK         0.0000 
     22 C22         1.9718   52.9476   22.4702 C.2       1 UNK         0.0000 
     23 C23         2.9504   53.7432   22.9498 C.2       1 UNK         0.0000 
     24 C24         4.2468   53.7096   22.2828 C.2       1 UNK         0.0000 
     25 C25         4.4880   52.9091   21.2103 C.2       1 UNK         0.0000 
     26 C26         3.4769   52.0825   20.7041 C.2       1 UNK         0.0000 
     27 N27         3.5047   51.2579   19.6829 N.pl3     1 UNK         0.0000 
     28 C28         2.1976   50.6053   19.5263 C.3       1 UNK         0.0000 
     29 C29        -1.7550   47.7817   20.0050 C.2       1 UNK         0.0000 
     30 O30        -1.4342   47.8629   18.8188 O.2       1 UNK         0.0000 
     31 N31        -2.1348   46.6728   20.6917 N.am      1 UNK         0.0000 
     32 C32        -2.5149   46.9368   21.9721 C.2       1 UNK         0.0000 
     33 O33        -2.9624   46.1259   22.7882 O.2       1 UNK         0.0000 
     34 C34        -2.1509   45.3831   20.1134 C.ar      1 UNK         0.0000 
     35 C35        -0.9811   44.8619   19.5421 C.ar      1 UNK         0.0000 
     36 C36        -1.0051   43.6213   18.9146 C.ar      1 UNK         0.0000 
     37 C37        -2.1954   42.8991   18.8629 C.ar      1 UNK         0.0000 
     38 C38        -3.3574   43.3952   19.4496 C.ar      1 UNK         0.0000 
     39 C39        -3.3366   44.6375   20.0776 C.ar      1 UNK         0.0000 
     40 H40        -2.9685   51.7292   28.2831 H         1 UNK         0.0000 
     41 H41        -3.0556   50.0076   27.9877 H         1 UNK         0.0000 
     42 H42        -1.4784   50.7676   28.1379 H         1 UNK         0.0000 
     43 H43        -3.2552   53.1099   26.3357 H         1 UNK         0.0000 
     44 H44        -3.2872   53.4249   23.8882 H         1 UNK         0.0000 
     45 H45        -2.5431   51.6163   22.3905 H         1 UNK         0.0000 
     46 H46        -1.4467   48.4986   26.6401 H         1 UNK         0.0000 
     47 H47         0.3649   49.9102   23.1597 H         1 UNK         0.0000 
     48 H48        -0.4986   51.6191   21.5596 H         1 UNK         0.0000 
     49 H49        -0.5587   51.1033   19.9009 H         1 UNK         0.0000 
     50 H50         1.0135   52.9708   22.9747 H         1 UNK         0.0000 
     51 H51         2.7803   54.3817   23.8067 H         1 UNK         0.0000 
     52 H52         5.0397   54.3462   22.6532 H         1 UNK         0.0000 
     53 H53         5.4653   52.9294   20.7491 H         1 UNK         0.0000 
     54 H54         1.8263   50.8418   18.5288 H         1 UNK         0.0000 
     55 H55         2.3521   49.5278   19.6184 H         1 UNK         0.0000 
     56 H56        -0.0589   45.4243   19.5738 H         1 UNK         0.0000 
     57 H57        -0.1067   43.2344   18.4569 H         1 UNK         0.0000 
     58 H58        -2.2141   41.9427   18.3613 H         1 UNK         0.0000 
     59 H59        -4.2744   42.8297   19.4072 H         1 UNK         0.0000 
     60 H60        -4.2440   45.0286   20.5142 H         1 UNK         0.0000 
     61 H61         4.3165   51.0575   19.0702 H         1 UNK         0.0000 
@<TRIPOS>BOND
     1    1    2 1    
     2    1   40 1    
     3    1   41 1    
     4    1   42 1    
     5    2    7 ar   
     6    2    3 ar   
     7    3    4 ar   
     8    3   43 1    
     9    4    5 ar   
    10    4   44 1    
    11    5    6 ar   
    12    5   45 1    
    13    6   11 1    
    14    6    7 ar   
    15    7    8 1    
    16    8    9 am   BACKBONE|DICT|INTERRES
    17    8   46 1    
    18    9   10 2    
    19    9   11 1    
    20   11   18 1    
    21   11   12 1    
    22   12   13 1    
    23   12   32 1    
    24   12   14 1    
    25   14   15 1    
    26   14   16 1    
    27   14   29 1    
    28   16   17 1    
    29   16   18 1    
    30   16   19 1    
    31   18   47 1    
    32   19   20 1    
    33   19   48 1    
    34   19   49 1    
    35   20   28 1    
    36   20   21 2    
    37   21   26 1    
    38   21   22 1    
    39   22   23 2    
    40   22   50 1    
    41   23   24 1    
    42   23   51 1    
    43   24   25 2    
    44   24   52 1    
    45   25   26 1    
    46   25   53 1    
    47   26   27 2    
    48   27   28 1    
    49   27   61 1    
    50   28   54 1    
    51   28   55 1    
    52   29   30 2    
    53   29   31 am   BACKBONE|DICT|INTERRES
    54   31   32 am   BACKBONE|DICT|INTERRES
    55   31   34 1    
    56   32   33 2    
    57   34   39 ar   
    58   34   35 ar   
    59   35   36 ar   
    60   35   56 1    
    61   36   37 ar   
    62   36   57 1    
    63   37   38 ar   
    64   37   58 1    
    65   38   39 ar   
    66   38   59 1    
    67   39   60 1    
@<TRIPOS>SUBSTRUCTURE
     1 UNK         1 GROUP             0       ****    0 ROOT    
