@<TRIPOS>MOLECULE
ZINC08835240_4365
41   44    1
SMALL
USER_CHARGES


@<TRIPOS>ATOM
      1 C1         -0.4489   52.0966   29.9810 C.ar      1 UNK         0.0000 
      2 C2         -0.2790   51.9065   28.6071 C.ar      1 UNK         0.0000 
      3 C3          0.7551   52.6491   28.0274 C.ar      1 UNK         0.0000 
      4 C4          1.5616   53.5189   28.7796 C.ar      1 UNK         0.0000 
      5 N5          1.3896   53.7074   30.0902 N.ar      1 UNK         0.0000 
      6 C6          0.3853   52.9884   30.6706 C.ar      1 UNK         0.0000 
      7 N7          2.5039   54.0827   27.9670 N.2       1 UNK         0.0000 
      8 C8          2.2453   53.5558   26.7837 C.2       1 UNK         0.0000 
      9 O9          1.1885   52.6839   26.7424 O.3       1 UNK         0.0000 
     10 C10         3.0031   53.7759   25.5199 C.ar      1 UNK         0.0000 
     11 C11         4.2970   54.3118   25.5426 C.ar      1 UNK         0.0000 
     12 C12         5.0143   54.4732   24.3580 C.ar      1 UNK         0.0000 
     13 C13         4.4528   54.0968   23.1385 C.ar      1 UNK         0.0000 
     14 C14         3.1543   53.5664   23.1023 C.ar      1 UNK         0.0000 
     15 C15         2.4304   53.4269   24.2921 C.ar      1 UNK         0.0000 
     16 N16         2.5933   53.1947   21.8675 N.pl3     1 UNK         0.0000 
     17 C17         2.0801   52.0040   21.4265 C.2       1 UNK         0.0000 
     18 S18         1.9041   50.6320   22.3924 S.2       1 UNK         0.0000 
     19 N19         1.7556   52.1128   20.0992 N.am      1 UNK         0.0000 
     20 C20         1.3444   51.2194   19.1648 C.2       1 UNK         0.0000 
     21 O21         1.1755   50.0102   19.3408 O.2       1 UNK         0.0000 
     22 C22         1.1272   51.8125   17.7943 C.ar      1 UNK         0.0000 
     23 C23         1.4659   51.0704   16.6558 C.ar      1 UNK         0.0000 
     24 C24         1.2860   51.6056   15.3810 C.ar      1 UNK         0.0000 
     25 C25         0.7469   52.8830   15.2217 C.ar      1 UNK         0.0000 
     26 C26         0.3934   53.6307   16.3511 C.ar      1 UNK         0.0000 
     27 C27         0.5880   53.0982   17.6265 C.ar      1 UNK         0.0000 
     28 Cl28       -0.2833   55.2183   16.2085 Cl        1 UNK         0.0000 
     29 Cl29        0.5255   53.5073   13.6257 Cl        1 UNK         0.0000 
     30 Cl30        5.3878   54.3142   21.6977 Cl        1 UNK         0.0000 
     31 H31        -1.2106   51.5349   30.5008 H         1 UNK         0.0000 
     32 H32        -0.8851   51.2177   28.0370 H         1 UNK         0.0000 
     33 H33         0.2623   53.1246   31.7374 H         1 UNK         0.0000 
     34 H34         4.7574   54.5923   26.4808 H         1 UNK         0.0000 
     35 H35         6.0161   54.8799   24.3886 H         1 UNK         0.0000 
     36 H36         1.4263   53.0279   24.2623 H         1 UNK         0.0000 
     37 H37         2.6424   53.9284   21.1735 H         1 UNK         0.0000 
     38 H38         1.8515   53.0469   19.7302 H         1 UNK         0.0000 
     39 H39         1.8861   50.0796   16.7506 H         1 UNK         0.0000 
     40 H40         1.5685   51.0227   14.5149 H         1 UNK         0.0000 
     41 H41         0.3059   53.6957   18.4816 H         1 UNK         0.0000 
@<TRIPOS>BOND
     1    1    6 ar   
     2    1    2 ar   
     3    1   31 1    
     4    2    3 ar   
     5    2   32 1    
     6    3    9 1    
     7    3    4 ar   
     8    4    5 ar   
     9    4    7 1    
    10    5    6 ar   
    11    6   33 1    
    12    7    8 2    
    13    8    9 1    
    14    8   10 1    
    15   10   15 ar   
    16   10   11 ar   
    17   11   12 ar   
    18   11   34 1    
    19   12   13 ar   
    20   12   35 1    
    21   13   14 ar   
    22   13   30 1    
    23   14   15 ar   
    24   14   16 1    
    25   15   36 1    
    26   16   17 1    
    27   16   37 1    
    28   17   18 2    
    29   17   19 am   BACKBONE|DICT|INTERRES
    30   19   20 am   BACKBONE|DICT|INTERRES
    31   19   38 1    
    32   20   21 2    
    33   20   22 1    
    34   22   27 ar   
    35   22   23 ar   
    36   23   24 ar   
    37   23   39 1    
    38   24   25 ar   
    39   24   40 1    
    40   25   26 ar   
    41   25   29 1    
    42   26   27 ar   
    43   26   28 1    
    44   27   41 1    
@<TRIPOS>SUBSTRUCTURE
     1 UNK         1 GROUP             0       ****    0 ROOT    
