@<TRIPOS>MOLECULE
ZINC14066034_2484
54   57    1
SMALL
USER_CHARGES


@<TRIPOS>ATOM
      1 C1         -0.8955   51.6967   30.0674 C.ar      1 UNK         0.0000 
      2 C2          0.2326   52.5052   30.0700 C.ar      1 UNK         0.0000 
      3 C3          0.7935   52.9283   28.8609 C.ar      1 UNK         0.0000 
      4 C4          0.1689   52.5474   27.6573 C.ar      1 UNK         0.0000 
      5 C5         -0.9462   51.6967   27.6538 C.ar      1 UNK         0.0000 
      6 C6         -1.4863   51.2969   28.8730 C.ar      1 UNK         0.0000 
      7 N7         -1.5516   51.1662   26.4998 N.am      1 UNK         0.0000 
      8 C8         -1.0694   51.1075   25.2419 C.2       1 UNK         0.0000 
      9 O9          0.0149   51.5766   24.8872 O.2       1 UNK         0.0000 
     10 C10        -1.9658   50.3396   24.2431 C.3       1 UNK         0.0000 
     11 N11        -1.3621   50.2805   22.8929 N.am      1 UNK         0.0000 
     12 C12        -1.3025   51.3464   22.0395 C.2       1 UNK         0.0000 
     13 O13        -1.6961   52.4966   22.2294 O.2       1 UNK         0.0000 
     14 C14        -0.7341   50.8058   20.7393 C.3       1 UNK         0.0000 
     15 H15        -1.5988   50.5545   20.1194 H         1 UNK         0.0000 
     16 C16         0.1558   51.6933   19.8331 C.3       1 UNK         0.0000 
     17 C17         0.9058   50.8017   18.8331 C.2       1 UNK         0.0000 
     18 C18         0.9483   49.4493   18.8977 C.2       1 UNK         0.0000 
     19 C19         0.3231   48.6222   20.0285 C.3       1 UNK         0.0000 
     20 C20        -0.0121   49.5776   21.1957 C.3       1 UNK         0.0000 
     21 H21         0.9714   49.8182   21.6128 H         1 UNK         0.0000 
     22 C22        -0.8299   49.1319   22.3904 C.2       1 UNK         0.0000 
     23 O23        -0.8956   47.9902   22.8444 O.2       1 UNK         0.0000 
     24 C24         2.0934   53.6951   28.8727 C.2       1 UNK         0.0000 
     25 O25         2.5111   54.2291   29.9044 O.2       1 UNK         0.0000 
     26 N26         2.7619   53.6628   27.7034 N.am      1 UNK         0.0000 
     27 C27         4.1044   53.9395   27.4504 C.ar      1 UNK         0.0000 
     28 C28         5.0991   53.9079   28.4362 C.ar      1 UNK         0.0000 
     29 C29         6.4290   54.0967   28.0819 C.ar      1 UNK         0.0000 
     30 C30         6.7660   54.3369   26.7532 C.ar      1 UNK         0.0000 
     31 C31         5.7878   54.3593   25.7553 C.ar      1 UNK         0.0000 
     32 C32         4.4525   54.1564   26.1159 C.ar      1 UNK         0.0000 
     33 C33         6.1890   54.5830   24.3001 C.3       1 UNK         0.0000 
     34 F34         7.1115   53.6967   23.9348 F         1 UNK         0.0000 
     35 F35         5.1573   54.4745   23.4614 F         1 UNK         0.0000 
     36 F36         6.7044   55.8015   24.1788 F         1 UNK         0.0000 
     37 H37        -1.3025   51.3239   30.9918 H         1 UNK         0.0000 
     38 H38         0.6806   52.7631   31.0202 H         1 UNK         0.0000 
     39 H39         0.5707   52.8926   26.7203 H         1 UNK         0.0000 
     40 H40        -2.3316   50.6219   28.9114 H         1 UNK         0.0000 
     41 H41        -2.3903   50.6364   26.6831 H         1 UNK         0.0000 
     42 H42        -2.9641   50.7759   24.1924 H         1 UNK         0.0000 
     43 H43        -2.1004   49.3315   24.6403 H         1 UNK         0.0000 
     44 H44         0.9168   52.2005   20.4294 H         1 UNK         0.0000 
     45 H45        -0.4238   52.4796   19.3481 H         1 UNK         0.0000 
     46 H46         1.4222   51.2755   18.0090 H         1 UNK         0.0000 
     47 H47         1.4947   48.9321   18.1200 H         1 UNK         0.0000 
     48 H48        -0.5797   48.1460   19.6436 H         1 UNK         0.0000 
     49 H49         0.9802   47.8175   20.3604 H         1 UNK         0.0000 
     50 H50         2.2577   53.2905   26.9145 H         1 UNK         0.0000 
     51 H51         4.8621   53.7112   29.4693 H         1 UNK         0.0000 
     52 H52         7.1958   54.0777   28.8433 H         1 UNK         0.0000 
     53 H53         7.8015   54.4966   26.5032 H         1 UNK         0.0000 
     54 H54         3.6843   54.1552   25.3550 H         1 UNK         0.0000 
@<TRIPOS>BOND
     1    1    6 ar   
     2    1    2 ar   
     3    1   37 1    
     4    2    3 ar   
     5    2   38 1    
     6    3    4 ar   
     7    3   24 1    
     8    4    5 ar   
     9    4   39 1    
    10    5    6 ar   
    11    5    7 1    
    12    6   40 1    
    13    7    8 am   BACKBONE|DICT|INTERRES
    14    7   41 1    
    15    8    9 2    
    16    8   10 1    
    17   10   11 1    
    18   10   42 1    
    19   10   43 1    
    20   11   22 am   BACKBONE|DICT|INTERRES
    21   11   12 am   BACKBONE|DICT|INTERRES
    22   12   13 2    
    23   12   14 1    
    24   14   15 1    
    25   14   20 1    
    26   14   16 1    
    27   16   17 1    
    28   16   44 1    
    29   16   45 1    
    30   17   18 2    
    31   17   46 1    
    32   18   19 1    
    33   18   47 1    
    34   19   20 1    
    35   19   48 1    
    36   19   49 1    
    37   20   21 1    
    38   20   22 1    
    39   22   23 2    
    40   24   25 2    
    41   24   26 am   BACKBONE|DICT|INTERRES
    42   26   27 1    
    43   26   50 1    
    44   27   32 ar   
    45   27   28 ar   
    46   28   29 ar   
    47   28   51 1    
    48   29   30 ar   
    49   29   52 1    
    50   30   31 ar   
    51   30   53 1    
    52   31   32 ar   
    53   31   33 1    
    54   32   54 1    
    55   33   34 1    
    56   33   35 1    
    57   33   36 1    
@<TRIPOS>SUBSTRUCTURE
     1 UNK         1 GROUP             0       ****    0 ROOT    
