@<TRIPOS>MOLECULE
ZINC39469600_777
59   63    1
SMALL
USER_CHARGES


@<TRIPOS>ATOM
      1 C1          1.1015   51.9938   27.7973 C.ar      1 UNK         0.0000 
      2 C2          1.9052   52.9134   27.1266 C.ar      1 UNK         0.0000 
      3 C3          1.7092   53.1400   25.7653 C.ar      1 UNK         0.0000 
      4 C4          0.7115   52.4433   25.0782 C.ar      1 UNK         0.0000 
      5 C5         -0.0959   51.5282   25.7616 C.ar      1 UNK         0.0000 
      6 C6          0.1039   51.2986   27.1205 C.ar      1 UNK         0.0000 
      7 C7          0.4828   52.7008   23.5930 C.3       1 UNK         0.0000 
      8 C8          1.3037   51.7869   22.6854 C.2       1 UNK         0.0000 
      9 C9          2.5065   52.1994   22.2261 C.2       1 UNK         0.0000 
     10 C10         3.3603   51.3528   21.2814 C.3       1 UNK         0.0000 
     11 H11         3.8942   50.6894   21.9598 H         1 UNK         0.0000 
     12 C12         4.4444   52.1263   20.5138 C.3       1 UNK         0.0000 
     13 C13         3.8612   52.9393   19.3385 C.3       1 UNK         0.0000 
     14 H14         3.0998   53.6337   19.6967 H         1 UNK         0.0000 
     15 C15         4.9337   53.7225   18.5521 C.3       1 UNK         0.0000 
     16 O16         4.3062   54.5358   17.5766 O.3       1 UNK         0.0000 
     17 P17         3.5046   53.8341   16.3418 P.3       1 UNK         0.0000 
     18 O18         4.3698   53.4289   15.2010 O.2       1 UNK         0.0000 
     19 N19         2.6395   52.6114   17.1434 N.pl3     1 UNK         0.0000 
     20 N20         3.1043   51.9766   18.3811 N.4       1 UNK         0.0000 
     21 C21         1.9638   51.2339   19.1021 C.3       1 UNK         0.0000 
     22 C22         2.4707   50.4681   20.3480 C.3       1 UNK         0.0000 
     23 H23         3.0883   49.6327   20.0091 H         1 UNK         0.0000 
     24 C24         1.2919   49.8965   21.1324 C.2       1 UNK         0.0000 
     25 C25         0.7641   50.5078   22.2135 C.2       1 UNK         0.0000 
     26 O26        -0.2755   49.9163   22.8569 O.3       1 UNK         0.0000 
     27 S27         1.9816   55.4007   15.6854 S.3       1 UNK         0.0000 
     28 O28         1.2693   54.8780   14.5131 O.2       1 UNK         0.0000 
     29 O29         1.2638   55.8569   16.8822 O.2       1 UNK         0.0000 
     30 O30         3.0262   56.6008   15.1907 O.3       1 UNK         0.0000 
     31 C31         2.4667   57.7853   14.7985 C.ar      1 UNK         0.0000 
     32 C32         2.4583   58.8653   15.6807 C.ar      1 UNK         0.0000 
     33 C33         1.9044   60.0787   15.2814 C.ar      1 UNK         0.0000 
     34 C34         1.3659   60.2054   14.0029 C.ar      1 UNK         0.0000 
     35 C35         1.3743   59.1283   13.1171 C.ar      1 UNK         0.0000 
     36 C36         1.9297   57.9148   13.5161 C.ar      1 UNK         0.0000 
     37 H37         1.2535   51.8136   28.8511 H         1 UNK         0.0000 
     38 H38         2.6763   53.4478   27.6596 H         1 UNK         0.0000 
     39 H39         2.3337   53.8534   25.2484 H         1 UNK         0.0000 
     40 H40        -0.8737   50.9857   25.2448 H         1 UNK         0.0000 
     41 H41        -0.5096   50.5784   27.6455 H         1 UNK         0.0000 
     42 H42        -0.5772   52.5832   23.3636 H         1 UNK         0.0000 
     43 H43         0.7053   53.7454   23.3694 H         1 UNK         0.0000 
     44 H44         2.8836   53.1588   22.5543 H         1 UNK         0.0000 
     45 H45         5.0190   52.7628   21.1897 H         1 UNK         0.0000 
     46 H46         5.1302   51.3959   20.0816 H         1 UNK         0.0000 
     47 H47         5.4981   54.3736   19.2208 H         1 UNK         0.0000 
     48 H48         5.6554   53.0505   18.0814 H         1 UNK         0.0000 
     49 H49         1.6382   52.5527   16.9409 H         1 UNK         0.0000 
     50 H50         1.2024   51.9773   19.3482 H         1 UNK         0.0000 
     51 H51         1.5432   50.5490   18.3632 H         1 UNK         0.0000 
     52 H52         0.8644   48.9599   20.8020 H         1 UNK         0.0000 
     53 H53        -0.4660   49.0747   22.4419 H         1 UNK         0.0000 
     54 H54         2.8790   58.7671   16.6718 H         1 UNK         0.0000 
     55 H55         1.9076   60.9163   15.9655 H         1 UNK         0.0000 
     56 H56         0.9483   61.1512   13.6942 H         1 UNK         0.0000 
     57 H57         0.9548   59.2339   12.1279 H         1 UNK         0.0000 
     58 H58         1.9443   57.0719   12.8406 H         1 UNK         0.0000 
     59 H59         3.7656   51.2710   18.0770 H         1 UNK         0.0000 
@<TRIPOS>BOND
     1    1    6 ar   
     2    1    2 ar   
     3    1   37 1    
     4    2    3 ar   
     5    2   38 1    
     6    3    4 ar   
     7    3   39 1    
     8    4    5 ar   
     9    4    7 1    
    10    5    6 ar   
    11    5   40 1    
    12    6   41 1    
    13    7    8 1    
    14    7   42 1    
    15    7   43 1    
    16    8   25 1    
    17    8    9 2    
    18    9   10 1    
    19    9   44 1    
    20   10   11 1    
    21   10   22 1    
    22   10   12 1    
    23   12   13 1    
    24   12   45 1    
    25   12   46 1    
    26   13   14 1    
    27   13   20 1    
    28   13   15 1    
    29   15   16 1    
    30   15   47 1    
    31   15   48 1    
    32   16   17 1    
    33   17   18 2    
    34   17   19 1    
    35   17   27 1    
    36   19   20 1    
    37   19   49 1    
    38   20   21 1    
    39   20   59 1    
    40   21   22 1    
    41   21   50 1    
    42   21   51 1    
    43   22   23 1    
    44   22   24 1    
    45   24   25 2    
    46   24   52 1    
    47   25   26 1    
    48   26   53 1    
    49   27   28 2    
    50   27   29 2    
    51   27   30 1    
    52   30   31 1    
    53   31   36 ar   
    54   31   32 ar   
    55   32   33 ar   
    56   32   54 1    
    57   33   34 ar   
    58   33   55 1    
    59   34   35 ar   
    60   34   56 1    
    61   35   36 ar   
    62   35   57 1    
    63   36   58 1    
@<TRIPOS>SUBSTRUCTURE
     1 UNK         1 GROUP             0       ****    0 ROOT    
