ZINC12561845_4661
                    3D
 Schrodinger Suite 2024-2.
 60 63  0  0  1  0            999 V2000
   -3.3985   52.2430   17.7556 C   0  0  0  0  0  0
   -2.8918   52.0269   19.0695 O   0  0  0  0  0  0
   -1.6228   51.4829   19.2343 C   0  0  0  0  0  0
   -0.7401   51.3175   18.1486 C   0  0  0  0  0  0
    0.5183   50.7558   18.3267 C   0  0  0  0  0  0
    0.9140   50.3423   19.5895 C   0  0  0  0  0  0
    0.0548   50.5059   20.6714 C   0  0  0  0  0  0
   -1.2184   51.0949   20.5365 C   0  0  0  0  0  0
   -2.0937   51.2712   21.5937 N   0  5  0  0  0  0
   -1.7115   51.2120   23.1231 S   0  0  0  0  0  0
   -2.7004   51.9211   23.9401 O   0  0  0  0  0  0
   -0.3009   51.5250   23.3723 O   0  0  0  0  0  0
   -1.9083   49.4485   23.5812 C   0  0  0  0  0  0
   -2.0512   48.4804   22.5692 C   0  0  0  0  0  0
   -2.2024   47.1178   22.8567 C   0  0  0  0  0  0
   -2.2327   46.7276   24.1949 C   0  0  0  0  0  0
   -2.0949   47.6564   25.2122 C   0  0  0  0  0  0
   -1.9169   49.0104   24.9345 C   0  0  0  0  0  0
   -1.7280   49.7941   26.0817 N   0  0  0  0  0  0
   -0.8175   50.8341   26.1030 N   0  0  0  0  0  0
   -0.2491   51.1440   27.1910 C   0  0  0  0  0  0
    0.8595   52.1020   27.1876 C   0  0  0  0  0  0
    1.7515   52.1633   28.2591 C   0  0  0  0  0  0
    2.9340   52.8951   28.1441 C   0  0  0  0  0  0
    3.2510   53.5835   26.9592 C   0  0  0  0  0  0
    2.2802   53.6197   25.9510 C   0  0  0  0  0  0
    1.1082   52.8951   26.0638 C   0  0  0  0  0  0
    4.5304   54.0972   26.7194 N   0  0  0  0  0  0
    4.8293   54.9404   25.5396 C   0  0  0  0  0  0
    6.3112   55.0228   25.1420 C   0  0  0  0  0  0
    7.1044   55.2965   26.2758 O   0  0  0  0  0  0
    6.9746   54.3041   27.2775 C   0  0  0  0  0  0
    5.5275   54.2859   27.7911 C   0  0  0  0  0  0
   -2.3208   46.1110   21.7731 N   0  3  0  0  0  0
   -2.2365   46.4892   20.6091 O   0  0  0  0  0  0
   -2.4942   44.9325   22.0820 O   0  5  0  0  0  0
   -4.4559   52.4961   17.8103 H   0  0  0  0  0  0
   -2.8802   53.0664   17.2627 H   0  0  0  0  0  0
   -3.3208   51.3468   17.1371 H   0  0  0  0  0  0
   -1.0104   51.6235   17.1501 H   0  0  0  0  0  0
    1.1870   50.6349   17.4864 H   0  0  0  0  0  0
    1.8866   49.8936   19.7299 H   0  0  0  0  0  0
    0.4062   50.1415   21.6228 H   0  0  0  0  0  0
   -2.0449   48.7743   21.5313 H   0  0  0  0  0  0
   -2.3494   45.6967   24.4670 H   0  0  0  0  0  0
   -2.0977   47.3052   26.2364 H   0  0  0  0  0  0
   -1.7240   49.2748   26.9695 H   0  0  0  0  0  0
   -0.4936   50.6793   28.1438 H   0  0  0  0  0  0
    1.5779   51.5779   29.1514 H   0  0  0  0  0  0
    3.6233   52.8409   28.9701 H   0  0  0  0  0  0
    2.4187   54.1510   25.0253 H   0  0  0  0  0  0
    0.4230   52.9100   25.2294 H   0  0  0  0  0  0
    4.4161   55.9360   25.6874 H   0  0  0  0  0  0
    4.3465   54.5275   24.6563 H   0  0  0  0  0  0
    6.6228   54.0805   24.6862 H   0  0  0  0  0  0
    6.4680   55.8029   24.3965 H   0  0  0  0  0  0
    7.2333   53.3205   26.8791 H   0  0  0  0  0  0
    7.6792   54.4966   28.0835 H   0  0  0  0  0  0
    5.4898   53.4648   28.5033 H   0  0  0  0  0  0
    5.3027   55.1977   28.3460 H   0  0  0  0  0  0
  1  2  1  0  0  0
  1 37  1  0  0  0
  1 38  1  0  0  0
  1 39  1  0  0  0
  2  3  1  0  0  0
  3  8  2  0  0  0
  3  4  1  0  0  0
  4  5  2  0  0  0
  4 40  1  0  0  0
  5  6  1  0  0  0
  5 41  1  0  0  0
  6  7  2  0  0  0
  6 42  1  0  0  0
  7  8  1  0  0  0
  7 43  1  0  0  0
  8  9  1  0  0  0
  9 10  1  0  0  0
 10 11  2  0  0  0
 10 12  2  0  0  0
 10 13  1  0  0  0
 13 18  2  0  0  0
 13 14  1  0  0  0
 14 15  2  0  0  0
 14 44  1  0  0  0
 15 16  1  0  0  0
 15 34  1  0  0  0
 16 17  2  0  0  0
 16 45  1  0  0  0
 17 18  1  0  0  0
 17 46  1  0  0  0
 18 19  1  0  0  0
 19 20  1  0  0  0
 19 47  1  0  0  0
 20 21  2  0  0  0
 21 22  1  0  0  0
 21 48  1  0  0  0
 22 27  2  0  0  0
 22 23  1  0  0  0
 23 24  2  0  0  0
 23 49  1  0  0  0
 24 25  1  0  0  0
 24 50  1  0  0  0
 25 26  2  0  0  0
 25 28  1  0  0  0
 26 27  1  0  0  0
 26 51  1  0  0  0
 27 52  1  0  0  0
 28 33  1  0  0  0
 28 29  1  0  0  0
 29 30  1  0  0  0
 29 53  1  0  0  0
 29 54  1  0  0  0
 30 31  1  0  0  0
 30 55  1  0  0  0
 30 56  1  0  0  0
 31 32  1  0  0  0
 32 33  1  0  0  0
 32 57  1  0  0  0
 32 58  1  0  0  0
 33 59  1  0  0  0
 33 60  1  0  0  0
 34 35  2  0  0  0
 34 36  1  0  0  0
M  CHG  3   9  -1  34   1  36  -1
M  END
> <i_i_glide_confnum>
190

> <i_i_glide_lignum>
4662

> <i_i_glide_posenum>
379

> <i_i_glide_rotatable_bonds>
9

> <i_m_Source_File_Index>
1980

> <b_m_subgroup_collapsed>
0

> <r_i_docking_score>
-5.11922

> <r_i_glide_ecoul>
-11.118

> <r_i_glide_eff_state_penalty>
0

> <r_i_glide_einternal>
6.10855

> <r_i_glide_emodel>
-54.9224

> <r_i_glide_energy>
-48.0342

> <r_i_glide_erotb>
0.550193

> <r_i_glide_esite>
-0.250993

> <r_i_glide_evdw>
-36.9162

> <r_i_glide_gscore>
-5.11922

> <r_i_glide_hbond>
-0.629277

> <r_i_glide_ligand_efficiency>
-0.142201

> <r_i_glide_ligand_efficiency_ln>
-1.11688

> <r_i_glide_ligand_efficiency_sa>
-0.469536

> <r_i_glide_lipo>
-2.00391

> <r_i_glide_metal>
0

> <r_i_glide_rewards>
0.728278

> <s_i_glide_gridfile>
wee1_glide-grid

> <s_m_Source_File>
wee1_decoys_glide_SP.sdf

> <s_m_Source_Path>
/Users/zhangxujun/Desktop

> <s_m_entry_id>
2255

> <s_m_entry_name>
wee1_decoys_glide_SP.1980

> <s_m_subgroup_title>
wee1_decoys_glide_SP

> <s_m_subgroupid>
wee1_decoys_glide_SP


$$$$
