ZINC65055564_1977
                    3D
 Schrodinger Suite 2024-2.
 46 48  0  0  1  0            999 V2000
    7.1395   54.3551   24.8060 C   0  0  0  0  0  0
    5.6381   54.2148   24.7219 C   0  0  0  0  0  0
    5.0206   54.0983   23.4805 C   0  0  0  0  0  0
    3.6355   53.9852   23.4031 C   0  0  0  0  0  0
    2.8779   53.9986   24.5764 C   0  0  0  0  0  0
    3.4703   54.0963   25.8427 C   0  0  0  0  0  0
    4.8708   54.1866   25.8861 C   0  0  0  0  0  0
    2.6134   54.0971   26.9174 N   0  5  0  0  0  0
    2.9746   54.3671   28.4236 S   0  0  0  0  0  0
    1.8947   55.0896   29.1038 O   0  0  0  0  0  0
    4.3212   54.8869   28.6760 O   0  0  0  0  0  0
    2.9472   52.6071   29.1272 C   0  0  2  0  0  0
    3.2621   51.9565   28.3148 H   0  0  0  0  0  0
    1.6303   52.2661   29.7610 C   0  0  0  0  0  0
    1.9094   52.0968   31.0561 C   0  0  0  0  0  0
    3.2393   52.1742   31.2819 N   0  0  0  0  0  0
    3.8655   52.4640   30.2163 N   0  0  0  0  0  0
    0.3198   52.1015   29.1715 C   0  0  0  0  0  0
   -0.6988   52.0338   29.8578 O   0  0  0  0  0  0
    0.3544   52.0095   27.8260 N   0  0  0  0  0  0
   -0.6840   51.7291   26.9188 C   0  0  0  0  0  0
   -1.9687   51.2963   27.2867 C   0  0  0  0  0  0
   -2.9225   51.0181   26.3095 C   0  0  0  0  0  0
   -2.6028   51.1512   24.9603 C   0  0  0  0  0  0
   -1.3222   51.5608   24.5714 C   0  0  0  0  0  0
   -0.3735   51.8520   25.5605 C   0  0  0  0  0  0
   -0.9684   51.6632   23.0887 C   0  0  0  0  0  0
   -2.0093   52.0980   22.3746 F   0  0  0  0  0  0
   -0.6219   50.4573   22.6410 F   0  0  0  0  0  0
    0.0517   52.4971   22.8830 F   0  0  0  0  0  0
    2.9638   53.8664   22.0509 C   0  0  0  0  0  0
    7.6174   53.6042   24.1763 H   0  0  0  0  0  0
    7.4504   55.3371   24.4483 H   0  0  0  0  0  0
    7.5041   54.2186   25.8246 H   0  0  0  0  0  0
    5.6155   54.1031   22.5784 H   0  0  0  0  0  0
    1.8025   53.9388   24.4987 H   0  0  0  0  0  0
    5.4061   54.2314   26.8161 H   0  0  0  0  0  0
    1.2451   51.8465   31.8736 H   0  0  0  0  0  0
    1.2419   52.2360   27.3986 H   0  0  0  0  0  0
   -2.2432   51.1324   28.3177 H   0  0  0  0  0  0
   -3.9045   50.6743   26.6009 H   0  0  0  0  0  0
   -3.3486   50.9111   24.2159 H   0  0  0  0  0  0
    0.6219   52.1550   25.2687 H   0  0  0  0  0  0
    3.4849   54.4791   21.3137 H   0  0  0  0  0  0
    2.9721   52.8314   21.7081 H   0  0  0  0  0  0
    1.9330   54.2194   22.0824 H   0  0  0  0  0  0
  1  2  1  0  0  0
  1 32  1  0  0  0
  1 33  1  0  0  0
  1 34  1  0  0  0
  2  7  2  0  0  0
  2  3  1  0  0  0
  3  4  2  0  0  0
  3 35  1  0  0  0
  4  5  1  0  0  0
  4 31  1  0  0  0
  5  6  2  0  0  0
  5 36  1  0  0  0
  6  7  1  0  0  0
  6  8  1  0  0  0
  7 37  1  0  0  0
  8  9  1  0  0  0
  9 10  2  0  0  0
  9 11  2  0  0  0
  9 12  1  0  0  0
 12 13  1  0  0  0
 12 17  1  0  0  0
 12 14  1  0  0  0
 14 15  2  0  0  0
 14 18  1  0  0  0
 15 16  1  0  0  0
 15 38  1  0  0  0
 16 17  2  0  0  0
 18 19  2  0  0  0
 18 20  1  0  0  0
 20 21  1  0  0  0
 20 39  1  0  0  0
 21 26  2  0  0  0
 21 22  1  0  0  0
 22 23  2  0  0  0
 22 40  1  0  0  0
 23 24  1  0  0  0
 23 41  1  0  0  0
 24 25  2  0  0  0
 24 42  1  0  0  0
 25 26  1  0  0  0
 25 27  1  0  0  0
 26 43  1  0  0  0
 27 28  1  0  0  0
 27 29  1  0  0  0
 27 30  1  0  0  0
 31 44  1  0  0  0
 31 45  1  0  0  0
 31 46  1  0  0  0
M  CHG  1   8  -1
M  END
> <i_i_glide_confnum>
82

> <i_i_glide_lignum>
1978

> <i_i_glide_posenum>
267

> <i_i_glide_rotatable_bonds>
7

> <i_m_Source_File_Index>
5401

> <b_m_subgroup_collapsed>
0

> <r_i_docking_score>
-5.04309

> <r_i_glide_ecoul>
-4.27142

> <r_i_glide_eff_state_penalty>
0

> <r_i_glide_einternal>
6.16332

> <r_i_glide_emodel>
-60.2853

> <r_i_glide_energy>
-47.5872

> <r_i_glide_erotb>
0.625333

> <r_i_glide_esite>
-0.00666876

> <r_i_glide_evdw>
-43.3158

> <r_i_glide_gscore>
-5.04309

> <r_i_glide_hbond>
0

> <r_i_glide_ligand_efficiency>
-0.168103

> <r_i_glide_ligand_efficiency_ln>
-1.14585

> <r_i_glide_ligand_efficiency_sa>
-0.522335

> <r_i_glide_lipo>
-1.80827

> <r_i_glide_metal>
0

> <r_i_glide_rewards>
-1.04698

> <s_i_glide_gridfile>
wee1_glide-grid

> <s_m_Source_File>
wee1_decoys_glide_SP.sdf

> <s_m_Source_Path>
/Users/zhangxujun/Desktop

> <s_m_entry_id>
5676

> <s_m_entry_name>
wee1_decoys_glide_SP.5401

> <s_m_subgroup_title>
wee1_decoys_glide_SP

> <s_m_subgroupid>
wee1_decoys_glide_SP


$$$$
