@<TRIPOS>MOLECULE
ZINC14018915_421
55   58    1
SMALL
USER_CHARGES


@<TRIPOS>ATOM
      1 C1          2.0301   51.6186   18.3851 C.ar      1 UNK         0.0000 
      2 C2          3.1178   52.4875   18.4042 C.ar      1 UNK         0.0000 
      3 C3          3.5664   53.0066   19.6153 C.ar      1 UNK         0.0000 
      4 C4          2.9098   52.6808   20.8061 C.ar      1 UNK         0.0000 
      5 C5          1.8144   51.8093   20.7754 C.ar      1 UNK         0.0000 
      6 C6          1.3760   51.2764   19.5660 C.ar      1 UNK         0.0000 
      7 C7          3.3854   53.2654   22.0938 C.2       1 UNK         0.0000 
      8 C8          4.6680   53.6226   22.4862 C.2       1 UNK         0.0000 
      9 C9          4.7777   54.0970   23.8175 C.2       1 UNK         0.0000 
     10 C10         3.5170   54.1095   24.4379 C.2       1 UNK         0.0000 
     11 S11         2.2522   53.6568   23.3417 S.3       1 UNK         0.0000 
     12 N12         3.1067   54.4492   25.7182 N.am      1 UNK         0.0000 
     13 C13         3.6414   53.9950   26.8727 C.2       1 UNK         0.0000 
     14 O14         4.6536   53.2969   26.9261 O.2       1 UNK         0.0000 
     15 C15         2.9320   54.4365   28.1854 C.3       1 UNK         0.0000 
     16 H16         3.1400   55.5058   28.2204 H         1 UNK         0.0000 
     17 C17         3.5005   53.7397   29.4535 C.3       1 UNK         0.0000 
     18 C18         3.0590   52.2600   29.6095 C.3       1 UNK         0.0000 
     19 C19         1.5344   52.0577   29.4078 C.3       1 UNK         0.0000 
     20 N20         1.0535   52.7762   28.2060 N.pl3     1 UNK         0.0000 
     21 C21         1.3946   54.2194   28.1504 C.3       1 UNK         0.0000 
     22 S22         0.3372   51.9167   26.8182 S.o2      1 UNK         0.0000 
     23 O23         0.5835   52.7104   25.6138 O.2       1 UNK         0.0000 
     24 O24         0.7046   50.5004   26.8831 O.2       1 UNK         0.0000 
     25 C25        -1.4383   51.9288   27.0438 C.ar      1 UNK         0.0000 
     26 C26        -2.2711   52.4666   26.0567 C.ar      1 UNK         0.0000 
     27 C27        -3.6535   52.3519   26.1778 C.ar      1 UNK         0.0000 
     28 C28        -4.1975   51.6949   27.2801 C.ar      1 UNK         0.0000 
     29 C29        -3.3701   51.1712   28.2718 C.ar      1 UNK         0.0000 
     30 C30        -1.9883   51.2966   28.1581 C.ar      1 UNK         0.0000 
     31 Cl31       -5.9095   51.5478   27.4285 Cl        1 UNK         0.0000 
     32 C32         6.0067   54.6048   24.3848 C.2       1 UNK         0.0000 
     33 O33         6.0531   55.4678   25.2597 O.2       1 UNK         0.0000 
     34 N34         7.1045   54.1009   23.8355 N.am      1 UNK         0.0000 
     35 H35         1.7036   51.1963   17.4460 H         1 UNK         0.0000 
     36 H36         3.6303   52.7314   17.4851 H         1 UNK         0.0000 
     37 H37         4.4152   53.6737   19.6187 H         1 UNK         0.0000 
     38 H38         1.3052   51.5339   21.6869 H         1 UNK         0.0000 
     39 H39         0.5377   50.5965   19.5436 H         1 UNK         0.0000 
     40 H40         5.5063   53.5300   21.8124 H         1 UNK         0.0000 
     41 H41         2.1818   54.8423   25.7791 H         1 UNK         0.0000 
     42 H42         4.5821   53.8736   29.5216 H         1 UNK         0.0000 
     43 H43         3.1814   54.3301   30.3087 H         1 UNK         0.0000 
     44 H44         3.5964   51.6573   28.8782 H         1 UNK         0.0000 
     45 H45         3.3633   51.8805   30.5855 H         1 UNK         0.0000 
     46 H46         1.3086   50.9969   29.2908 H         1 UNK         0.0000 
     47 H47         0.9575   52.4021   30.2669 H         1 UNK         0.0000 
     48 H48         0.9241   54.6780   29.0219 H         1 UNK         0.0000 
     49 H49         0.9526   54.6859   27.2817 H         1 UNK         0.0000 
     50 H50        -1.8548   52.9393   25.1797 H         1 UNK         0.0000 
     51 H51        -4.2989   52.7557   25.4118 H         1 UNK         0.0000 
     52 H52        -3.7883   50.6517   29.1221 H         1 UNK         0.0000 
     53 H53        -1.3490   50.8672   28.9155 H         1 UNK         0.0000 
     54 H54         7.0452   53.2974   23.2334 H         1 UNK         0.0000 
     55 H55         8.0127   54.4970   24.0557 H         1 UNK         0.0000 
@<TRIPOS>BOND
     1    1    6 ar   
     2    1    2 ar   
     3    1   35 1    
     4    2    3 ar   
     5    2   36 1    
     6    3    4 ar   
     7    3   37 1    
     8    4    5 ar   
     9    4    7 1    
    10    5    6 ar   
    11    5   38 1    
    12    6   39 1    
    13    7   11 1    
    14    7    8 2    
    15    8    9 1    
    16    8   40 1    
    17    9   10 2    
    18    9   32 1    
    19   10   11 1    
    20   10   12 am   BACKBONE|DICT|INTERRES
    21   12   13 am   BACKBONE|DICT|INTERRES
    22   12   41 1    
    23   13   14 2    
    24   13   15 1    
    25   15   16 1    
    26   15   21 1    
    27   15   17 1    
    28   17   18 1    
    29   17   42 1    
    30   17   43 1    
    31   18   19 1    
    32   18   44 1    
    33   18   45 1    
    34   19   20 1    
    35   19   46 1    
    36   19   47 1    
    37   20   21 1    
    38   20   22 1    
    39   21   48 1    
    40   21   49 1    
    41   22   23 2    
    42   22   24 2    
    43   22   25 1    
    44   25   30 ar   
    45   25   26 ar   
    46   26   27 ar   
    47   26   50 1    
    48   27   28 ar   
    49   27   51 1    
    50   28   29 ar   
    51   28   31 1    
    52   29   30 ar   
    53   29   52 1    
    54   30   53 1    
    55   32   33 2    
    56   32   34 am   BACKBONE|DICT|INTERRES
    57   34   54 1    
    58   34   55 1    
@<TRIPOS>SUBSTRUCTURE
     1 UNK         1 GROUP             0       ****    0 ROOT    
