@<TRIPOS>MOLECULE
ZINC09679120_5793
55   59    1
SMALL
USER_CHARGES


@<TRIPOS>ATOM
      1 C1         -1.6142   49.5219   17.6758 C.3       1 UNK         0.0000 
      2 C2         -0.4738   50.2818   18.3286 C.ar      1 UNK         0.0000 
      3 C3         -0.7269   51.1607   19.3820 C.ar      1 UNK         0.0000 
      4 C4          0.3248   51.8585   19.9695 C.ar      1 UNK         0.0000 
      5 C5          1.6351   51.6846   19.5140 C.ar      1 UNK         0.0000 
      6 C6          1.8783   50.8059   18.4516 C.ar      1 UNK         0.0000 
      7 C7          0.8289   50.1082   17.8611 C.ar      1 UNK         0.0000 
      8 C8          2.7671   52.4116   20.1701 C.ar      1 UNK         0.0000 
      9 C9          2.8581   52.9090   21.4861 C.ar      1 UNK         0.0000 
     10 C10         4.0919   53.4206   21.6179 C.ar      1 UNK         0.0000 
     11 N11         4.6885   53.2844   20.4002 N.pl3     1 UNK         0.0000 
     12 H12         5.6210   53.5912   20.1653 H         1 UNK         0.0000 
     13 N13         3.8935   52.6636   19.5210 N.2       1 UNK         0.0000 
     14 C14         4.3574   53.9239   22.9182 C.2       1 UNK         0.0000 
     15 O15         5.3881   54.4968   23.2707 O.2       1 UNK         0.0000 
     16 N16         3.2643   53.5438   23.6695 N.am      1 UNK         0.0000 
     17 C17         2.1426   53.1199   22.7720 C.3       1 UNK         0.0000 
     18 H18         1.4575   53.9636   22.6779 H         1 UNK         0.0000 
     19 C19         1.3051   51.9008   23.1951 C.ar      1 UNK         0.0000 
     20 C20         1.7988   50.6001   23.0587 C.ar      1 UNK         0.0000 
     21 C21         1.0081   49.5090   23.4041 C.ar      1 UNK         0.0000 
     22 C22        -0.2764   49.6939   23.9289 C.ar      1 UNK         0.0000 
     23 C23        -0.7894   50.9955   24.0131 C.ar      1 UNK         0.0000 
     24 C24        -0.0145   52.0825   23.6228 C.ar      1 UNK         0.0000 
     25 C25        -1.0702   48.5059   24.3876 C.2       1 UNK         0.0000 
     26 O26        -0.7996   47.3408   24.0818 O.2       1 UNK         0.0000 
     27 O27        -2.0756   48.8441   25.2313 O.3       1 UNK         0.0000 
     28 C28        -2.8535   47.8472   25.8781 C.3       1 UNK         0.0000 
     29 C29         3.1858   53.6959   25.0964 C.ar      1 UNK         0.0000 
     30 C30         4.3311   53.7787   25.9135 C.ar      1 UNK         0.0000 
     31 C31         4.2292   53.8835   27.2977 C.ar      1 UNK         0.0000 
     32 C32         2.9762   53.8887   27.9206 C.ar      1 UNK         0.0000 
     33 C33         1.8356   53.7716   27.1224 C.ar      1 UNK         0.0000 
     34 C34         1.9421   53.6965   25.7368 C.ar      1 UNK         0.0000 
     35 C35         2.8549   54.0312   29.4076 C.2       1 UNK         0.0000 
     36 O36         1.7104   54.0955   29.9108 O.co2     1 UNK         0.0000 
     37 H37        -2.5876   49.9327   17.9465 H         1 UNK         0.0000 
     38 H38        -1.5306   49.5789   16.5898 H         1 UNK         0.0000 
     39 H39        -1.5789   48.4690   17.9570 H         1 UNK         0.0000 
     40 H40        -1.7325   51.3022   19.7483 H         1 UNK         0.0000 
     41 H41         0.1174   52.5415   20.7782 H         1 UNK         0.0000 
     42 H42         2.8844   50.6478   18.0842 H         1 UNK         0.0000 
     43 H43         1.0373   49.4317   17.0450 H         1 UNK         0.0000 
     44 H44         2.7937   50.4275   22.6765 H         1 UNK         0.0000 
     45 H45         1.4230   48.5197   23.2819 H         1 UNK         0.0000 
     46 H46        -1.7886   51.1801   24.3827 H         1 UNK         0.0000 
     47 H47        -0.4408   53.0733   23.6799 H         1 UNK         0.0000 
     48 H48        -3.5668   48.3176   26.5550 H         1 UNK         0.0000 
     49 H49        -2.2226   47.1812   26.4698 H         1 UNK         0.0000 
     50 H50        -3.4089   47.2503   25.1537 H         1 UNK         0.0000 
     51 H51         5.3273   53.7315   25.5051 H         1 UNK         0.0000 
     52 H52         5.1354   53.9514   27.8840 H         1 UNK         0.0000 
     53 H53         0.8516   53.7735   27.5714 H         1 UNK         0.0000 
     54 H54         1.0285   53.6879   25.1780 H         1 UNK         0.0000 
     55 O55         3.9056   54.0969   30.0822 O.co2     1 UNK         0.0000 
@<TRIPOS>BOND
     1    1    2 1    
     2    1   37 1    
     3    1   38 1    
     4    1   39 1    
     5    2    7 ar   
     6    2    3 ar   
     7    3    4 ar   
     8    3   40 1    
     9    4    5 ar   
    10    4   41 1    
    11    5    6 ar   
    12    5    8 1    
    13    6    7 ar   
    14    6   42 1    
    15    7   43 1    
    16    8   13 ar   
    17    8    9 ar   
    18    9   17 1    
    19    9   10 ar   
    20   10   11 ar   
    21   10   14 1    
    22   11   12 1    
    23   11   13 ar   
    24   14   15 2    
    25   14   16 am   BACKBONE|DICT|INTERRES
    26   16   17 1    
    27   16   29 1    
    28   17   18 1    
    29   17   19 1    
    30   19   24 ar   
    31   19   20 ar   
    32   20   21 ar   
    33   20   44 1    
    34   21   22 ar   
    35   21   45 1    
    36   22   23 ar   
    37   22   25 1    
    38   23   24 ar   
    39   23   46 1    
    40   24   47 1    
    41   25   26 2    
    42   25   27 1    
    43   27   28 1    
    44   28   48 1    
    45   28   49 1    
    46   28   50 1    
    47   29   34 ar   
    48   29   30 ar   
    49   30   31 ar   
    50   30   51 1    
    51   31   32 ar   
    52   31   52 1    
    53   32   33 ar   
    54   32   35 1    
    55   33   34 ar   
    56   33   53 1    
    57   34   54 1    
    58   35   36 2    
    59   35   55 1    
@<TRIPOS>SUBSTRUCTURE
     1 UNK         1 GROUP             0       ****    0 ROOT    
