@<TRIPOS>MOLECULE
ZINC44784440_1851
44   45    1
SMALL
USER_CHARGES


@<TRIPOS>ATOM
      1 C1          5.0177   54.0749   27.7397 C.3       1 UNK         0.0000 
      2 C2          3.5345   54.0929   28.0629 C.ar      1 UNK         0.0000 
      3 C3          3.0415   54.9176   29.0770 C.ar      1 UNK         0.0000 
      4 C4          1.6765   54.9355   29.3756 C.ar      1 UNK         0.0000 
      5 C5          0.8068   54.0971   28.6737 C.ar      1 UNK         0.0000 
      6 C6          1.2813   53.2934   27.6345 C.ar      1 UNK         0.0000 
      7 C7          2.6508   53.2962   27.3325 C.ar      1 UNK         0.0000 
      8 N8          0.3436   52.4876   26.9699 N.am      1 UNK         0.0000 
      9 C9          0.3416   52.0947   25.6729 C.2       1 UNK         0.0000 
     10 O10         1.1959   52.4675   24.8647 O.2       1 UNK         0.0000 
     11 C11        -0.8024   51.1137   25.2085 C.3       1 UNK         0.0000 
     12 C12        -2.0715   51.1994   26.1408 C.3       1 UNK         0.0000 
     13 C13        -2.8435   52.5372   26.0585 C.3       1 UNK         0.0000 
     14 C14        -3.2216   52.9037   24.6137 C.3       1 UNK         0.0000 
     15 C15        -1.9988   52.8838   23.6812 C.3       1 UNK         0.0000 
     16 C16        -1.2515   51.5338   23.7533 C.3       1 UNK         0.0000 
     17 C17        -0.2626   49.6386   25.2664 C.2       1 UNK         0.0000 
     18 N18        -0.4253   48.8810   24.2508 N.2       1 UNK         0.0000 
     19 O19        -0.1015   47.5262   24.4816 O.3       1 UNK         0.0000 
     20 N20         0.3044   49.2967   26.4817 N.pl3     1 UNK         0.0000 
     21 C21         1.1343   55.8557   30.4554 C.3       1 UNK         0.0000 
     22 H22         5.5218   54.9784   28.0911 H         1 UNK         0.0000 
     23 H23         5.4957   53.2020   28.1878 H         1 UNK         0.0000 
     24 H24         5.1708   54.0235   26.6598 H         1 UNK         0.0000 
     25 H25         3.7213   55.5514   29.6266 H         1 UNK         0.0000 
     26 H26        -0.2455   54.0962   28.9169 H         1 UNK         0.0000 
     27 H27         3.0405   52.6620   26.5501 H         1 UNK         0.0000 
     28 H28        -0.4673   52.2377   27.5131 H         1 UNK         0.0000 
     29 H29        -1.8320   50.9806   27.1831 H         1 UNK         0.0000 
     30 H30        -2.7703   50.4082   25.8579 H         1 UNK         0.0000 
     31 H31        -2.2414   53.3385   26.4829 H         1 UNK         0.0000 
     32 H32        -3.7435   52.4822   26.6736 H         1 UNK         0.0000 
     33 H33        -3.6947   53.8867   24.5901 H         1 UNK         0.0000 
     34 H34        -3.9702   52.1989   24.2461 H         1 UNK         0.0000 
     35 H35        -1.3193   53.6965   23.9436 H         1 UNK         0.0000 
     36 H36        -2.3152   53.0723   22.6554 H         1 UNK         0.0000 
     37 H37        -1.9312   50.7820   23.3463 H         1 UNK         0.0000 
     38 H38        -0.4029   51.5448   23.0657 H         1 UNK         0.0000 
     39 H39         0.1103   47.5071   25.4217 H         1 UNK         0.0000 
     40 H40         0.6757   48.3709   26.6481 H         1 UNK         0.0000 
     41 H41        -0.0146   49.7858   27.3067 H         1 UNK         0.0000 
     42 H42         1.9044   56.1700   31.1573 H         1 UNK         0.0000 
     43 H43         0.7043   56.7501   30.0055 H         1 UNK         0.0000 
     44 H44         0.3614   55.3499   31.0350 H         1 UNK         0.0000 
@<TRIPOS>BOND
     1    1    2 1    
     2    1   22 1    
     3    1   23 1    
     4    1   24 1    
     5    2    7 ar   
     6    2    3 ar   
     7    3    4 ar   
     8    3   25 1    
     9    4    5 ar   
    10    4   21 1    
    11    5    6 ar   
    12    5   26 1    
    13    6    7 ar   
    14    6    8 1    
    15    7   27 1    
    16    8    9 am   BACKBONE|DICT|INTERRES
    17    8   28 1    
    18    9   10 2    
    19    9   11 1    
    20   11   16 1    
    21   11   12 1    
    22   11   17 1    
    23   12   13 1    
    24   12   29 1    
    25   12   30 1    
    26   13   14 1    
    27   13   31 1    
    28   13   32 1    
    29   14   15 1    
    30   14   33 1    
    31   14   34 1    
    32   15   16 1    
    33   15   35 1    
    34   15   36 1    
    35   16   37 1    
    36   16   38 1    
    37   17   18 2    
    38   17   20 1    
    39   18   19 1    
    40   19   39 1    
    41   20   40 1    
    42   20   41 1    
    43   21   42 1    
    44   21   43 1    
    45   21   44 1    
@<TRIPOS>SUBSTRUCTURE
     1 UNK         1 GROUP             0       ****    0 ROOT    
