ZINC37042096_3580
                    3D
 Schrodinger Suite 2024-2.
 33 34  0  0  1  0            999 V2000
    5.8803   55.0365   18.3407 C   0  0  0  0  0  0
    5.9434   54.9071   19.8571 C   0  0  0  0  0  0
    4.9136   54.2346   20.5229 C   0  0  0  0  0  0
    4.9437   54.0918   21.9080 C   0  0  0  0  0  0
    6.0029   54.6250   22.6627 C   0  0  0  0  0  0
    7.0341   55.2960   21.9875 C   0  0  0  0  0  0
    7.0122   55.4354   20.5984 C   0  0  0  0  0  0
    8.0725   56.0941   19.9752 N   0  0  0  0  0  0
    6.0339   54.4972   24.1681 C   0  0  0  0  0  0
    7.1043   54.4397   24.7712 O   0  0  0  0  0  0
    4.8201   54.4790   24.7609 N   0  0  0  0  0  0
    4.4782   54.2073   26.1001 C   0  0  0  0  0  0
    5.3892   54.4096   27.1514 C   0  0  0  0  0  0
    5.0668   54.0505   28.4542 C   0  0  0  0  0  0
    3.8277   53.4821   28.7258 C   0  0  0  0  0  0
    2.8932   53.3257   27.7059 C   0  0  0  0  0  0
    3.1863   53.6966   26.3825 C   0  0  0  0  0  0
    2.1268   53.5216   25.3456 N   0  3  0  0  0  0
    1.1527   52.8258   25.6208 O   0  0  0  0  0  0
    2.2269   54.0941   24.2626 O   0  5  0  0  0  0
    3.4131   52.8958   30.4852 Br  0  0  0  0  0  0
    6.7510   54.5663   17.8827 H   0  0  0  0  0  0
    4.9870   54.5724   17.9216 H   0  0  0  0  0  0
    5.8833   56.0876   18.0507 H   0  0  0  0  0  0
    4.0865   53.8163   19.9687 H   0  0  0  0  0  0
    4.1319   53.5567   22.3767 H   0  0  0  0  0  0
    7.8648   55.7116   22.5381 H   0  0  0  0  0  0
    8.8962   56.3138   20.5194 H   0  0  0  0  0  0
    8.1484   56.0283   18.9694 H   0  0  0  0  0  0
    4.0252   54.5236   24.1354 H   0  0  0  0  0  0
    6.3651   54.8381   26.9865 H   0  0  0  0  0  0
    5.7866   54.1977   29.2464 H   0  0  0  0  0  0
    1.9304   52.9003   27.9568 H   0  0  0  0  0  0
  1  2  1  0  0  0
  1 22  1  0  0  0
  1 23  1  0  0  0
  1 24  1  0  0  0
  2  7  2  0  0  0
  2  3  1  0  0  0
  3  4  2  0  0  0
  3 25  1  0  0  0
  4  5  1  0  0  0
  4 26  1  0  0  0
  5  6  2  0  0  0
  5  9  1  0  0  0
  6  7  1  0  0  0
  6 27  1  0  0  0
  7  8  1  0  0  0
  8 28  1  0  0  0
  8 29  1  0  0  0
  9 10  2  0  0  0
  9 11  1  0  0  0
 11 12  1  0  0  0
 11 30  1  0  0  0
 12 17  2  0  0  0
 12 13  1  0  0  0
 13 14  2  0  0  0
 13 31  1  0  0  0
 14 15  1  0  0  0
 14 32  1  0  0  0
 15 16  2  0  0  0
 15 21  1  0  0  0
 16 17  1  0  0  0
 16 33  1  0  0  0
 17 18  1  0  0  0
 18 19  2  0  0  0
 18 20  1  0  0  0
M  CHG  2  18   1  20  -1
M  END
> <i_i_glide_confnum>
10

> <i_i_glide_lignum>
3581

> <i_i_glide_posenum>
375

> <i_i_glide_rotatable_bonds>
4

> <i_m_Source_File_Index>
5455

> <b_m_subgroup_collapsed>
0

> <r_i_docking_score>
-6.02779

> <r_i_glide_ecoul>
-4.15445

> <r_i_glide_eff_state_penalty>
0

> <r_i_glide_einternal>
0.935253

> <r_i_glide_emodel>
-54.542

> <r_i_glide_energy>
-40.6854

> <r_i_glide_erotb>
0.46627

> <r_i_glide_esite>
0

> <r_i_glide_evdw>
-36.531

> <r_i_glide_gscore>
-6.02779

> <r_i_glide_hbond>
0

> <r_i_glide_ligand_efficiency>
-0.287037

> <r_i_glide_ligand_efficiency_ln>
-1.49036

> <r_i_glide_ligand_efficiency_sa>
-0.791915

> <r_i_glide_lipo>
-2.31122

> <r_i_glide_metal>
0

> <r_i_glide_rewards>
-1.73312

> <s_i_glide_gridfile>
wee1_glide-grid

> <s_m_Source_File>
wee1_decoys_glide_SP.sdf

> <s_m_Source_Path>
/Users/zhangxujun/Desktop

> <s_m_entry_id>
5730

> <s_m_entry_name>
wee1_decoys_glide_SP.5455

> <s_m_subgroup_title>
wee1_decoys_glide_SP

> <s_m_subgroupid>
wee1_decoys_glide_SP


$$$$
