ZINC39609213_3663
                    3D
 Schrodinger Suite 2024-2.
 68 71  0  0  1  0            999 V2000
    3.6296   54.1013   28.2890 C   0  0  0  0  0  0
    4.0870   54.0940   26.8370 C   0  0  0  0  0  0
    3.1284   54.0966   25.8213 C   0  0  0  0  0  0
    3.5129   54.1029   24.4822 C   0  0  0  0  0  0
    4.8708   54.0968   24.1314 C   0  0  0  0  0  0
    5.8259   54.1018   25.1515 C   0  0  0  0  0  0
    5.4495   54.0956   26.4979 C   0  0  0  0  0  0
    6.5316   54.0416   27.5642 C   0  0  0  0  0  0
    5.3729   54.0491   22.6833 C   0  0  0  0  0  0
    4.3353   54.0668   21.5341 C   0  0  0  0  0  0
    3.3620   52.9790   21.5582 N   0  0  0  0  0  0
    3.6014   51.6876   21.2678 C   0  0  0  0  0  0
    4.7044   51.2988   20.8910 O   0  0  0  0  0  0
    2.4658   50.6374   21.4578 C   0  0  1  0  0  0
    2.8869   49.8188   22.0453 H   0  0  0  0  0  0
    1.3435   51.2256   22.3379 C   0  0  0  0  0  0
    0.1904   50.3953   22.0084 N   0  0  0  0  0  0
    0.3483   49.7182   20.7197 C   0  0  0  0  0  0
    1.7408   50.1403   20.1701 C   0  0  0  0  0  0
    1.6152   51.2452   19.0716 C   0  0  0  0  0  0
    0.8375   50.7651   17.8244 C   0  0  0  0  0  0
    1.5043   49.4819   17.2724 N   0  3  0  0  0  0
    1.7203   48.3729   18.3238 C   0  0  0  0  0  0
    2.5166   48.9879   19.4897 C   0  0  0  0  0  0
   -0.8311   50.1166   22.8565 C   0  0  0  0  0  0
   -1.8050   49.4359   22.5356 O   0  0  0  0  0  0
   -0.7058   50.6175   24.2709 C   0  0  0  0  0  0
   -1.3610   51.7820   24.6873 C   0  0  0  0  0  0
   -1.1902   52.2512   25.9929 C   0  0  0  0  0  0
   -0.3631   51.5722   26.8975 C   0  0  0  0  0  0
    0.2630   50.3959   26.4797 C   0  0  0  0  0  0
    0.0841   49.9126   25.1877 C   0  0  0  0  0  0
    0.7041   48.7685   24.8260 F   0  0  0  0  0  0
   -0.1188   52.1136   28.3073 C   0  0  0  0  0  0
    1.0493   51.6947   28.7993 F   0  0  0  0  0  0
   -0.0952   53.4474   28.3109 F   0  0  0  0  0  0
   -1.0929   51.6972   29.1144 F   0  0  0  0  0  0
    3.8566   53.1454   28.7615 H   0  0  0  0  0  0
    4.1515   54.8809   28.8465 H   0  0  0  0  0  0
    2.5616   54.2951   28.3854 H   0  0  0  0  0  0
    2.0762   54.0949   26.0678 H   0  0  0  0  0  0
    2.7381   54.1175   23.7336 H   0  0  0  0  0  0
    6.8738   54.0842   24.8890 H   0  0  0  0  0  0
    7.5050   53.7952   27.1442 H   0  0  0  0  0  0
    6.5978   54.9961   28.0816 H   0  0  0  0  0  0
    6.3057   53.2731   28.3033 H   0  0  0  0  0  0
    6.0628   54.8813   22.5344 H   0  0  0  0  0  0
    5.9837   53.1519   22.5753 H   0  0  0  0  0  0
    3.7200   54.9547   21.6638 H   0  0  0  0  0  0
    4.8130   54.1662   20.5577 H   0  0  0  0  0  0
    2.4171   53.2505   21.7803 H   0  0  0  0  0  0
    1.6435   51.2238   23.3867 H   0  0  0  0  0  0
    1.0690   52.2224   21.9954 H   0  0  0  0  0  0
   -0.4807   49.8281   20.0200 H   0  0  0  0  0  0
    0.4208   48.6574   20.9682 H   0  0  0  0  0  0
    1.1043   52.1175   19.4811 H   0  0  0  0  0  0
    2.5976   51.6055   18.7567 H   0  0  0  0  0  0
   -0.2058   50.5161   18.0198 H   0  0  0  0  0  0
    0.8748   51.4975   17.0157 H   0  0  0  0  0  0
    0.9900   49.1203   16.4809 H   0  0  0  0  0  0
    0.7382   47.9913   18.6049 H   0  0  0  0  0  0
    2.2859   47.5906   17.8149 H   0  0  0  0  0  0
    3.5040   49.3164   19.1641 H   0  0  0  0  0  0
    2.7037   48.1930   20.2138 H   0  0  0  0  0  0
   -1.9946   52.3313   24.0052 H   0  0  0  0  0  0
   -1.6992   53.1541   26.2989 H   0  0  0  0  0  0
    0.8889   49.8401   27.1602 H   0  0  0  0  0  0
    2.4421   49.6971   16.9231 H   0  0  0  0  0  0
  1  2  1  0  0  0
  1 38  1  0  0  0
  1 39  1  0  0  0
  1 40  1  0  0  0
  2  7  2  0  0  0
  2  3  1  0  0  0
  3  4  2  0  0  0
  3 41  1  0  0  0
  4  5  1  0  0  0
  4 42  1  0  0  0
  5  6  2  0  0  0
  5  9  1  0  0  0
  6  7  1  0  0  0
  6 43  1  0  0  0
  7  8  1  0  0  0
  8 44  1  0  0  0
  8 45  1  0  0  0
  8 46  1  0  0  0
  9 10  1  0  0  0
  9 47  1  0  0  0
  9 48  1  0  0  0
 10 11  1  0  0  0
 10 49  1  0  0  0
 10 50  1  0  0  0
 11 12  1  0  0  0
 11 51  1  0  0  0
 12 13  2  0  0  0
 12 14  1  0  0  0
 14 15  1  0  0  0
 14 19  1  0  0  0
 14 16  1  0  0  0
 16 17  1  0  0  0
 16 52  1  0  0  0
 16 53  1  0  0  0
 17 18  1  0  0  0
 17 25  1  0  0  0
 18 19  1  0  0  0
 18 54  1  0  0  0
 18 55  1  0  0  0
 19 24  1  0  0  0
 19 20  1  0  0  0
 20 21  1  0  0  0
 20 56  1  0  0  0
 20 57  1  0  0  0
 21 22  1  0  0  0
 21 58  1  0  0  0
 21 59  1  0  0  0
 22 23  1  0  0  0
 22 60  1  0  0  0
 22 68  1  0  0  0
 23 24  1  0  0  0
 23 61  1  0  0  0
 23 62  1  0  0  0
 24 63  1  0  0  0
 24 64  1  0  0  0
 25 26  2  0  0  0
 25 27  1  0  0  0
 27 32  2  0  0  0
 27 28  1  0  0  0
 28 29  2  0  0  0
 28 65  1  0  0  0
 29 30  1  0  0  0
 29 66  1  0  0  0
 30 31  2  0  0  0
 30 34  1  0  0  0
 31 32  1  0  0  0
 31 67  1  0  0  0
 32 33  1  0  0  0
 34 35  1  0  0  0
 34 36  1  0  0  0
 34 37  1  0  0  0
M  CHG  1  22   1
M  END
> <i_i_glide_confnum>
165

> <i_i_glide_lignum>
3664

> <i_i_glide_posenum>
224

> <i_i_glide_rotatable_bonds>
8

> <i_m_Source_File_Index>
1671

> <b_m_subgroup_collapsed>
0

> <r_i_docking_score>
-5.54151

> <r_i_glide_ecoul>
-4.2528

> <r_i_glide_eff_state_penalty>
0

> <r_i_glide_einternal>
6.18099

> <r_i_glide_emodel>
-59.5903

> <r_i_glide_energy>
-44.9114

> <r_i_glide_erotb>
0.55817

> <r_i_glide_esite>
-0.215804

> <r_i_glide_evdw>
-40.6586

> <r_i_glide_gscore>
-5.54151

> <r_i_glide_hbond>
-0.231152

> <r_i_glide_ligand_efficiency>
-0.153931

> <r_i_glide_ligand_efficiency_ln>
-1.20901

> <r_i_glide_ligand_efficiency_sa>
-0.508269

> <r_i_glide_lipo>
-2.59452

> <r_i_glide_metal>
0

> <r_i_glide_rewards>
-0.387352

> <s_i_glide_gridfile>
wee1_glide-grid

> <s_m_Source_File>
wee1_decoys_glide_SP.sdf

> <s_m_Source_Path>
/Users/zhangxujun/Desktop

> <s_m_entry_id>
1946

> <s_m_entry_name>
wee1_decoys_glide_SP.1671

> <s_m_subgroup_title>
wee1_decoys_glide_SP

> <s_m_subgroupid>
wee1_decoys_glide_SP


$$$$
