@<TRIPOS>MOLECULE
ZINC08597778_601
57   61    1
SMALL
USER_CHARGES


@<TRIPOS>ATOM
      1 C1          8.2774   55.9953   20.7977 C.3       1 UNK         0.0000 
      2 C2          6.9746   55.2968   21.1315 C.ar      1 UNK         0.0000 
      3 C3          6.0559   55.0265   20.1141 C.ar      1 UNK         0.0000 
      4 C4          4.8729   54.3535   20.4072 C.ar      1 UNK         0.0000 
      5 C5          4.5960   53.9751   21.7211 C.ar      1 UNK         0.0000 
      6 C6          5.5240   54.2356   22.7400 C.ar      1 UNK         0.0000 
      7 C7          6.7064   54.9058   22.4461 C.ar      1 UNK         0.0000 
      8 N8          3.3915   53.3003   21.9636 N.am      1 UNK         0.0000 
      9 C9          2.6302   53.4163   23.0707 C.2       1 UNK         0.0000 
     10 O10         2.8274   54.2374   23.9694 O.2       1 UNK         0.0000 
     11 C11         1.5563   52.4586   23.1645 C.ar      1 UNK         0.0000 
     12 C12         0.8974   51.7423   22.1434 C.ar      1 UNK         0.0000 
     13 N13        -0.1089   51.0178   22.5858 N.2       1 UNK         0.0000 
     14 N14        -0.1411   51.2528   23.9047 N.pl3     1 UNK         0.0000 
     15 C15         0.8543   52.1124   24.3129 C.ar      1 UNK         0.0000 
     16 N16         0.9865   52.4968   25.6134 N.2       1 UNK         0.0000 
     17 C17         0.3090   51.9832   26.5737 C.2       1 UNK         0.0000 
     18 C18        -0.5577   50.7268   26.2670 C.3       1 UNK         0.0000 
     19 C19        -1.1893   50.7842   24.8287 C.3       1 UNK         0.0000 
     20 H20        -1.5235   49.7968   24.5015 H         1 UNK         0.0000 
     21 C21        -2.4805   51.6254   24.8060 C.ar      1 UNK         0.0000 
     22 C22        -2.5291   52.8964   24.2093 C.ar      1 UNK         0.0000 
     23 C23        -3.6955   53.6583   24.2515 C.ar      1 UNK         0.0000 
     24 C24        -4.8337   53.1602   24.8812 C.ar      1 UNK         0.0000 
     25 C25        -4.8044   51.8949   25.4653 C.ar      1 UNK         0.0000 
     26 C26        -3.6375   51.1320   25.4277 C.ar      1 UNK         0.0000 
     27 F27        -3.6377   49.9055   25.9968 F         1 UNK         0.0000 
     28 C28         0.3877   52.5584   27.9374 C.ar      1 UNK         0.0000 
     29 C29        -0.1170   51.8879   29.0600 C.ar      1 UNK         0.0000 
     30 C30        -0.0950   52.4968   30.3130 C.ar      1 UNK         0.0000 
     31 C31         0.4253   53.7896   30.4597 C.ar      1 UNK         0.0000 
     32 C32         0.9623   54.4428   29.3574 C.ar      1 UNK         0.0000 
     33 C33         0.9558   53.8309   28.1129 C.ar      1 UNK         0.0000 
     34 O34         0.4494   54.4966   31.6370 O.3       1 UNK         0.0000 
     35 C35         0.1768   53.8247   32.8552 C.3       1 UNK         0.0000 
     36 H36         9.0124   55.2861   20.4200 H         1 UNK         0.0000 
     37 H37         8.1194   56.7543   20.0319 H         1 UNK         0.0000 
     38 H38         8.6914   56.4945   21.6746 H         1 UNK         0.0000 
     39 H39         6.2620   55.3231   19.0952 H         1 UNK         0.0000 
     40 H40         4.1684   54.1450   19.6146 H         1 UNK         0.0000 
     41 H41         5.3387   53.9242   23.7569 H         1 UNK         0.0000 
     42 H42         7.4213   55.1048   23.2307 H         1 UNK         0.0000 
     43 H43         3.0719   52.6879   21.2303 H         1 UNK         0.0000 
     44 H44         1.1365   51.7653   21.0905 H         1 UNK         0.0000 
     45 H45         0.0793   49.8441   26.3259 H         1 UNK         0.0000 
     46 H46        -1.3365   50.5784   27.0132 H         1 UNK         0.0000 
     47 H47        -1.6598   53.3197   23.7280 H         1 UNK         0.0000 
     48 H48        -3.7146   54.6388   23.7962 H         1 UNK         0.0000 
     49 H49        -5.7400   53.7471   24.9090 H         1 UNK         0.0000 
     50 H50        -5.6859   51.5013   25.9500 H         1 UNK         0.0000 
     51 H51        -0.5402   50.8968   28.9890 H         1 UNK         0.0000 
     52 H52        -0.5013   51.9597   31.1588 H         1 UNK         0.0000 
     53 H53         1.3741   55.4351   29.4665 H         1 UNK         0.0000 
     54 H54         1.3727   54.3788   27.2801 H         1 UNK         0.0000 
     55 H55        -0.8953   53.6967   32.9714 H         1 UNK         0.0000 
     56 H56         0.6852   52.8622   32.9368 H         1 UNK         0.0000 
     57 H57         0.5157   54.4516   33.6786 H         1 UNK         0.0000 
@<TRIPOS>BOND
     1    1    2 1    
     2    1   36 1    
     3    1   37 1    
     4    1   38 1    
     5    2    7 ar   
     6    2    3 ar   
     7    3    4 ar   
     8    3   39 1    
     9    4    5 ar   
    10    4   40 1    
    11    5    6 ar   
    12    5    8 1    
    13    6    7 ar   
    14    6   41 1    
    15    7   42 1    
    16    8    9 am   BACKBONE|DICT|INTERRES
    17    8   43 1    
    18    9   10 2    
    19    9   11 1    
    20   11   15 ar   
    21   11   12 ar   
    22   12   13 ar   
    23   12   44 1    
    24   13   14 ar   
    25   14   19 1    
    26   14   15 ar   
    27   15   16 1    
    28   16   17 2    
    29   17   28 1    
    30   17   18 1    
    31   18   19 1    
    32   18   46 1    
    33   18   45 1    
    34   19   20 1    
    35   19   21 1    
    36   21   26 ar   
    37   21   22 ar   
    38   22   23 ar   
    39   22   47 1    
    40   23   24 ar   
    41   23   48 1    
    42   24   25 ar   
    43   24   49 1    
    44   25   26 ar   
    45   25   50 1    
    46   26   27 1    
    47   28   33 ar   
    48   28   29 ar   
    49   29   30 ar   
    50   29   51 1    
    51   30   31 ar   
    52   30   52 1    
    53   31   32 ar   
    54   31   34 1    
    55   32   33 ar   
    56   32   53 1    
    57   33   54 1    
    58   34   35 1    
    59   35   55 1    
    60   35   56 1    
    61   35   57 1    
@<TRIPOS>SUBSTRUCTURE
     1 UNK         1 GROUP             0       ****    0 ROOT    
