ZINC20744557_1565
                    3D
 Schrodinger Suite 2024-2.
 41 45  0  0  1  0            999 V2000
    1.0469   52.6581   26.2698 C   0  0  0  0  0  0
    2.1567   53.2019   25.3975 C   0  0  0  0  0  0
    3.3161   53.9065   25.7505 C   0  0  0  0  0  0
    4.0159   54.0966   24.5627 C   0  0  0  0  0  0
    3.2475   53.5055   23.5792 N   0  0  0  0  0  0
    2.1132   52.9993   24.0990 N   0  0  0  0  0  0
    3.5283   53.3454   22.1994 C   0  0  0  0  0  0
    3.1378   52.1907   21.4821 C   0  0  0  0  0  0
    3.5625   52.1309   20.1338 C   0  0  0  0  0  0
    3.1048   50.9212   19.6806 N   0  0  0  0  0  0
    3.2723   50.4962   18.7764 H   0  0  0  0  0  0
    2.4462   50.3302   20.7339 C   0  0  0  0  0  0
    2.4385   51.0561   21.8242 N   0  0  0  0  0  0
    4.2819   53.0557   19.4909 N   0  0  0  0  0  0
    4.6019   54.1144   20.2819 C   0  0  0  0  0  0
    4.2786   54.3082   21.5876 N   0  0  0  0  0  0
    5.2432   54.6643   24.3795 N   0  0  0  0  0  0
    5.9117   54.8887   25.4342 C   0  0  0  0  0  0
    5.5123   54.5139   26.8739 C   0  0  0  0  0  0
    3.9368   54.4935   27.0249 C   0  0  2  0  0  0
    3.6182   55.5285   27.0390 H   0  0  0  0  0  0
    3.4019   53.8941   28.3258 C   0  0  0  0  0  0
    3.9945   52.7538   28.8799 C   0  0  0  0  0  0
    3.4613   52.1611   30.0184 C   0  0  0  0  0  0
    2.3071   52.6806   30.5944 C   0  0  0  0  0  0
    1.7219   53.8319   30.0752 C   0  0  0  0  0  0
    2.2764   54.4492   28.9570 C   0  0  0  0  0  0
    1.6919   55.5729   28.4820 F   0  0  0  0  0  0
    1.7741   52.0962   31.6850 F   0  0  0  0  0  0
    7.0923   55.5603   25.2938 O   0  0  0  0  0  0
    1.3489   51.7373   26.7711 H   0  0  0  0  0  0
    0.7506   53.3579   27.0467 H   0  0  0  0  0  0
    0.1417   52.4302   25.7039 H   0  0  0  0  0  0
    2.0206   49.3426   20.6168 H   0  0  0  0  0  0
    5.1859   54.8955   19.8157 H   0  0  0  0  0  0
    5.9499   53.5390   27.0822 H   0  0  0  0  0  0
    5.9496   55.2158   27.5867 H   0  0  0  0  0  0
    4.8607   52.2990   28.4281 H   0  0  0  0  0  0
    3.9438   51.2972   30.4423 H   0  0  0  0  0  0
    0.8383   54.2434   30.5405 H   0  0  0  0  0  0
    7.2576   55.6852   24.3554 H   0  0  0  0  0  0
  1  2  1  0  0  0
  1 31  1  0  0  0
  1 32  1  0  0  0
  1 33  1  0  0  0
  2  6  2  0  0  0
  2  3  1  0  0  0
  3 20  1  0  0  0
  3  4  2  0  0  0
  4  5  1  0  0  0
  4 17  1  0  0  0
  5  6  1  0  0  0
  5  7  1  0  0  0
  7 16  2  0  0  0
  7  8  1  0  0  0
  8 13  1  0  0  0
  8  9  2  0  0  0
  9 10  1  0  0  0
  9 14  1  0  0  0
 10 11  1  0  0  0
 10 12  1  0  0  0
 12 13  2  0  0  0
 12 34  1  0  0  0
 14 15  2  0  0  0
 15 16  1  0  0  0
 15 35  1  0  0  0
 17 18  2  0  0  0
 18 19  1  0  0  0
 18 30  1  0  0  0
 19 20  1  0  0  0
 19 36  1  0  0  0
 19 37  1  0  0  0
 20 21  1  0  0  0
 20 22  1  0  0  0
 22 27  2  0  0  0
 22 23  1  0  0  0
 23 24  2  0  0  0
 23 38  1  0  0  0
 24 25  1  0  0  0
 24 39  1  0  0  0
 25 26  2  0  0  0
 25 29  1  0  0  0
 26 27  1  0  0  0
 26 40  1  0  0  0
 27 28  1  0  0  0
 30 41  1  0  0  0
M  END
> <i_i_glide_confnum>
1

> <i_i_glide_lignum>
1566

> <i_i_glide_posenum>
369

> <i_i_glide_rotatable_bonds>
3

> <i_m_Source_File_Index>
5583

> <b_m_subgroup_collapsed>
0

> <r_i_docking_score>
-7.92877

> <r_i_glide_ecoul>
-4.29419

> <r_i_glide_eff_state_penalty>
0

> <r_i_glide_einternal>
3.34212

> <r_i_glide_emodel>
-66.8262

> <r_i_glide_energy>
-45.2574

> <r_i_glide_erotb>
0.266952

> <r_i_glide_esite>
-0.204911

> <r_i_glide_evdw>
-40.9632

> <r_i_glide_gscore>
-7.92877

> <r_i_glide_hbond>
-0.352302

> <r_i_glide_ligand_efficiency>
-0.28317

> <r_i_glide_ligand_efficiency_ln>
-1.83019

> <r_i_glide_ligand_efficiency_sa>
-0.859872

> <r_i_glide_lipo>
-2.24822

> <r_i_glide_metal>
0

> <r_i_glide_rewards>
-2.698

> <s_i_glide_gridfile>
wee1_glide-grid

> <s_m_Source_File>
wee1_decoys_glide_SP.sdf

> <s_m_Source_Path>
/Users/zhangxujun/Desktop

> <s_m_entry_id>
5858

> <s_m_entry_name>
wee1_decoys_glide_SP.5583

> <s_m_subgroup_title>
wee1_decoys_glide_SP

> <s_m_subgroupid>
wee1_decoys_glide_SP


$$$$
