ZINC09317999_3913
                    3D
 Schrodinger Suite 2024-2.
 47 49  0  0  1  0            999 V2000
    7.0623   55.5077   18.2781 C   0  0  0  0  0  0
    6.6639   55.2357   19.7168 C   0  0  0  0  0  0
    7.4654   55.6968   20.7616 C   0  0  0  0  0  0
    7.1048   55.4375   22.0811 C   0  0  0  0  0  0
    5.9593   54.6851   22.3610 C   0  0  0  0  0  0
    5.1636   54.2192   21.3106 C   0  0  0  0  0  0
    5.5122   54.4965   19.9916 C   0  0  0  0  0  0
    5.5046   54.3784   23.6521 N   0  0  0  0  0  0
    5.9365   54.7602   24.8740 C   0  0  0  0  0  0
    7.0045   55.3269   25.0930 O   0  0  0  0  0  0
    5.1292   54.4594   25.9178 N   0  0  0  0  0  0
    3.8013   54.0213   25.9469 C   0  0  0  0  0  0
    3.2338   53.6962   27.0843 N   0  0  0  0  0  0
    1.9747   53.2945   26.9502 C   0  0  0  0  0  0
    1.5045   53.3471   25.6296 C   0  0  0  0  0  0
    2.7389   53.9016   24.5632 S   0  0  0  0  0  0
    1.2195   52.9931   28.1690 C   0  0  0  0  0  0
    1.5992   53.4164   29.2623 O   0  0  0  0  0  0
    0.0650   52.2863   28.1083 N   0  0  0  0  0  0
   -0.4947   51.6242   27.0115 C   0  0  0  0  0  0
    0.1360   50.5090   26.4518 C   0  0  0  0  0  0
   -0.4119   49.8882   25.3274 C   0  0  0  0  0  0
   -1.5981   50.3762   24.7719 C   0  0  0  0  0  0
   -2.2410   51.4805   25.3381 C   0  0  0  0  0  0
   -1.6914   52.0966   26.4645 C   0  0  0  0  0  0
   -3.5310   52.0108   24.7397 C   0  0  0  0  0  0
    0.3025   48.7104   24.6993 C   0  0  0  0  0  0
    8.1423   55.6258   18.1829 H   0  0  0  0  0  0
    6.7832   54.6717   17.6354 H   0  0  0  0  0  0
    6.5727   56.4085   17.9074 H   0  0  0  0  0  0
    8.3705   56.2498   20.5543 H   0  0  0  0  0  0
    7.7361   55.8227   22.8652 H   0  0  0  0  0  0
    4.2675   53.6466   21.5043 H   0  0  0  0  0  0
    4.8907   54.1305   19.1864 H   0  0  0  0  0  0
    4.6592   53.8292   23.6611 H   0  0  0  0  0  0
    5.5469   54.5976   26.8258 H   0  0  0  0  0  0
    0.5227   53.1425   25.2318 H   0  0  0  0  0  0
   -0.4512   52.2063   28.9718 H   0  0  0  0  0  0
    1.0527   50.1318   26.8814 H   0  0  0  0  0  0
   -2.0191   49.8960   23.9005 H   0  0  0  0  0  0
   -2.1801   52.9630   26.8817 H   0  0  0  0  0  0
   -4.2630   52.1932   25.5273 H   0  0  0  0  0  0
   -3.9789   51.3018   24.0418 H   0  0  0  0  0  0
   -3.3525   52.9559   24.2260 H   0  0  0  0  0  0
    1.3739   48.9060   24.6903 H   0  0  0  0  0  0
    0.1237   47.8031   25.2758 H   0  0  0  0  0  0
   -0.0014   48.5501   23.6643 H   0  0  0  0  0  0
  1  2  1  0  0  0
  1 28  1  0  0  0
  1 29  1  0  0  0
  1 30  1  0  0  0
  2  7  2  0  0  0
  2  3  1  0  0  0
  3  4  2  0  0  0
  3 31  1  0  0  0
  4  5  1  0  0  0
  4 32  1  0  0  0
  5  6  2  0  0  0
  5  8  1  0  0  0
  6  7  1  0  0  0
  6 33  1  0  0  0
  7 34  1  0  0  0
  8  9  1  0  0  0
  8 35  1  0  0  0
  9 10  2  0  0  0
  9 11  1  0  0  0
 11 12  1  0  0  0
 11 36  1  0  0  0
 12 16  1  0  0  0
 12 13  2  0  0  0
 13 14  1  0  0  0
 14 15  2  0  0  0
 14 17  1  0  0  0
 15 16  1  0  0  0
 15 37  1  0  0  0
 17 18  2  0  0  0
 17 19  1  0  0  0
 19 20  1  0  0  0
 19 38  1  0  0  0
 20 25  2  0  0  0
 20 21  1  0  0  0
 21 22  2  0  0  0
 21 39  1  0  0  0
 22 23  1  0  0  0
 22 27  1  0  0  0
 23 24  2  0  0  0
 23 40  1  0  0  0
 24 25  1  0  0  0
 24 26  1  0  0  0
 25 41  1  0  0  0
 26 42  1  0  0  0
 26 43  1  0  0  0
 26 44  1  0  0  0
 27 45  1  0  0  0
 27 46  1  0  0  0
 27 47  1  0  0  0
M  END
> <i_i_glide_confnum>
67

> <i_i_glide_lignum>
3914

> <i_i_glide_posenum>
326

> <i_i_glide_rotatable_bonds>
7

> <i_m_Source_File_Index>
1334

> <b_m_subgroup_collapsed>
0

> <r_i_docking_score>
-1.74874

> <r_i_glide_ecoul>
-4.36189

> <r_i_glide_eff_state_penalty>
0

> <r_i_glide_einternal>
14.1674

> <r_i_glide_emodel>
-34.2379

> <r_i_glide_energy>
-46.155

> <r_i_glide_erotb>
0.938186

> <r_i_glide_esite>
0

> <r_i_glide_evdw>
-41.7931

> <r_i_glide_gscore>
-1.74874

> <r_i_glide_hbond>
-0.32

> <r_i_glide_ligand_efficiency>
-0.0647682

> <r_i_glide_ligand_efficiency_ln>
-0.407078

> <r_i_glide_ligand_efficiency_sa>
-0.194305

> <r_i_glide_lipo>
-1.65372

> <r_i_glide_metal>
0

> <r_i_glide_rewards>
2.03074

> <s_i_glide_gridfile>
wee1_glide-grid

> <s_m_Source_File>
wee1_decoys_glide_SP.sdf

> <s_m_Source_Path>
/Users/zhangxujun/Desktop

> <s_m_entry_id>
1609

> <s_m_entry_name>
wee1_decoys_glide_SP.1334

> <s_m_subgroup_title>
wee1_decoys_glide_SP

> <s_m_subgroupid>
wee1_decoys_glide_SP


$$$$
