@<TRIPOS>MOLECULE
ZINC35166881_5316
57   60    1
SMALL
USER_CHARGES


@<TRIPOS>ATOM
      1 C1         -0.4860   52.1088   29.5823 C.3       1 UNK         0.0000 
      2 C2          0.1614   52.7616   28.3523 C.3       1 UNK         0.0000 
      3 H3         -0.4960   53.5795   28.0497 H         1 UNK         0.0000 
      4 C4          1.5260   53.3618   28.7090 C.ar      1 UNK         0.0000 
      5 C5          2.6777   52.5668   28.7130 C.ar      1 UNK         0.0000 
      6 C6          3.9162   53.1313   29.0004 C.ar      1 UNK         0.0000 
      7 C7          4.0034   54.4915   29.2811 C.ar      1 UNK         0.0000 
      8 C8          2.8620   55.2929   29.2815 C.ar      1 UNK         0.0000 
      9 C9          1.6238   54.7264   28.9960 C.ar      1 UNK         0.0000 
     10 N10         0.1666   51.8187   27.2269 N.am      1 UNK         0.0000 
     11 C11         0.5846   52.0762   25.9703 C.2       1 UNK         0.0000 
     12 O12         1.1048   53.1525   25.6673 O.2       1 UNK         0.0000 
     13 C13         0.3904   50.9681   24.9354 C.ar      1 UNK         0.0000 
     14 C14        -0.3631   49.8244   25.2735 C.ar      1 UNK         0.0000 
     15 C15        -0.5932   48.8029   24.3587 C.ar      1 UNK         0.0000 
     16 C16        -0.0808   48.8971   23.0729 C.ar      1 UNK         0.0000 
     17 C17         0.6967   49.9930   22.7125 C.ar      1 UNK         0.0000 
     18 C18         0.9532   51.0292   23.6272 C.ar      1 UNK         0.0000 
     19 N19         1.7141   52.1547   23.2374 N.am      1 UNK         0.0000 
     20 C20         2.6912   52.2679   22.3124 C.2       1 UNK         0.0000 
     21 O21         3.1573   51.3213   21.6786 O.2       1 UNK         0.0000 
     22 C22         3.2489   53.6981   22.1455 C.3       1 UNK         0.0000 
     23 H23         2.3703   54.3468   22.1004 H         1 UNK         0.0000 
     24 C24         4.1953   54.0699   23.2679 C.3       1 UNK         0.0000 
     25 C25         5.5083   54.4965   22.6270 C.2       1 UNK         0.0000 
     26 O26         6.4899   54.8208   23.2939 O.2       1 UNK         0.0000 
     27 N27         5.3519   54.4767   21.2674 N.am      1 UNK         0.0000 
     28 C28         4.0514   53.9047   20.8681 C.3       1 UNK         0.0000 
     29 C29         6.3215   54.8972   20.3082 C.ar      1 UNK         0.0000 
     30 C30         7.4385   55.6918   20.6414 C.ar      1 UNK         0.0000 
     31 C31         8.4007   56.0016   19.6860 C.ar      1 UNK         0.0000 
     32 C32         8.2478   55.5583   18.3779 C.ar      1 UNK         0.0000 
     33 C33         7.1336   54.8104   18.0147 C.ar      1 UNK         0.0000 
     34 C34         6.1766   54.4858   18.9720 C.ar      1 UNK         0.0000 
     35 Br35        9.5769   55.9713   17.0821 Br        1 UNK         0.0000 
     36 H36        -0.6143   52.8277   30.3924 H         1 UNK         0.0000 
     37 H37        -1.4669   51.6928   29.3509 H         1 UNK         0.0000 
     38 H38         0.1281   51.2967   29.9649 H         1 UNK         0.0000 
     39 H39         2.6115   51.5138   28.4801 H         1 UNK         0.0000 
     40 H40         4.8073   52.5199   28.9918 H         1 UNK         0.0000 
     41 H41         4.9690   54.9313   29.4924 H         1 UNK         0.0000 
     42 H42         2.9363   56.3503   29.4928 H         1 UNK         0.0000 
     43 H43         0.7448   55.3536   28.9930 H         1 UNK         0.0000 
     44 H44        -0.3440   50.9622   27.3825 H         1 UNK         0.0000 
     45 H45        -0.7997   49.6921   26.2534 H         1 UNK         0.0000 
     46 H46        -1.1784   47.9439   24.6521 H         1 UNK         0.0000 
     47 H47        -0.2784   48.1144   22.3573 H         1 UNK         0.0000 
     48 H48         1.0745   50.0347   21.7034 H         1 UNK         0.0000 
     49 H49         1.5852   52.9456   23.8595 H         1 UNK         0.0000 
     50 H50         4.3842   53.2962   24.0066 H         1 UNK         0.0000 
     51 H51         3.7912   54.9034   23.8370 H         1 UNK         0.0000 
     52 H52         3.5219   54.6052   20.2173 H         1 UNK         0.0000 
     53 H53         4.2110   52.9763   20.3183 H         1 UNK         0.0000 
     54 H54         7.6063   56.0603   21.6398 H         1 UNK         0.0000 
     55 H55         9.2744   56.5754   19.9614 H         1 UNK         0.0000 
     56 H56         7.0205   54.4662   16.9982 H         1 UNK         0.0000 
     57 H57         5.3433   53.8772   18.6549 H         1 UNK         0.0000 
@<TRIPOS>BOND
     1    1    2 1    
     2    1   36 1    
     3    1   37 1    
     4    1   38 1    
     5    2    3 1    
     6    2    4 1    
     7    2   10 1    
     8    4    9 ar   
     9    4    5 ar   
    10    5    6 ar   
    11    5   39 1    
    12    6    7 ar   
    13    6   40 1    
    14    7    8 ar   
    15    7   41 1    
    16    8    9 ar   
    17    8   42 1    
    18    9   43 1    
    19   10   11 am   BACKBONE|DICT|INTERRES
    20   10   44 1    
    21   11   12 2    
    22   11   13 1    
    23   13   18 ar   
    24   13   14 ar   
    25   14   15 ar   
    26   14   45 1    
    27   15   16 ar   
    28   15   46 1    
    29   16   17 ar   
    30   16   47 1    
    31   17   18 ar   
    32   17   48 1    
    33   18   19 1    
    34   19   20 am   BACKBONE|DICT|INTERRES
    35   19   49 1    
    36   20   21 2    
    37   20   22 1    
    38   22   23 1    
    39   22   28 1    
    40   22   24 1    
    41   24   25 1    
    42   24   50 1    
    43   24   51 1    
    44   25   26 2    
    45   25   27 am   BACKBONE|DICT|INTERRES
    46   27   28 1    
    47   27   29 1    
    48   28   52 1    
    49   28   53 1    
    50   29   34 ar   
    51   29   30 ar   
    52   30   31 ar   
    53   30   54 1    
    54   31   32 ar   
    55   31   55 1    
    56   32   33 ar   
    57   32   35 1    
    58   33   34 ar   
    59   33   56 1    
    60   34   57 1    
@<TRIPOS>SUBSTRUCTURE
     1 UNK         1 GROUP             0       ****    0 ROOT    
