@<TRIPOS>MOLECULE
ZINC40112207_4648
65   68    1
SMALL
USER_CHARGES


@<TRIPOS>ATOM
      1 C1          3.5048   53.1385   30.0814 C.ar      1 UNK         0.0000 
      2 C2          2.3704   52.4706   29.6283 C.ar      1 UNK         0.0000 
      3 C3          1.9597   52.6300   28.3082 C.ar      1 UNK         0.0000 
      4 C4          2.6780   53.4639   27.4395 C.ar      1 UNK         0.0000 
      5 C5          3.7918   54.1579   27.9188 C.ar      1 UNK         0.0000 
      6 C6          4.2062   53.9964   29.2377 C.ar      1 UNK         0.0000 
      7 C7          2.3381   53.5757   26.0061 C.2       1 UNK         0.0000 
      8 C8          1.7924   52.5895   25.2716 C.2       1 UNK         0.0000 
      9 C9          1.4219   52.5446   23.7803 C.3       1 UNK         0.0000 
     10 H10         0.7218   53.3510   23.5574 H         1 UNK         0.0000 
     11 C11         2.5691   52.5435   22.7767 C.2       1 UNK         0.0000 
     12 C12         2.5561   51.3452   22.1620 C.2       1 UNK         0.0000 
     13 C13         1.4332   50.5173   22.5662 C.2       1 UNK         0.0000 
     14 O14         1.1098   49.3883   22.1784 O.2       1 UNK         0.0000 
     15 N15         0.7726   51.2683   23.4776 N.am      1 UNK         0.0000 
     16 C16        -0.4754   50.8029   24.1096 C.3       1 UNK         0.0000 
     17 C17        -0.2945   49.6469   25.1251 C.3       1 UNK         0.0000 
     18 O18        -1.5429   49.2809   25.6830 O.3       1 UNK         0.0000 
     19 O19         3.3704   50.8611   21.2892 O.co2     1 UNK         0.0000 
     20 C20         3.4795   53.6987   22.5777 C.2       1 UNK         0.0000 
     21 O21         3.6141   54.4967   23.4990 O.2       1 UNK         0.0000 
     22 C22         4.3212   53.9031   21.3411 C.ar      1 UNK         0.0000 
     23 C23         3.9042   53.4856   20.0693 C.ar      1 UNK         0.0000 
     24 C24         4.6992   53.7040   18.9495 C.ar      1 UNK         0.0000 
     25 C25         5.8984   54.4033   19.0741 C.ar      1 UNK         0.0000 
     26 C26         6.2957   54.8963   20.3160 C.ar      1 UNK         0.0000 
     27 C27         5.5163   54.6331   21.4401 C.ar      1 UNK         0.0000 
     28 S28         6.9270   54.6384   17.6205 S.o2      1 UNK         0.0000 
     29 O29         7.9811   53.6190   17.6842 O.2       1 UNK         0.0000 
     30 O30         6.0190   54.7063   16.4677 O.2       1 UNK         0.0000 
     31 N31         7.6720   56.2372   17.8058 N.pl3     1 UNK         0.0000 
     32 C32         6.7611   57.3902   17.6038 C.3       1 UNK         0.0000 
     33 C33         7.1017   58.6467   18.4180 C.3       1 UNK         0.0000 
     34 C34         8.3262   59.4350   17.9099 C.3       1 UNK         0.0000 
     35 C35         9.7066   58.8230   18.2108 C.3       1 UNK         0.0000 
     36 C36         9.9297   57.3751   17.7383 C.3       1 UNK         0.0000 
     37 C37         9.0224   56.3374   18.4215 C.3       1 UNK         0.0000 
     38 H38         3.8456   52.9863   31.0965 H         1 UNK         0.0000 
     39 H39         1.8194   51.8174   30.2878 H         1 UNK         0.0000 
     40 H40         1.0894   52.0911   27.9634 H         1 UNK         0.0000 
     41 H41         4.3604   54.7983   27.2604 H         1 UNK         0.0000 
     42 H42         5.0833   54.5185   29.5956 H         1 UNK         0.0000 
     43 H43         2.5531   54.5210   25.5520 H         1 UNK         0.0000 
     44 H44         1.5696   51.6964   25.8127 H         1 UNK         0.0000 
     45 H45        -0.9448   51.6549   24.6043 H         1 UNK         0.0000 
     46 H46        -1.1482   50.4713   23.3177 H         1 UNK         0.0000 
     47 H47         0.1822   48.7834   24.6613 H         1 UNK         0.0000 
     48 H48         0.3869   49.9238   25.9257 H         1 UNK         0.0000 
     49 H49        -1.4039   48.8980   26.5691 H         1 UNK         0.0000 
     50 H50         2.9589   52.9835   19.9312 H         1 UNK         0.0000 
     51 H51         4.3784   53.3290   17.9864 H         1 UNK         0.0000 
     52 H52         7.2200   55.4408   20.4269 H         1 UNK         0.0000 
     53 H53         5.8607   55.0021   22.3968 H         1 UNK         0.0000 
     54 H54         6.7669   57.6514   16.5428 H         1 UNK         0.0000 
     55 H55         5.7484   57.0750   17.8728 H         1 UNK         0.0000 
     56 H56         6.2301   59.2969   18.3514 H         1 UNK         0.0000 
     57 H57         7.1881   58.4048   19.4758 H         1 UNK         0.0000 
     58 H58         8.2229   59.5981   16.8354 H         1 UNK         0.0000 
     59 H59         8.3009   60.4338   18.3502 H         1 UNK         0.0000 
     60 H60         9.9036   58.8739   19.2817 H         1 UNK         0.0000 
     61 H61        10.4670   59.4549   17.7504 H         1 UNK         0.0000 
     62 H62        10.9649   57.1135   17.9617 H         1 UNK         0.0000 
     63 H63         9.8356   57.3040   16.6526 H         1 UNK         0.0000 
     64 H64         8.9319   56.5274   19.4899 H         1 UNK         0.0000 
     65 H65         9.5163   55.3732   18.3132 H         1 UNK         0.0000 
@<TRIPOS>BOND
     1    1    6 ar   
     2    1    2 ar   
     3    1   38 1    
     4    2    3 ar   
     5    2   39 1    
     6    3    4 ar   
     7    3   40 1    
     8    4    5 ar   
     9    4    7 1    
    10    5    6 ar   
    11    5   41 1    
    12    6   42 1    
    13    7    8 2    
    14    7   43 1    
    15    8    9 1    
    16    8   44 1    
    17    9   10 1    
    18    9   15 1    
    19    9   11 1    
    20   11   12 2    
    21   11   20 1    
    22   12   13 1    
    23   12   19 1    
    24   13   14 2    
    25   13   15 am   BACKBONE|DICT|INTERRES
    26   15   16 1    
    27   16   17 1    
    28   16   45 1    
    29   16   46 1    
    30   17   18 1    
    31   17   47 1    
    32   17   48 1    
    33   18   49 1    
    34   20   21 2    
    35   20   22 1    
    36   22   27 ar   
    37   22   23 ar   
    38   23   24 ar   
    39   23   50 1    
    40   24   25 ar   
    41   24   51 1    
    42   25   26 ar   
    43   25   28 1    
    44   26   27 ar   
    45   26   52 1    
    46   27   53 1    
    47   28   29 2    
    48   28   30 2    
    49   28   31 1    
    50   31   37 1    
    51   31   32 1    
    52   32   33 1    
    53   32   54 1    
    54   32   55 1    
    55   33   34 1    
    56   33   56 1    
    57   33   57 1    
    58   34   35 1    
    59   34   58 1    
    60   34   59 1    
    61   35   36 1    
    62   35   60 1    
    63   35   61 1    
    64   36   37 1    
    65   36   62 1    
    66   36   63 1    
    67   37   64 1    
    68   37   65 1    
@<TRIPOS>SUBSTRUCTURE
     1 UNK         1 GROUP             0       ****    0 ROOT    
