@<TRIPOS>MOLECULE
ZINC01118485_2262
54   56    1
SMALL
USER_CHARGES


@<TRIPOS>ATOM
      1 C1          4.9118   55.0641   25.3675 C.3       1 UNK         0.0000 
      2 C2          3.5810   54.3827   25.1072 C.ar      1 UNK         0.0000 
      3 C3          3.0026   54.4469   23.8391 C.ar      1 UNK         0.0000 
      4 C4          1.8091   53.7804   23.5784 C.ar      1 UNK         0.0000 
      5 C5          1.1935   53.0453   24.5916 C.ar      1 UNK         0.0000 
      6 C6          1.7666   52.9796   25.8637 C.ar      1 UNK         0.0000 
      7 C7          2.9571   53.6569   26.1225 C.ar      1 UNK         0.0000 
      8 S8         -0.2852   52.1078   24.2193 S.o2      1 UNK         0.0000 
      9 O9         -1.0936   52.8966   23.2825 O.2       1 UNK         0.0000 
     10 O10        -0.8468   51.6350   25.4896 O.2       1 UNK         0.0000 
     11 N11         0.3021   50.6751   23.3400 N.pl3     1 UNK         0.0000 
     12 C12         1.1165   49.6963   24.0502 C.3       1 UNK         0.0000 
     13 C13        -0.1393   50.3574   22.0447 C.ar      1 UNK         0.0000 
     14 C14        -1.4397   49.8522   21.9272 C.ar      1 UNK         0.0000 
     15 C15        -1.9697   49.5227   20.6826 C.ar      1 UNK         0.0000 
     16 C16        -1.2005   49.6931   19.5365 C.ar      1 UNK         0.0000 
     17 C17         0.0909   50.2088   19.6339 C.ar      1 UNK         0.0000 
     18 C18         0.6405   50.5629   20.8785 C.ar      1 UNK         0.0000 
     19 C19         2.0328   51.1585   20.9229 C.2       1 UNK         0.0000 
     20 O20         2.8516   50.7956   21.7672 O.2       1 UNK         0.0000 
     21 N21         2.2780   52.0966   19.9830 N.am      1 UNK         0.0000 
     22 C22         3.4483   52.8504   19.7988 C.ar      1 UNK         0.0000 
     23 C23         4.2821   53.2358   20.8541 C.ar      1 UNK         0.0000 
     24 C24         5.4055   54.0159   20.6042 C.ar      1 UNK         0.0000 
     25 C25         5.7289   54.3789   19.2886 C.ar      1 UNK         0.0000 
     26 C26         4.8884   54.0025   18.2402 C.ar      1 UNK         0.0000 
     27 C27         3.7399   53.2590   18.4969 C.ar      1 UNK         0.0000 
     28 N28         6.9094   55.0528   18.9325 N.am      1 UNK         0.0000 
     29 C29         7.7213   55.7950   19.7087 C.2       1 UNK         0.0000 
     30 O30         7.5037   56.0967   20.8824 O.2       1 UNK         0.0000 
     31 C31         8.9861   56.2985   19.0272 C.3       1 UNK         0.0000 
     32 H32         5.5321   55.0606   24.4696 H         1 UNK         0.0000 
     33 H33         4.7625   56.0960   25.6817 H         1 UNK         0.0000 
     34 H34         5.4793   54.5394   26.1374 H         1 UNK         0.0000 
     35 H35         3.4835   54.9994   23.0451 H         1 UNK         0.0000 
     36 H36         1.3823   53.8191   22.5864 H         1 UNK         0.0000 
     37 H37         1.3032   52.3946   26.6461 H         1 UNK         0.0000 
     38 H38         3.4064   53.5912   27.1022 H         1 UNK         0.0000 
     39 H39         1.0937   48.7193   23.5628 H         1 UNK         0.0000 
     40 H40         2.1568   50.0200   24.0810 H         1 UNK         0.0000 
     41 H41         0.7719   49.5649   25.0770 H         1 UNK         0.0000 
     42 H42        -2.0463   49.7138   22.8113 H         1 UNK         0.0000 
     43 H43        -2.9732   49.1327   20.6096 H         1 UNK         0.0000 
     44 H44        -1.6034   49.4304   18.5690 H         1 UNK         0.0000 
     45 H45         0.6620   50.3228   18.7214 H         1 UNK         0.0000 
     46 H46         1.5588   52.2439   19.2916 H         1 UNK         0.0000 
     47 H47         4.0731   52.9387   21.8696 H         1 UNK         0.0000 
     48 H48         6.0356   54.2777   21.4409 H         1 UNK         0.0000 
     49 H49         5.1224   54.2696   17.2190 H         1 UNK         0.0000 
     50 H50         3.1031   52.9699   17.6734 H         1 UNK         0.0000 
     51 H51         7.1583   54.9875   17.9565 H         1 UNK         0.0000 
     52 H52         8.7436   56.9124   18.1617 H         1 UNK         0.0000 
     53 H53         9.5991   55.4603   18.6995 H         1 UNK         0.0000 
     54 H54         9.5834   56.8966   19.7140 H         1 UNK         0.0000 
@<TRIPOS>BOND
     1    1    2 1    
     2    1   32 1    
     3    1   33 1    
     4    1   34 1    
     5    2    7 ar   
     6    2    3 ar   
     7    3    4 ar   
     8    3   35 1    
     9    4    5 ar   
    10    4   36 1    
    11    5    6 ar   
    12    5    8 1    
    13    6    7 ar   
    14    6   37 1    
    15    7   38 1    
    16    8    9 2    
    17    8   10 2    
    18    8   11 1    
    19   11   12 1    
    20   11   13 1    
    21   12   39 1    
    22   12   40 1    
    23   12   41 1    
    24   13   18 ar   
    25   13   14 ar   
    26   14   15 ar   
    27   14   42 1    
    28   15   16 ar   
    29   15   43 1    
    30   16   17 ar   
    31   16   44 1    
    32   17   18 ar   
    33   17   45 1    
    34   18   19 1    
    35   19   20 2    
    36   19   21 am   BACKBONE|DICT|INTERRES
    37   21   22 1    
    38   21   46 1    
    39   22   27 ar   
    40   22   23 ar   
    41   23   24 ar   
    42   23   47 1    
    43   24   25 ar   
    44   24   48 1    
    45   25   26 ar   
    46   25   28 1    
    47   26   27 ar   
    48   26   49 1    
    49   27   50 1    
    50   28   29 am   BACKBONE|DICT|INTERRES
    51   28   51 1    
    52   29   30 2    
    53   29   31 1    
    54   31   52 1    
    55   31   53 1    
    56   31   54 1    
@<TRIPOS>SUBSTRUCTURE
     1 UNK         1 GROUP             0       ****    0 ROOT    
