ZINC59170417_5720
                    3D
 Schrodinger Suite 2024-2.
 68 71  0  0  1  0            999 V2000
   -0.0510   51.3737   28.0856 C   0  0  0  0  0  0
    0.8048   52.2005   29.0630 C   0  0  0  0  0  0
    1.1688   53.5623   28.6266 N   0  0  0  0  0  0
    1.4641   54.4521   29.7639 C   0  0  0  0  0  0
    1.5597   55.9555   29.4299 C   0  0  0  0  0  0
    2.0162   53.6279   27.4874 C   0  0  0  0  0  0
    3.3524   54.0667   27.5702 C   0  0  0  0  0  0
    4.1349   54.2313   26.4252 C   0  0  0  0  0  0
    3.5834   53.9403   25.1802 C   0  0  0  0  0  0
    4.2782   54.0982   23.9026 C   0  0  0  0  0  0
    3.7503   53.7499   22.6939 C   0  0  0  0  0  0
    2.4752   53.1223   22.7378 C   0  0  0  0  0  0
    1.9051   52.5001   21.7071 N   0  3  0  0  0  0
    0.7557   51.8610   21.6710 N   0  0  0  0  0  0
    0.0580   51.7006   20.0662 S   0  0  0  0  0  0
   -1.3847   51.9327   20.2011 O   0  0  0  0  0  0
    0.8592   52.4966   19.1289 O   0  0  0  0  0  0
    0.3045   49.9824   19.6332 C   0  0  0  0  0  0
   -0.6180   49.0229   20.0555 C   0  0  0  0  0  0
   -0.4509   47.6914   19.6829 C   0  0  0  0  0  0
    0.6392   47.3195   18.8944 C   0  0  0  0  0  0
    1.5725   48.2772   18.4897 C   0  0  0  0  0  0
    1.4077   49.6082   18.8594 C   0  0  0  0  0  0
    0.7844   45.8759   18.4488 C   0  0  0  0  0  0
    1.7783   53.0887   23.8443 O   0  0  0  0  0  0
    2.2900   53.4416   25.0839 C   0  0  0  0  0  0
    1.5050   53.2957   26.2225 C   0  0  0  0  0  0
    4.5619   53.9863   21.4976 C   0  0  0  0  0  0
    5.7861   54.0966   21.5777 O   0  0  0  0  0  0
    3.9051   54.0962   20.3192 N   0  0  0  0  0  0
    4.4824   54.1533   19.0442 C   0  0  0  0  0  0
    5.5269   53.3017   18.6659 C   0  0  0  0  0  0
    6.0472   53.3753   17.3769 C   0  0  0  0  0  0
    5.5174   54.2895   16.4639 C   0  0  0  0  0  0
    4.4655   55.1283   16.8386 C   0  0  0  0  0  0
    3.9389   55.0506   18.1249 C   0  0  0  0  0  0
    6.0925   54.3707   15.0612 C   0  0  0  0  0  0
   -0.4634   50.4975   28.5815 H   0  0  0  0  0  0
   -0.8974   51.9482   27.7070 H   0  0  0  0  0  0
    0.5308   50.9963   27.2441 H   0  0  0  0  0  0
    1.7160   51.6405   29.2865 H   0  0  0  0  0  0
    0.2458   52.2555   30.0008 H   0  0  0  0  0  0
    0.6700   54.3431   30.5037 H   0  0  0  0  0  0
    2.3820   54.1273   30.2559 H   0  0  0  0  0  0
    1.5949   56.5499   30.3427 H   0  0  0  0  0  0
    2.4514   56.2086   28.8608 H   0  0  0  0  0  0
    0.7046   56.2982   28.8527 H   0  0  0  0  0  0
    3.7999   54.3000   28.5237 H   0  0  0  0  0  0
    5.1501   54.5909   26.5123 H   0  0  0  0  0  0
    5.2585   54.5596   23.9432 H   0  0  0  0  0  0
    0.0964   52.1810   22.3855 H   0  0  0  0  0  0
   -1.4706   49.3094   20.6540 H   0  0  0  0  0  0
   -1.1764   46.9553   19.9964 H   0  0  0  0  0  0
    2.4194   48.0069   17.8737 H   0  0  0  0  0  0
    2.1327   50.3387   18.5251 H   0  0  0  0  0  0
   -0.1702   45.4964   18.0829 H   0  0  0  0  0  0
    1.5017   45.7747   17.6328 H   0  0  0  0  0  0
    1.0970   45.2440   19.2798 H   0  0  0  0  0  0
    0.4859   52.9631   26.1073 H   0  0  0  0  0  0
    2.9299   54.3770   20.3456 H   0  0  0  0  0  0
    5.9198   52.5665   19.3511 H   0  0  0  0  0  0
    6.8469   52.7077   17.0867 H   0  0  0  0  0  0
    4.0514   55.8355   16.1356 H   0  0  0  0  0  0
    3.1131   55.6927   18.4039 H   0  0  0  0  0  0
    5.7049   53.5598   14.4454 H   0  0  0  0  0  0
    7.1793   54.2873   15.0886 H   0  0  0  0  0  0
    5.8606   55.3244   14.5821 H   0  0  0  0  0  0
    2.4277   52.5001   20.8344 H   0  0  0  0  0  0
  1  2  1  0  0  0
  1 38  1  0  0  0
  1 39  1  0  0  0
  1 40  1  0  0  0
  2  3  1  0  0  0
  2 41  1  0  0  0
  2 42  1  0  0  0
  3  4  1  0  0  0
  3  6  1  0  0  0
  4  5  1  0  0  0
  4 43  1  0  0  0
  4 44  1  0  0  0
  5 45  1  0  0  0
  5 46  1  0  0  0
  5 47  1  0  0  0
  6 27  2  0  0  0
  6  7  1  0  0  0
  7  8  2  0  0  0
  7 48  1  0  0  0
  8  9  1  0  0  0
  8 49  1  0  0  0
  9 26  2  0  0  0
  9 10  1  0  0  0
 10 11  2  0  0  0
 10 50  1  0  0  0
 11 12  1  0  0  0
 11 28  1  0  0  0
 12 13  2  0  0  0
 12 25  1  0  0  0
 13 14  1  0  0  0
 13 68  1  0  0  0
 14 15  1  0  0  0
 14 51  1  0  0  0
 15 16  2  0  0  0
 15 17  2  0  0  0
 15 18  1  0  0  0
 18 23  2  0  0  0
 18 19  1  0  0  0
 19 20  2  0  0  0
 19 52  1  0  0  0
 20 21  1  0  0  0
 20 53  1  0  0  0
 21 22  2  0  0  0
 21 24  1  0  0  0
 22 23  1  0  0  0
 22 54  1  0  0  0
 23 55  1  0  0  0
 24 56  1  0  0  0
 24 57  1  0  0  0
 24 58  1  0  0  0
 25 26  1  0  0  0
 26 27  1  0  0  0
 27 59  1  0  0  0
 28 29  2  0  0  0
 28 30  1  0  0  0
 30 31  1  0  0  0
 30 60  1  0  0  0
 31 36  2  0  0  0
 31 32  1  0  0  0
 32 33  2  0  0  0
 32 61  1  0  0  0
 33 34  1  0  0  0
 33 62  1  0  0  0
 34 35  2  0  0  0
 34 37  1  0  0  0
 35 36  1  0  0  0
 35 63  1  0  0  0
 36 64  1  0  0  0
 37 65  1  0  0  0
 37 66  1  0  0  0
 37 67  1  0  0  0
M  CHG  1  13   1
M  END
> <i_i_glide_confnum>
113

> <i_i_glide_lignum>
5721

> <i_i_glide_posenum>
372

> <i_i_glide_rotatable_bonds>
9

> <i_m_Source_File_Index>
5289

> <b_m_subgroup_collapsed>
0

> <r_i_docking_score>
-4.53975

> <r_i_glide_ecoul>
-3.91923

> <r_i_glide_eff_state_penalty>
0

> <r_i_glide_einternal>
9.99264

> <r_i_glide_emodel>
-52.389

> <r_i_glide_energy>
-45.9017

> <r_i_glide_erotb>
0.532633

> <r_i_glide_esite>
-0.0895927

> <r_i_glide_evdw>
-41.9824

> <r_i_glide_gscore>
-4.53975

> <r_i_glide_hbond>
-0.32

> <r_i_glide_ligand_efficiency>
-0.122696

> <r_i_glide_ligand_efficiency_ln>
-0.984565

> <r_i_glide_ligand_efficiency_sa>
-0.40885

> <r_i_glide_lipo>
-2.48608

> <r_i_glide_metal>
0

> <r_i_glide_rewards>
0.5103

> <s_i_glide_gridfile>
wee1_glide-grid

> <s_m_Source_File>
wee1_decoys_glide_SP.sdf

> <s_m_Source_Path>
/Users/zhangxujun/Desktop

> <s_m_entry_id>
5564

> <s_m_entry_name>
wee1_decoys_glide_SP.5289

> <s_m_subgroup_title>
wee1_decoys_glide_SP

> <s_m_subgroupid>
wee1_decoys_glide_SP


$$$$
