@<TRIPOS>MOLECULE
ZINC36019356_4039
69   73    1
SMALL
USER_CHARGES


@<TRIPOS>ATOM
      1 C1          5.9560   55.0849   19.5585 C.3       1 UNK         0.0000 
      2 C2          5.9043   54.8412   21.0551 C.ar      1 UNK         0.0000 
      3 C3          6.7804   55.5063   21.9097 C.ar      1 UNK         0.0000 
      4 C4          6.7044   55.2967   23.2845 C.ar      1 UNK         0.0000 
      5 C5          5.7541   54.4218   23.8326 C.ar      1 UNK         0.0000 
      6 C6          4.9391   53.6967   22.9459 C.ar      1 UNK         0.0000 
      7 C7          4.9951   53.9227   21.5736 C.ar      1 UNK         0.0000 
      8 C8          5.6893   54.2634   25.3486 C.2       1 UNK         0.0000 
      9 O9          6.7368   54.4471   25.9805 O.2       1 UNK         0.0000 
     10 N10         4.5129   53.9627   25.9854 N.am      1 UNK         0.0000 
     11 C11         3.2113   54.3038   25.3806 C.3       1 UNK         0.0000 
     12 C12         2.0231   54.0885   26.3429 C.3       1 UNK         0.0000 
     13 N13         2.1248   52.9061   27.1941 N.pl3     1 UNK         0.0000 
     14 C14         3.3500   53.0374   28.0153 C.3       1 UNK         0.0000 
     15 C15         4.5488   53.8601   27.4577 C.3       1 UNK         0.0000 
     16 C16         0.9251   52.3495   27.6707 C.ar      1 UNK         0.0000 
     17 C17         0.7058   52.3015   29.0624 C.ar      1 UNK         0.0000 
     18 C18        -0.4934   51.8542   29.6074 C.ar      1 UNK         0.0000 
     19 C19        -1.4989   51.3895   28.7727 C.ar      1 UNK         0.0000 
     20 C20        -1.2749   51.3482   27.4034 C.ar      1 UNK         0.0000 
     21 C21        -0.1225   51.8859   26.8143 C.ar      1 UNK         0.0000 
     22 C22         0.0257   51.7416   25.3042 C.2       1 UNK         0.0000 
     23 O23         1.1044   51.3634   24.8534 O.2       1 UNK         0.0000 
     24 N24        -1.0199   52.0230   24.4675 N.am      1 UNK         0.0000 
     25 C25        -0.8917   51.7810   23.0156 C.3       1 UNK         0.0000 
     26 C26        -1.8453   50.6134   22.6797 C.3       1 UNK         0.0000 
     27 C27        -3.2974   50.9166   23.1001 C.3       1 UNK         0.0000 
     28 C28        -3.3858   51.4145   24.5509 C.3       1 UNK         0.0000 
     29 C29        -2.3516   52.5302   24.8577 C.3       1 UNK         0.0000 
     30 N30        -2.6674   50.8967   29.3624 N.am      1 UNK         0.0000 
     31 C31        -3.9274   50.8967   28.8818 C.2       1 UNK         0.0000 
     32 O32        -4.2651   51.3654   27.7924 O.2       1 UNK         0.0000 
     33 C33        -4.8936   50.3481   29.8053 C.2       1 UNK         0.0000 
     34 C34        -4.7580   50.0968   31.1779 C.2       1 UNK         0.0000 
     35 C35        -5.9360   49.6348   31.7729 C.2       1 UNK         0.0000 
     36 C36        -6.9858   49.5382   30.8721 C.2       1 UNK         0.0000 
     37 S37        -6.5251   50.0352   29.2760 S.3       1 UNK         0.0000 
     38 H38         4.9539   55.2891   19.1786 H         1 UNK         0.0000 
     39 H39         6.5853   55.9376   19.3011 H         1 UNK         0.0000 
     40 H40         6.3288   54.1989   19.0427 H         1 UNK         0.0000 
     41 H41         7.5208   56.1867   21.5169 H         1 UNK         0.0000 
     42 H42         7.3885   55.8388   23.9231 H         1 UNK         0.0000 
     43 H43         4.2624   52.9306   23.2828 H         1 UNK         0.0000 
     44 H44         4.3414   53.3711   20.9127 H         1 UNK         0.0000 
     45 H45         2.9936   53.5734   24.6084 H         1 UNK         0.0000 
     46 H46         3.1925   55.2967   24.9353 H         1 UNK         0.0000 
     47 H47         1.1044   54.0967   25.7663 H         1 UNK         0.0000 
     48 H48         1.9786   54.8967   27.0680 H         1 UNK         0.0000 
     49 H49         3.1335   53.4580   28.9954 H         1 UNK         0.0000 
     50 H50         3.7109   52.0183   28.1263 H         1 UNK         0.0000 
     51 H51         4.3738   54.8799   27.8044 H         1 UNK         0.0000 
     52 H52         5.4838   53.4756   27.8697 H         1 UNK         0.0000 
     53 H53         1.4456   52.6438   29.7651 H         1 UNK         0.0000 
     54 H54        -0.6291   51.8542   30.6812 H         1 UNK         0.0000 
     55 H55        -2.0100   50.8459   26.8044 H         1 UNK         0.0000 
     56 H56        -1.2143   52.6878   22.5034 H         1 UNK         0.0000 
     57 H57         0.1353   51.6269   22.6791 H         1 UNK         0.0000 
     58 H58        -1.8081   50.4093   21.6093 H         1 UNK         0.0000 
     59 H59        -1.4926   49.7023   23.1665 H         1 UNK         0.0000 
     60 H60        -3.9314   50.0408   22.9547 H         1 UNK         0.0000 
     61 H61        -3.6956   51.6967   22.4644 H         1 UNK         0.0000 
     62 H62        -3.2680   50.5602   25.2142 H         1 UNK         0.0000 
     63 H63        -4.3895   51.7898   24.7536 H         1 UNK         0.0000 
     64 H64        -2.4012   52.9534   25.8606 H         1 UNK         0.0000 
     65 H65        -2.5535   53.3865   24.2129 H         1 UNK         0.0000 
     66 H66        -2.5136   50.3963   30.2303 H         1 UNK         0.0000 
     67 H67        -3.8441   50.2461   31.7386 H         1 UNK         0.0000 
     68 H68        -6.0152   49.3872   32.8218 H         1 UNK         0.0000 
     69 H69        -7.9970   49.2129   31.0675 H         1 UNK         0.0000 
@<TRIPOS>BOND
     1    1    2 1    
     2    1   38 1    
     3    1   39 1    
     4    1   40 1    
     5    2    7 ar   
     6    2    3 ar   
     7    3    4 ar   
     8    3   41 1    
     9    4    5 ar   
    10    4   42 1    
    11    5    6 ar   
    12    5    8 1    
    13    6    7 ar   
    14    6   43 1    
    15    7   44 1    
    16    8    9 2    
    17    8   10 am   BACKBONE|DICT|INTERRES
    18   10   15 1    
    19   10   11 1    
    20   11   12 1    
    21   11   45 1    
    22   11   46 1    
    23   12   13 1    
    24   12   47 1    
    25   12   48 1    
    26   13   14 1    
    27   13   16 1    
    28   14   15 1    
    29   14   49 1    
    30   14   50 1    
    31   15   51 1    
    32   15   52 1    
    33   16   21 ar   
    34   16   17 ar   
    35   17   18 ar   
    36   17   53 1    
    37   18   19 ar   
    38   18   54 1    
    39   19   20 ar   
    40   19   30 1    
    41   20   21 ar   
    42   20   55 1    
    43   21   22 1    
    44   22   23 2    
    45   22   24 am   BACKBONE|DICT|INTERRES
    46   24   29 1    
    47   24   25 1    
    48   25   26 1    
    49   25   56 1    
    50   25   57 1    
    51   26   27 1    
    52   26   58 1    
    53   26   59 1    
    54   27   28 1    
    55   27   60 1    
    56   27   61 1    
    57   28   29 1    
    58   28   62 1    
    59   28   63 1    
    60   29   64 1    
    61   29   65 1    
    62   30   31 am   BACKBONE|DICT|INTERRES
    63   30   66 1    
    64   31   32 2    
    65   31   33 1    
    66   33   37 1    
    67   33   34 2    
    68   34   35 1    
    69   34   67 1    
    70   35   36 2    
    71   35   68 1    
    72   36   37 1    
    73   36   69 1    
@<TRIPOS>SUBSTRUCTURE
     1 UNK         1 GROUP             0       ****    0 ROOT    
