@<TRIPOS>MOLECULE
ZINC35523524_6045
66   70    1
SMALL
USER_CHARGES


@<TRIPOS>ATOM
      1 C1          5.5805   53.5184   28.1511 C.3       1 UNK         0.0000 
      2 C2          4.4286   54.3926   27.6132 C.3       1 UNK         0.0000 
      3 H3          4.4807   55.3063   28.1993 H         1 UNK         0.0000 
      4 C4          4.6123   54.8519   26.1521 C.3       1 UNK         0.0000 
      5 C5          4.7256   53.6974   25.1454 C.3       1 UNK         0.0000 
      6 C6          5.0890   54.1281   23.7336 C.ar      1 UNK         0.0000 
      7 C7          6.3633   54.6418   23.4725 C.ar      1 UNK         0.0000 
      8 C8          6.7036   55.0368   22.1827 C.ar      1 UNK         0.0000 
      9 C9          5.7763   54.8971   21.1517 C.ar      1 UNK         0.0000 
     10 C10         4.5097   54.3726   21.4015 C.ar      1 UNK         0.0000 
     11 C11         4.1613   53.9949   22.6963 C.ar      1 UNK         0.0000 
     12 N12         3.1115   53.8010   27.8789 N.am      1 UNK         0.0000 
     13 C13         2.5609   53.8016   29.1067 C.2       1 UNK         0.0000 
     14 O14         3.1038   54.3218   30.0816 O.2       1 UNK         0.0000 
     15 C15         1.3147   53.1106   29.2726 C.2       1 UNK         0.0000 
     16 C16         0.6570   52.7908   30.4508 C.2       1 UNK         0.0000 
     17 C17        -0.4835   52.0965   30.0879 C.2       1 UNK         0.0000 
     18 C18        -0.4975   52.0154   28.7074 C.2       1 UNK         0.0000 
     19 O19         0.5876   52.6706   28.2018 O.3       1 UNK         0.0000 
     20 C20        -1.5187   51.4047   27.7693 C.3       1 UNK         0.0000 
     21 N21        -0.9925   51.0329   26.3510 N.4       1 UNK         0.0000 
     22 C22         0.2075   50.0527   26.4243 C.3       1 UNK         0.0000 
     23 C23         0.7923   49.8634   25.0117 C.3       1 UNK         0.0000 
     24 N24        -0.2570   49.5783   24.0432 N.pl3     1 UNK         0.0000 
     25 C25        -0.0667   49.1269   22.7590 C.ar      1 UNK         0.0000 
     26 C26        -1.2833   49.0570   22.1118 C.ar      1 UNK         0.0000 
     27 C27        -2.2356   49.5088   23.0225 C.ar      1 UNK         0.0000 
     28 C28        -1.6059   49.8430   24.2219 C.ar      1 UNK         0.0000 
     29 C29        -2.1595   50.3911   25.5379 C.3       1 UNK         0.0000 
     30 H30        -2.5153   49.5622   26.1572 H         1 UNK         0.0000 
     31 C31        -3.2830   51.4134   25.3350 C.ar      1 UNK         0.0000 
     32 C32        -4.5515   51.1541   25.8699 C.ar      1 UNK         0.0000 
     33 C33        -5.5809   52.0796   25.7104 C.ar      1 UNK         0.0000 
     34 C34        -5.3524   53.2684   25.0227 C.ar      1 UNK         0.0000 
     35 C35        -4.0957   53.5344   24.4859 C.ar      1 UNK         0.0000 
     36 C36        -3.0620   52.6123   24.6398 C.ar      1 UNK         0.0000 
     37 F37        -1.8438   52.8963   24.1242 F         1 UNK         0.0000 
     38 F38        -6.3544   54.1631   24.8813 F         1 UNK         0.0000 
     39 H39         6.5490   53.9214   27.8586 H         1 UNK         0.0000 
     40 H40         5.5775   53.4926   29.2432 H         1 UNK         0.0000 
     41 H41         5.5255   52.4968   27.7826 H         1 UNK         0.0000 
     42 H42         3.7847   55.5017   25.8634 H         1 UNK         0.0000 
     43 H43         5.5079   55.4720   26.0952 H         1 UNK         0.0000 
     44 H44         5.5104   53.0261   25.4839 H         1 UNK         0.0000 
     45 H45         3.8019   53.1173   25.1414 H         1 UNK         0.0000 
     46 H46         7.0921   54.7394   24.2635 H         1 UNK         0.0000 
     47 H47         7.6874   55.4369   21.9834 H         1 UNK         0.0000 
     48 H48         6.0443   55.1952   20.1485 H         1 UNK         0.0000 
     49 H49         3.7968   54.2699   20.5957 H         1 UNK         0.0000 
     50 H50         3.1765   53.5943   22.8863 H         1 UNK         0.0000 
     51 H51         2.5798   53.4510   27.0951 H         1 UNK         0.0000 
     52 H52         0.9769   53.0171   31.4601 H         1 UNK         0.0000 
     53 H53        -1.2203   51.6837   30.7658 H         1 UNK         0.0000 
     54 H54        -1.9462   50.4967   28.1937 H         1 UNK         0.0000 
     55 H55        -2.3438   52.0965   27.6194 H         1 UNK         0.0000 
     56 H56         0.9625   50.4952   27.0729 H         1 UNK         0.0000 
     57 H57        -0.1187   49.1143   26.8740 H         1 UNK         0.0000 
     58 H58         1.3190   50.7566   24.6801 H         1 UNK         0.0000 
     59 H59         1.5042   49.0409   25.0037 H         1 UNK         0.0000 
     60 H60         0.9319   48.8969   22.4156 H         1 UNK         0.0000 
     61 H61        -1.4620   48.7298   21.0977 H         1 UNK         0.0000 
     62 H62        -3.2950   49.5963   22.8310 H         1 UNK         0.0000 
     63 H63        -4.7424   50.2372   26.4099 H         1 UNK         0.0000 
     64 H64        -6.5596   51.8773   26.1223 H         1 UNK         0.0000 
     65 H65        -3.9205   54.4574   23.9530 H         1 UNK         0.0000 
     66 H66        -0.7006   51.8879   25.8968 H         1 UNK         0.0000 
@<TRIPOS>BOND
     1    1    2 1    
     2    1   39 1    
     3    1   40 1    
     4    1   41 1    
     5    2    3 1    
     6    2    4 1    
     7    2   12 1    
     8    4    5 1    
     9    4   42 1    
    10    4   43 1    
    11    5    6 1    
    12    5   44 1    
    13    5   45 1    
    14    6   11 ar   
    15    6    7 ar   
    16    7    8 ar   
    17    7   46 1    
    18    8    9 ar   
    19    8   47 1    
    20    9   10 ar   
    21    9   48 1    
    22   10   11 ar   
    23   10   49 1    
    24   11   50 1    
    25   12   13 am   BACKBONE|DICT|INTERRES
    26   12   51 1    
    27   13   14 2    
    28   13   15 1    
    29   15   19 1    
    30   15   16 2    
    31   16   17 1    
    32   16   52 1    
    33   17   18 2    
    34   17   53 1    
    35   18   19 1    
    36   18   20 1    
    37   20   21 1    
    38   20   54 1    
    39   20   55 1    
    40   21   29 1    
    41   21   22 1    
    42   21   66 1    
    43   22   23 1    
    44   22   56 1    
    45   22   57 1    
    46   23   24 1    
    47   23   58 1    
    48   23   59 1    
    49   24   28 ar   
    50   24   25 ar   
    51   25   26 ar   
    52   25   60 1    
    53   26   27 ar   
    54   26   61 1    
    55   27   28 ar   
    56   27   62 1    
    57   28   29 1    
    58   29   30 1    
    59   29   31 1    
    60   31   36 ar   
    61   31   32 ar   
    62   32   33 ar   
    63   32   63 1    
    64   33   34 ar   
    65   33   64 1    
    66   34   35 ar   
    67   34   38 1    
    68   35   36 ar   
    69   35   65 1    
    70   36   37 1    
@<TRIPOS>SUBSTRUCTURE
     1 UNK         1 GROUP             0       ****    0 ROOT    
