ZINC35729066_4500
                    3D
 Schrodinger Suite 2024-2.
 52 54  0  0  1  0            999 V2000
    2.7812   56.3946   16.8866 C   0  0  0  0  0  0
    3.8396   55.8632   17.8667 C   0  0  0  0  0  0
    4.3864   54.4617   17.5046 C   0  0  2  0  0  0
    4.7308   54.5282   16.4691 H   0  0  0  0  0  0
    3.2628   53.3981   17.5059 C   0  0  0  0  0  0
    5.6568   54.0915   18.3420 C   0  0  1  0  0  0
    6.3589   54.9249   18.2515 H   0  0  0  0  0  0
    5.3249   53.8977   19.8422 C   0  0  0  0  0  0
    4.6258   52.9492   20.2026 O   0  0  0  0  0  0
    5.9039   54.7952   20.6687 N   0  0  0  0  0  0
    5.9089   54.7541   22.0521 C   0  0  0  0  0  0
    6.8796   55.2969   22.7383 N   0  0  0  0  0  0
    6.7034   55.1757   24.1112 N   0  0  0  0  0  0
    5.5776   54.5801   24.4384 C   0  0  0  0  0  0
    4.6325   54.0961   23.0486 S   0  0  0  0  0  0
    5.1259   54.3551   25.8505 C   0  0  0  0  0  0
    6.0556   54.4162   26.8976 C   0  0  0  0  0  0
    5.6462   54.2408   28.2163 C   0  0  0  0  0  0
    4.3041   54.0040   28.5002 C   0  0  0  0  0  0
    3.3712   53.9301   27.4697 C   0  0  0  0  0  0
    3.7801   54.1036   26.1481 C   0  0  0  0  0  0
    3.9018   53.8552   29.7830 F   0  0  0  0  0  0
    6.3280   52.8968   17.8222 N   0  0  0  0  0  0
    7.3555   52.9058   16.9583 C   0  0  0  0  0  0
    7.7225   53.9122   16.3498 O   0  0  0  0  0  0
    7.9480   51.6991   16.8798 N   0  0  0  0  0  0
    8.9818   51.3024   16.0116 C   0  0  0  0  0  0
    9.8276   50.2711   16.4358 C   0  0  0  0  0  0
   10.8234   49.7805   15.5888 C   0  0  0  0  0  0
   10.9826   50.3208   14.3108 C   0  0  0  0  0  0
   10.1494   51.3549   13.8835 C   0  0  0  0  0  0
    9.1526   51.8443   14.7265 C   0  0  0  0  0  0
   10.3590   52.0971   12.1427 Br  0  0  0  0  0  0
    2.7653   57.4839   16.8805 H   0  0  0  0  0  0
    2.9729   56.0647   15.8656 H   0  0  0  0  0  0
    1.7851   56.0527   17.1677 H   0  0  0  0  0  0
    3.4209   55.8372   18.8737 H   0  0  0  0  0  0
    4.6623   56.5782   17.9071 H   0  0  0  0  0  0
    2.7445   53.3530   18.4641 H   0  0  0  0  0  0
    2.5125   53.6121   16.7439 H   0  0  0  0  0  0
    3.6556   52.4025   17.2930 H   0  0  0  0  0  0
    6.5403   55.4544   20.2491 H   0  0  0  0  0  0
    7.1003   54.6001   26.6972 H   0  0  0  0  0  0
    6.3666   54.3033   29.0177 H   0  0  0  0  0  0
    2.3325   53.7429   27.6961 H   0  0  0  0  0  0
    3.0407   54.0522   25.3638 H   0  0  0  0  0  0
    5.9090   52.0002   18.0818 H   0  0  0  0  0  0
    7.6324   50.9986   17.5365 H   0  0  0  0  0  0
    9.7107   49.8373   17.4199 H   0  0  0  0  0  0
   11.4688   48.9797   15.9173 H   0  0  0  0  0  0
   11.7444   49.9353   13.6467 H   0  0  0  0  0  0
    8.5016   52.6251   14.3638 H   0  0  0  0  0  0
  1  2  1  0  0  0
  1 34  1  0  0  0
  1 35  1  0  0  0
  1 36  1  0  0  0
  2  3  1  0  0  0
  2 37  1  0  0  0
  2 38  1  0  0  0
  3  4  1  0  0  0
  3  5  1  0  0  0
  3  6  1  0  0  0
  5 39  1  0  0  0
  5 40  1  0  0  0
  5 41  1  0  0  0
  6  7  1  0  0  0
  6  8  1  0  0  0
  6 23  1  0  0  0
  8  9  2  0  0  0
  8 10  1  0  0  0
 10 11  1  0  0  0
 10 42  1  0  0  0
 11 15  1  0  0  0
 11 12  2  0  0  0
 12 13  1  0  0  0
 13 14  2  0  0  0
 14 15  1  0  0  0
 14 16  1  0  0  0
 16 21  2  0  0  0
 16 17  1  0  0  0
 17 18  2  0  0  0
 17 43  1  0  0  0
 18 19  1  0  0  0
 18 44  1  0  0  0
 19 20  2  0  0  0
 19 22  1  0  0  0
 20 21  1  0  0  0
 20 45  1  0  0  0
 21 46  1  0  0  0
 23 24  1  0  0  0
 23 47  1  0  0  0
 24 25  2  0  0  0
 24 26  1  0  0  0
 26 27  1  0  0  0
 26 48  1  0  0  0
 27 32  2  0  0  0
 27 28  1  0  0  0
 28 29  2  0  0  0
 28 49  1  0  0  0
 29 30  1  0  0  0
 29 50  1  0  0  0
 30 31  2  0  0  0
 30 51  1  0  0  0
 31 32  1  0  0  0
 31 33  1  0  0  0
 32 52  1  0  0  0
M  END
> <i_i_glide_confnum>
102

> <i_i_glide_lignum>
4501

> <i_i_glide_posenum>
50

> <i_i_glide_rotatable_bonds>
10

> <i_m_Source_File_Index>
4626

> <b_m_subgroup_collapsed>
0

> <r_i_docking_score>
-5.38052

> <r_i_glide_ecoul>
-3.55583

> <r_i_glide_eff_state_penalty>
0

> <r_i_glide_einternal>
6.34269

> <r_i_glide_emodel>
-59.6779

> <r_i_glide_energy>
-46.1839

> <r_i_glide_erotb>
0.638286

> <r_i_glide_esite>
-0.151418

> <r_i_glide_evdw>
-42.6281

> <r_i_glide_gscore>
-5.38052

> <r_i_glide_hbond>
-0.188346

> <r_i_glide_ligand_efficiency>
-0.173565

> <r_i_glide_ligand_efficiency_ln>
-1.21347

> <r_i_glide_ligand_efficiency_sa>
-0.545235

> <r_i_glide_lipo>
-2.93887

> <r_i_glide_metal>
0

> <r_i_glide_rewards>
-0.0753946

> <s_i_glide_gridfile>
wee1_glide-grid

> <s_m_Source_File>
wee1_decoys_glide_SP.sdf

> <s_m_Source_Path>
/Users/zhangxujun/Desktop

> <s_m_entry_id>
4901

> <s_m_entry_name>
wee1_decoys_glide_SP.4626

> <s_m_subgroup_title>
wee1_decoys_glide_SP

> <s_m_subgroupid>
wee1_decoys_glide_SP


$$$$
