@<TRIPOS>MOLECULE
ZINC35004422_3735
79   82    1
SMALL
USER_CHARGES


@<TRIPOS>ATOM
      1 C1         -2.0920   46.7498   25.9520 C.3       1 UNK         0.0000 
      2 C2         -1.9698   46.9560   24.4351 C.3       1 UNK         0.0000 
      3 C3         -2.2134   48.3988   23.9265 C.3       1 UNK         0.0000 
      4 H4         -2.2358   48.2867   22.8416 H         1 UNK         0.0000 
      5 C5         -3.6280   48.8973   24.3101 C.3       1 UNK         0.0000 
      6 C6         -1.0371   49.3801   24.2663 C.3       1 UNK         0.0000 
      7 H7         -0.0944   48.8452   24.1827 H         1 UNK         0.0000 
      8 C8         -1.0887   50.5913   23.2730 C.2       1 UNK         0.0000 
      9 O9         -1.9778   51.4329   23.4442 O.2       1 UNK         0.0000 
     10 N10        -0.1610   50.7097   22.2794 N.am      1 UNK         0.0000 
     11 C11         0.8574   49.7118   21.9233 C.3       1 UNK         0.0000 
     12 C12         2.2481   50.3202   22.2114 C.3       1 UNK         0.0000 
     13 N13         2.3892   51.5600   21.4129 N.am      1 UNK         0.0000 
     14 C14         1.3320   52.5931   21.5957 C.3       1 UNK         0.0000 
     15 H15         1.3825   53.2959   20.7661 H         1 UNK         0.0000 
     16 C16        -0.0803   51.9425   21.4788 C.3       1 UNK         0.0000 
     17 C17         1.5266   53.4018   22.8968 C.3       1 UNK         0.0000 
     18 C18         3.6303   51.8955   20.9556 C.2       1 UNK         0.0000 
     19 O19         4.6579   51.2968   21.2813 O.2       1 UNK         0.0000 
     20 N20         3.6645   52.8982   20.0553 N.am      1 UNK         0.0000 
     21 C21         4.8636   53.3990   19.3831 C.3       1 UNK         0.0000 
     22 C22         4.4862   54.0193   18.0293 C.3       1 UNK         0.0000 
     23 C23         5.6354   54.3959   20.2662 C.3       1 UNK         0.0000 
     24 N24        -1.0528   49.8086   25.6788 N.am      1 UNK         0.0000 
     25 C25        -0.1808   50.6804   26.2082 C.2       1 UNK         0.0000 
     26 O26         0.7044   51.2359   25.5628 O.2       1 UNK         0.0000 
     27 N27        -0.3947   50.8978   27.5117 N.am      1 UNK         0.0000 
     28 C28         0.3109   51.8690   28.3680 C.3       1 UNK         0.0000 
     29 C29        -0.3771   51.8925   29.7623 C.3       1 UNK         0.0000 
     30 C30         0.3785   52.8005   30.7634 C.3       1 UNK         0.0000 
     31 C31         1.8514   52.3319   30.8958 C.3       1 UNK         0.0000 
     32 C32         2.5528   52.4438   29.5237 C.3       1 UNK         0.0000 
     33 C33         1.8198   51.5098   28.5365 C.3       1 UNK         0.0000 
     34 C34         2.4824   53.8977   28.9935 C.3       1 UNK         0.0000 
     35 C35         0.9984   54.3120   28.8286 C.3       1 UNK         0.0000 
     36 C36         0.3050   54.2413   30.2092 C.3       1 UNK         0.0000 
     37 C37         0.2824   53.3399   27.8437 C.3       1 UNK         0.0000 
     38 H38        -2.0024   45.6969   26.2165 H         1 UNK         0.0000 
     39 H39        -1.2993   47.2745   26.4816 H         1 UNK         0.0000 
     40 H40        -3.0445   47.1034   26.3483 H         1 UNK         0.0000 
     41 H41        -2.6680   46.2828   23.9378 H         1 UNK         0.0000 
     42 H42        -0.9770   46.6283   24.1208 H         1 UNK         0.0000 
     43 H43        -3.7124   49.1055   25.3760 H         1 UNK         0.0000 
     44 H44        -3.9001   49.8088   23.7795 H         1 UNK         0.0000 
     45 H45        -4.3845   48.1534   24.0615 H         1 UNK         0.0000 
     46 H46         0.7672   49.5161   20.8526 H         1 UNK         0.0000 
     47 H47         0.7280   48.7350   22.3832 H         1 UNK         0.0000 
     48 H48         3.0103   49.5808   21.9597 H         1 UNK         0.0000 
     49 H49         2.3060   50.5554   23.2748 H         1 UNK         0.0000 
     50 H50        -0.2671   51.6897   20.4352 H         1 UNK         0.0000 
     51 H51        -0.8462   52.6686   21.7528 H         1 UNK         0.0000 
     52 H52         0.7055   54.0925   23.0740 H         1 UNK         0.0000 
     53 H53         1.5876   52.7583   23.7723 H         1 UNK         0.0000 
     54 H54         2.4299   54.0100   22.8476 H         1 UNK         0.0000 
     55 H55         2.7948   53.3325   19.7838 H         1 UNK         0.0000 
     56 H56         5.5180   52.5481   19.1673 H         1 UNK         0.0000 
     57 H57         5.3671   54.4186   17.5255 H         1 UNK         0.0000 
     58 H58         3.7892   54.8501   18.1482 H         1 UNK         0.0000 
     59 H59         4.0487   53.2762   17.3610 H         1 UNK         0.0000 
     60 H60         6.5544   54.7206   19.7774 H         1 UNK         0.0000 
     61 H61         5.0500   55.2950   20.4532 H         1 UNK         0.0000 
     62 H62         5.9034   53.9594   21.2280 H         1 UNK         0.0000 
     63 H63        -1.6863   49.3108   26.2916 H         1 UNK         0.0000 
     64 H64        -1.0142   50.2536   27.9905 H         1 UNK         0.0000 
     65 H65        -1.4026   52.2388   29.6559 H         1 UNK         0.0000 
     66 H66        -0.4964   50.8967   30.1586 H         1 UNK         0.0000 
     67 H67        -0.0963   52.7569   31.7418 H         1 UNK         0.0000 
     68 H68         2.3807   52.8967   31.6556 H         1 UNK         0.0000 
     69 H69         1.8942   51.3080   31.2590 H         1 UNK         0.0000 
     70 H70         3.5961   52.1380   29.6151 H         1 UNK         0.0000 
     71 H71         1.9229   50.4945   28.8814 H         1 UNK         0.0000 
     72 H72         2.3110   51.5506   27.5678 H         1 UNK         0.0000 
     73 H73         2.9967   54.5794   29.6728 H         1 UNK         0.0000 
     74 H74         3.0018   53.9737   28.0376 H         1 UNK         0.0000 
     75 H75         0.9447   55.3299   28.4391 H         1 UNK         0.0000 
     76 H76        -0.7448   54.5037   30.0890 H         1 UNK         0.0000 
     77 H77         0.7417   54.9555   30.9095 H         1 UNK         0.0000 
     78 H78         0.7710   53.3934   26.8702 H         1 UNK         0.0000 
     79 H79        -0.7487   53.6551   27.6850 H         1 UNK         0.0000 
@<TRIPOS>BOND
     1    1    2 1    
     2    1   38 1    
     3    1   39 1    
     4    1   40 1    
     5    2    3 1    
     6    2   41 1    
     7    2   42 1    
     8    3    4 1    
     9    3    5 1    
    10    3    6 1    
    11    5   43 1    
    12    5   44 1    
    13    5   45 1    
    14    6    7 1    
    15    6    8 1    
    16    6   24 1    
    17    8    9 2    
    18    8   10 am   BACKBONE|DICT|INTERRES
    19   10   16 1    
    20   10   11 1    
    21   11   12 1    
    22   11   46 1    
    23   11   47 1    
    24   12   13 1    
    25   12   48 1    
    26   12   49 1    
    27   13   14 1    
    28   13   18 am   BACKBONE|DICT|INTERRES
    29   14   15 1    
    30   14   16 1    
    31   14   17 1    
    32   16   50 1    
    33   16   51 1    
    34   17   52 1    
    35   17   53 1    
    36   17   54 1    
    37   18   19 2    
    38   18   20 am   BACKBONE|DICT|INTERRES
    39   20   21 1    
    40   20   55 1    
    41   21   22 1    
    42   21   23 1    
    43   21   56 1    
    44   22   57 1    
    45   22   58 1    
    46   22   59 1    
    47   23   60 1    
    48   23   61 1    
    49   23   62 1    
    50   24   25 am   BACKBONE|DICT|INTERRES
    51   24   63 1    
    52   25   26 2    
    53   25   27 am   BACKBONE|DICT|INTERRES
    54   27   28 1    
    55   27   64 1    
    56   28   33 1    
    57   28   37 1    
    58   28   29 1    
    59   29   30 1    
    60   29   65 1    
    61   29   66 1    
    62   30   36 1    
    63   30   31 1    
    64   30   67 1    
    65   31   32 1    
    66   31   68 1    
    67   31   69 1    
    68   32   33 1    
    69   32   34 1    
    70   32   70 1    
    71   33   71 1    
    72   33   72 1    
    73   34   35 1    
    74   34   73 1    
    75   34   74 1    
    76   35   36 1    
    77   35   37 1    
    78   35   75 1    
    79   36   76 1    
    80   36   77 1    
    81   37   78 1    
    82   37   79 1    
@<TRIPOS>SUBSTRUCTURE
     1 UNK         1 GROUP             0       ****    0 ROOT    
