@<TRIPOS>MOLECULE
ZINC17099034_1959
59   62    1
SMALL
USER_CHARGES


@<TRIPOS>ATOM
      1 C1          3.6906   55.3599   15.5826 C.3       1 UNK         0.0000 
      2 C2          2.8099   54.2094   16.0946 C.3       1 UNK         0.0000 
      3 C3          3.5965   53.2394   17.0067 C.3       1 UNK         0.0000 
      4 C4          2.7041   52.0879   17.5096 C.3       1 UNK         0.0000 
      5 N5          1.4896   52.6322   18.1709 N.pl3     1 UNK         0.0000 
      6 C6          0.6775   53.5780   17.3622 C.3       1 UNK         0.0000 
      7 C7          1.5617   54.7313   16.8442 C.3       1 UNK         0.0000 
      8 S8          0.6520   51.5936   19.3443 S.o2      1 UNK         0.0000 
      9 O9          1.1014   50.2094   19.1607 O.2       1 UNK         0.0000 
     10 O10        -0.7788   51.9287   19.3318 O.2       1 UNK         0.0000 
     11 C11         1.2687   52.0963   20.9501 C.ar      1 UNK         0.0000 
     12 C12         2.5969   52.4971   21.1115 C.ar      1 UNK         0.0000 
     13 C13         3.0372   52.9535   22.3527 C.ar      1 UNK         0.0000 
     14 C14         2.1665   52.9810   23.4451 C.ar      1 UNK         0.0000 
     15 C15         0.8417   52.5441   23.2787 C.ar      1 UNK         0.0000 
     16 C16         0.3993   52.0968   22.0392 C.ar      1 UNK         0.0000 
     17 N17         2.6949   53.4670   24.6590 N.am      1 UNK         0.0000 
     18 C18         2.1752   53.3919   25.9039 C.2       1 UNK         0.0000 
     19 O19         1.0920   52.8735   26.1694 O.2       1 UNK         0.0000 
     20 C20         2.9848   54.0917   27.0224 C.3       1 UNK         0.0000 
     21 H21         3.1042   55.0904   26.5975 H         1 UNK         0.0000 
     22 C22         4.4302   53.4744   27.1951 C.3       1 UNK         0.0000 
     23 H23         4.5135   52.4968   26.7274 H         1 UNK         0.0000 
     24 C24         4.7142   53.2950   28.7230 C.3       1 UNK         0.0000 
     25 C25         4.5125   54.6411   29.4595 C.3       1 UNK         0.0000 
     26 C26         3.0589   55.1764   29.2819 C.3       1 UNK         0.0000 
     27 C27         2.2361   54.2147   28.3915 C.3       1 UNK         0.0000 
     28 C28         2.2206   52.8328   29.1132 C.3       1 UNK         0.0000 
     29 C29         3.6708   52.3082   29.3250 C.3       1 UNK         0.0000 
     30 C30         5.5243   54.2875   26.4400 C.2       1 UNK         0.0000 
     31 O31         6.6863   54.3222   26.9046 O.co2     1 UNK         0.0000 
     32 O32         5.2109   54.7211   25.3062 O.co2     1 UNK         0.0000 
     33 H33         4.0648   55.9720   16.4030 H         1 UNK         0.0000 
     34 H34         4.5515   54.9799   15.0317 H         1 UNK         0.0000 
     35 H35         3.1352   56.0119   14.9106 H         1 UNK         0.0000 
     36 H36         2.4549   53.6322   15.2377 H         1 UNK         0.0000 
     37 H37         4.0153   53.7801   17.8576 H         1 UNK         0.0000 
     38 H38         4.4648   52.8411   16.4792 H         1 UNK         0.0000 
     39 H39         3.2441   51.4317   18.1929 H         1 UNK         0.0000 
     40 H40         2.3915   51.5210   16.6310 H         1 UNK         0.0000 
     41 H41         0.3061   53.0450   16.4863 H         1 UNK         0.0000 
     42 H42        -0.1493   53.9630   17.9599 H         1 UNK         0.0000 
     43 H43         0.9859   55.3957   16.1995 H         1 UNK         0.0000 
     44 H44         1.8703   55.3598   17.6813 H         1 UNK         0.0000 
     45 H45         3.2826   52.4891   20.2772 H         1 UNK         0.0000 
     46 H46         4.0607   53.2861   22.4572 H         1 UNK         0.0000 
     47 H47         0.1255   52.5554   24.0838 H         1 UNK         0.0000 
     48 H48        -0.6252   51.7747   21.9239 H         1 UNK         0.0000 
     49 H49         3.6220   53.8873   24.6107 H         1 UNK         0.0000 
     50 H50         5.7223   52.9063   28.8817 H         1 UNK         0.0000 
     51 H51         4.7044   54.4967   30.5190 H         1 UNK         0.0000 
     52 H52         5.2563   55.3624   29.1243 H         1 UNK         0.0000 
     53 H53         2.5737   55.2738   30.2535 H         1 UNK         0.0000 
     54 H54         3.0683   56.1862   28.8814 H         1 UNK         0.0000 
     55 H55         1.2212   54.5966   28.2638 H         1 UNK         0.0000 
     56 H56         1.6405   52.1031   28.5482 H         1 UNK         0.0000 
     57 H57         1.7117   52.9198   30.0747 H         1 UNK         0.0000 
     58 H58         3.8628   52.1679   30.3901 H         1 UNK         0.0000 
     59 H59         3.7711   51.3214   28.8816 H         1 UNK         0.0000 
@<TRIPOS>BOND
     1    1    2 1    
     2    1   33 1    
     3    1   34 1    
     4    1   35 1    
     5    2    7 1    
     6    2    3 1    
     7    2   36 1    
     8    3    4 1    
     9    3   37 1    
    10    3   38 1    
    11    4    5 1    
    12    4   39 1    
    13    4   40 1    
    14    5    6 1    
    15    5    8 1    
    16    6    7 1    
    17    6   41 1    
    18    6   42 1    
    19    7   43 1    
    20    7   44 1    
    21    8    9 2    
    22    8   10 2    
    23    8   11 1    
    24   11   16 ar   
    25   11   12 ar   
    26   12   13 ar   
    27   12   45 1    
    28   13   14 ar   
    29   13   46 1    
    30   14   15 ar   
    31   14   17 1    
    32   15   16 ar   
    33   15   47 1    
    34   16   48 1    
    35   17   18 am   BACKBONE|DICT|INTERRES
    36   17   49 1    
    37   18   19 2    
    38   18   20 1    
    39   20   21 1    
    40   20   27 1    
    41   20   22 1    
    42   22   23 1    
    43   22   24 1    
    44   22   30 1    
    45   24   29 1    
    46   24   25 1    
    47   24   50 1    
    48   25   26 1    
    49   25   51 1    
    50   25   52 1    
    51   26   27 1    
    52   26   53 1    
    53   26   54 1    
    54   27   28 1    
    55   27   55 1    
    56   28   29 1    
    57   28   56 1    
    58   28   57 1    
    59   29   58 1    
    60   29   59 1    
    61   30   31 2    
    62   30   32 1    
@<TRIPOS>SUBSTRUCTURE
     1 UNK         1 GROUP             0       ****    0 ROOT    
