@<TRIPOS>MOLECULE
ZINC02677912_4210
54   57    1
SMALL
USER_CHARGES


@<TRIPOS>ATOM
      1 C1          3.9976   54.3551   25.7066 C.ar      1 UNK         0.0000 
      2 C2          3.9736   54.4968   27.0868 C.ar      1 UNK         0.0000 
      3 C3          5.1679   54.5817   27.7888 C.ar      1 UNK         0.0000 
      4 C4          6.3905   54.4972   27.1209 C.ar      1 UNK         0.0000 
      5 C5          6.4118   54.3458   25.7344 C.ar      1 UNK         0.0000 
      6 C6          5.2104   54.2714   25.0210 C.ar      1 UNK         0.0000 
      7 C7          5.1926   54.0970   23.5393 C.2       1 UNK         0.0000 
      8 C8          6.1164   54.3267   22.5321 C.2       1 UNK         0.0000 
      9 C9          5.4936   53.9786   21.3333 C.2       1 UNK         0.0000 
     10 C10         4.2225   53.5078   21.6363 C.2       1 UNK         0.0000 
     11 O11         4.0497   53.6037   22.9811 O.3       1 UNK         0.0000 
     12 C12         3.1450   53.0008   20.7889 C.2       1 UNK         0.0000 
     13 C13         1.9262   52.4854   21.1146 C.2       1 UNK         0.0000 
     14 C14         0.9725   52.0963   20.0612 C.2       1 UNK         0.0000 
     15 O15        -0.2472   52.0957   20.2555 O.2       1 UNK         0.0000 
     16 N16         1.4880   51.7834   18.8519 N.am      1 UNK         0.0000 
     17 C17         0.7157   51.4546   17.6536 C.3       1 UNK         0.0000 
     18 H18         0.1560   50.5219   17.7763 H         1 UNK         0.0000 
     19 C19         1.6904   51.2624   16.4707 C.3       1 UNK         0.0000 
     20 C20         0.8971   51.1838   15.1600 C.3       1 UNK         0.0000 
     21 S21        -0.4883   52.4184   15.3851 S.o2      1 UNK         0.0000 
     22 O22        -0.1555   53.6911   14.7369 O.2       1 UNK         0.0000 
     23 O23        -1.7638   51.7498   15.1117 O.2       1 UNK         0.0000 
     24 C24        -0.2397   52.5924   17.2318 C.3       1 UNK         0.0000 
     25 N25         1.5412   52.3997   22.4330 N.am      1 UNK         0.0000 
     26 C26         0.9813   51.3435   23.0743 C.2       1 UNK         0.0000 
     27 O27         0.7021   50.2779   22.5191 O.2       1 UNK         0.0000 
     28 C28         0.7140   51.5224   24.5562 C.ar      1 UNK         0.0000 
     29 C29         0.3045   50.4212   25.3237 C.ar      1 UNK         0.0000 
     30 C30         0.1340   50.5479   26.6989 C.ar      1 UNK         0.0000 
     31 C31         0.3685   51.7649   27.3269 C.ar      1 UNK         0.0000 
     32 C32         0.7453   52.8748   26.5816 C.ar      1 UNK         0.0000 
     33 C33         0.8926   52.7593   25.1991 C.ar      1 UNK         0.0000 
     34 Cl34        0.1873   51.8981   29.0374 Cl        1 UNK         0.0000 
     35 Cl35        5.1052   54.8951   29.4837 Cl        1 UNK         0.0000 
     36 H36         3.0683   54.3330   25.1650 H         1 UNK         0.0000 
     37 H37         3.0310   54.5835   27.6066 H         1 UNK         0.0000 
     38 H38         7.3146   54.5721   27.6769 H         1 UNK         0.0000 
     39 H39         7.3582   54.2823   25.2107 H         1 UNK         0.0000 
     40 H40         7.1165   54.7200   22.6514 H         1 UNK         0.0000 
     41 H41         5.9192   54.0490   20.3431 H         1 UNK         0.0000 
     42 H42         3.4245   53.0895   19.7485 H         1 UNK         0.0000 
     43 H43         2.4891   51.6700   18.7742 H         1 UNK         0.0000 
     44 H44         2.4040   52.0884   16.4271 H         1 UNK         0.0000 
     45 H45         2.3043   50.3743   16.6169 H         1 UNK         0.0000 
     46 H46         1.4323   51.3670   14.2278 H         1 UNK         0.0000 
     47 H47         0.4423   50.1962   15.1001 H         1 UNK         0.0000 
     48 H48        -1.1597   52.7584   17.7898 H         1 UNK         0.0000 
     49 H49         0.3394   53.5143   17.3087 H         1 UNK         0.0000 
     50 H50         2.0077   53.0554   23.0406 H         1 UNK         0.0000 
     51 H51         0.1522   49.4491   24.8753 H         1 UNK         0.0000 
     52 H52        -0.1663   49.6966   27.2816 H         1 UNK         0.0000 
     53 H53         0.9267   53.8127   27.0828 H         1 UNK         0.0000 
     54 H54         1.1468   53.6461   24.6397 H         1 UNK         0.0000 
@<TRIPOS>BOND
     1    1    6 ar   
     2    1    2 ar   
     3    1   36 1    
     4    2    3 ar   
     5    2   37 1    
     6    3    4 ar   
     7    3   35 1    
     8    4    5 ar   
     9    4   38 1    
    10    5    6 ar   
    11    5   39 1    
    12    6    7 1    
    13    7   11 1    
    14    7    8 2    
    15    8    9 1    
    16    8   40 1    
    17    9   10 2    
    18    9   41 1    
    19   10   11 1    
    20   10   12 1    
    21   12   13 2    
    22   12   42 1    
    23   13   14 1    
    24   13   25 1    
    25   14   15 2    
    26   14   16 am   BACKBONE|DICT|INTERRES
    27   16   17 1    
    28   16   43 1    
    29   17   18 1    
    30   17   24 1    
    31   17   19 1    
    32   19   20 1    
    33   19   44 1    
    34   19   45 1    
    35   20   21 1    
    36   20   46 1    
    37   20   47 1    
    38   21   22 2    
    39   21   23 2    
    40   21   24 1    
    41   24   48 1    
    42   24   49 1    
    43   25   26 am   BACKBONE|DICT|INTERRES
    44   25   50 1    
    45   26   27 2    
    46   26   28 1    
    47   28   33 ar   
    48   28   29 ar   
    49   29   30 ar   
    50   29   51 1    
    51   30   31 ar   
    52   30   52 1    
    53   31   32 ar   
    54   31   34 1    
    55   32   33 ar   
    56   32   53 1    
    57   33   54 1    
@<TRIPOS>SUBSTRUCTURE
     1 UNK         1 GROUP             0       ****    0 ROOT    
