ZINC63376042_506
                    3D
 Schrodinger Suite 2024-2.
 59 63  0  0  1  0            999 V2000
    8.7969   61.2210   14.9881 C   0  0  0  0  0  0
    7.3997   60.7028   14.6367 C   0  0  0  0  0  0
    7.1108   59.5679   15.4400 O   0  0  0  0  0  0
    5.9004   58.9618   15.3668 C   0  0  0  0  0  0
    5.0119   59.2963   14.5772 O   0  0  0  0  0  0
    5.7259   57.8868   16.3941 C   0  0  0  0  0  0
    6.8280   57.2452   16.9789 C   0  0  0  0  0  0
    6.6376   56.2078   17.8867 C   0  0  0  0  0  0
    5.3408   55.8082   18.2298 C   0  0  0  0  0  0
    4.2380   56.4666   17.6734 C   0  0  0  0  0  0
    4.4308   57.4927   16.7544 C   0  0  0  0  0  0
    5.1398   54.7098   19.1069 N   0  0  0  0  0  0
    5.4352   54.8966   20.4514 C   0  0  0  0  0  0
    5.9044   55.9521   20.8878 O   0  0  0  0  0  0
    5.1325   53.7355   21.3098 C   0  0  0  0  0  0
    4.7033   52.6186   20.6847 C   0  0  0  0  0  0
    4.5328   52.4967   19.3537 N   0  0  0  0  0  0
    4.5661   51.5748   18.9155 H   0  0  0  0  0  0
    4.6942   53.5403   18.5056 C   0  0  0  0  0  0
    4.4091   53.3905   17.3162 O   0  0  0  0  0  0
    4.3532   51.5357   21.2816 O   0  5  0  0  0  0
    5.2735   53.8020   22.8435 C   0  0  2  0  0  0
    5.4216   52.7911   23.2216 H   0  0  0  0  0  0
    3.9669   54.3601   23.4626 C   0  0  2  0  0  0
    3.7076   55.2967   22.9877 H   0  0  0  0  0  0
    4.0944   54.4714   24.9677 C   0  0  0  0  0  0
    3.0532   53.8547   25.5482 C   0  0  0  0  0  0
    2.7018   53.6397   26.9590 C   0  0  0  0  0  0
    1.6096   52.9286   27.3138 C   0  0  0  0  0  0
    0.7909   52.3906   26.2181 C   0  0  0  0  0  0
    1.1071   52.5724   24.9086 C   0  0  0  0  0  0
    2.2509   53.2943   24.5509 C   0  0  0  0  0  0
    2.7569   53.5225   23.3568 N   0  3  0  0  0  0
    1.3601   52.7395   28.6395 O   0  0  0  0  0  0
    0.2483   51.9292   29.0157 C   0  0  0  0  0  0
    5.3600   55.1278   25.4937 C   0  0  0  0  0  0
    6.5718   54.4836   24.7838 C   0  0  0  0  0  0
    6.4366   54.5563   23.3286 N   0  0  0  0  0  0
    8.8513   61.5076   16.0386 H   0  0  0  0  0  0
    9.5570   60.4611   14.8054 H   0  0  0  0  0  0
    9.0475   62.0968   14.3899 H   0  0  0  0  0  0
    6.6581   61.4839   14.8169 H   0  0  0  0  0  0
    7.3494   60.4368   13.5796 H   0  0  0  0  0  0
    7.8394   57.5251   16.7197 H   0  0  0  0  0  0
    7.4942   55.7053   18.3121 H   0  0  0  0  0  0
    3.2342   56.1581   17.9289 H   0  0  0  0  0  0
    3.5644   57.9761   16.3233 H   0  0  0  0  0  0
    3.3189   54.0328   27.7533 H   0  0  0  0  0  0
   -0.0977   51.8197   26.4420 H   0  0  0  0  0  0
    0.4647   52.1401   24.1547 H   0  0  0  0  0  0
    0.1993   51.8665   30.1029 H   0  0  0  0  0  0
   -0.6958   52.3556   28.6727 H   0  0  0  0  0  0
    0.3394   50.9101   28.6347 H   0  0  0  0  0  0
    5.3583   56.1963   25.2833 H   0  0  0  0  0  0
    5.4550   55.0201   26.5743 H   0  0  0  0  0  0
    7.5030   54.9723   25.0709 H   0  0  0  0  0  0
    6.6904   53.4463   25.1027 H   0  0  0  0  0  0
    7.2708   54.1991   22.8834 H   0  0  0  0  0  0
    2.3823   53.1854   22.4727 H   0  0  0  0  0  0
  1  2  1  0  0  0
  1 39  1  0  0  0
  1 40  1  0  0  0
  1 41  1  0  0  0
  2  3  1  0  0  0
  2 42  1  0  0  0
  2 43  1  0  0  0
  3  4  1  0  0  0
  4  5  2  0  0  0
  4  6  1  0  0  0
  6 11  2  0  0  0
  6  7  1  0  0  0
  7  8  2  0  0  0
  7 44  1  0  0  0
  8  9  1  0  0  0
  8 45  1  0  0  0
  9 10  2  0  0  0
  9 12  1  0  0  0
 10 11  1  0  0  0
 10 46  1  0  0  0
 11 47  1  0  0  0
 12 19  1  0  0  0
 12 13  1  0  0  0
 13 14  2  0  0  0
 13 15  1  0  0  0
 15 22  1  0  0  0
 15 16  2  0  0  0
 16 21  1  0  0  0
 16 17  1  0  0  0
 17 18  1  0  0  0
 17 19  1  0  0  0
 19 20  2  0  0  0
 22 23  1  0  0  0
 22 38  1  0  0  0
 22 24  1  0  0  0
 24 25  1  0  0  0
 24 33  1  0  0  0
 24 26  1  0  0  0
 26 27  2  0  0  0
 26 36  1  0  0  0
 27 32  1  0  0  0
 27 28  1  0  0  0
 28 29  2  0  0  0
 28 48  1  0  0  0
 29 30  1  0  0  0
 29 34  1  0  0  0
 30 31  2  0  0  0
 30 49  1  0  0  0
 31 32  1  0  0  0
 31 50  1  0  0  0
 32 33  2  0  0  0
 33 59  1  0  0  0
 34 35  1  0  0  0
 35 51  1  0  0  0
 35 52  1  0  0  0
 35 53  1  0  0  0
 36 37  1  0  0  0
 36 54  1  0  0  0
 36 55  1  0  0  0
 37 38  1  0  0  0
 37 56  1  0  0  0
 37 57  1  0  0  0
 38 58  1  0  0  0
M  CHG  2  21  -1  33   1
M  END
> <i_i_glide_confnum>
9

> <i_i_glide_lignum>
507

> <i_i_glide_posenum>
250

> <i_i_glide_rotatable_bonds>
6

> <i_m_Source_File_Index>
5371

> <b_m_subgroup_collapsed>
0

> <r_i_docking_score>
-5.48884

> <r_i_glide_ecoul>
-4.22482

> <r_i_glide_eff_state_penalty>
0

> <r_i_glide_einternal>
7.52407

> <r_i_glide_emodel>
-52.0565

> <r_i_glide_energy>
-41.2324

> <r_i_glide_erotb>
0.356776

> <r_i_glide_esite>
-0.19506

> <r_i_glide_evdw>
-37.0076

> <r_i_glide_gscore>
-5.48884

> <r_i_glide_hbond>
-0.16

> <r_i_glide_ligand_efficiency>
-0.156824

> <r_i_glide_ligand_efficiency_ln>
-1.20492

> <r_i_glide_ligand_efficiency_sa>
-0.512982

> <r_i_glide_lipo>
-2.75359

> <r_i_glide_metal>
0

> <r_i_glide_rewards>
-0.25287

> <s_i_glide_gridfile>
wee1_glide-grid

> <s_m_Source_File>
wee1_decoys_glide_SP.sdf

> <s_m_Source_Path>
/Users/zhangxujun/Desktop

> <s_m_entry_id>
5646

> <s_m_entry_name>
wee1_decoys_glide_SP.5371

> <s_m_subgroup_title>
wee1_decoys_glide_SP

> <s_m_subgroupid>
wee1_decoys_glide_SP


$$$$
