@<TRIPOS>MOLECULE
ZINC28617190_4278
52   53    1
SMALL
USER_CHARGES


@<TRIPOS>ATOM
      1 C1          0.7046   52.2859   31.5459 C.3       1 UNK         0.0000 
      2 C2          1.7989   52.4966   30.5063 C.2       1 UNK         0.0000 
      3 O3          2.9739   52.3237   30.8321 O.2       1 UNK         0.0000 
      4 N4          1.3770   52.8388   29.2721 N.am      1 UNK         0.0000 
      5 C5          2.1457   53.1571   28.1343 C.ar      1 UNK         0.0000 
      6 C6          3.4802   53.5807   28.1839 C.ar      1 UNK         0.0000 
      7 C7          4.1627   53.9022   27.0143 C.ar      1 UNK         0.0000 
      8 C8          3.5288   53.8058   25.7660 C.ar      1 UNK         0.0000 
      9 C9          2.1773   53.4012   25.7035 C.ar      1 UNK         0.0000 
     10 C10         1.5055   53.0811   26.8941 C.ar      1 UNK         0.0000 
     11 C11         1.4323   53.3147   24.3577 C.3       1 UNK         0.0000 
     12 F12         0.1488   52.9765   24.4858 F         1 UNK         0.0000 
     13 F13         1.4861   54.4915   23.7255 F         1 UNK         0.0000 
     14 F14         2.0150   52.3978   23.5847 F         1 UNK         0.0000 
     15 N15         4.1763   54.0986   24.5489 N.am      1 UNK         0.0000 
     16 C16         5.4840   54.2477   24.2552 C.2       1 UNK         0.0000 
     17 O17         6.4054   54.2300   25.0721 O.2       1 UNK         0.0000 
     18 C18         5.7666   54.4973   22.7914 C.ar      1 UNK         0.0000 
     19 C19         6.8591   55.2931   22.4260 C.ar      1 UNK         0.0000 
     20 C20         7.1285   55.5713   21.0873 C.ar      1 UNK         0.0000 
     21 C21         6.2940   55.0734   20.0901 C.ar      1 UNK         0.0000 
     22 C22         5.1843   54.2841   20.4296 C.ar      1 UNK         0.0000 
     23 C23         4.9415   53.9838   21.7749 C.ar      1 UNK         0.0000 
     24 N24         4.3037   53.7286   19.4843 N.am      1 UNK         0.0000 
     25 C25         4.0062   54.1757   18.2410 C.2       1 UNK         0.0000 
     26 O26         4.4821   55.2097   17.7619 O.2       1 UNK         0.0000 
     27 C27         3.0091   53.3357   17.3818 C.3       1 UNK         0.0000 
     28 C28         2.3608   52.1550   18.1598 C.3       1 UNK         0.0000 
     29 C29         3.7741   52.7545   16.1656 C.3       1 UNK         0.0000 
     30 C30         1.8739   54.2576   16.8625 C.3       1 UNK         0.0000 
     31 H31         0.3083   53.2402   31.8947 H         1 UNK         0.0000 
     32 H32        -0.1184   51.6985   31.1379 H         1 UNK         0.0000 
     33 H33         1.0902   51.7488   32.4146 H         1 UNK         0.0000 
     34 H34         0.3797   52.8060   29.1230 H         1 UNK         0.0000 
     35 H35         4.0043   53.6863   29.1221 H         1 UNK         0.0000 
     36 H36         5.1847   54.2296   27.1073 H         1 UNK         0.0000 
     37 H37         0.4738   52.7610   26.8561 H         1 UNK         0.0000 
     38 H38         3.5557   54.1495   23.7552 H         1 UNK         0.0000 
     39 H39         7.5043   55.7038   23.1879 H         1 UNK         0.0000 
     40 H40         7.9936   56.1611   20.8202 H         1 UNK         0.0000 
     41 H41         6.5355   55.2861   19.0592 H         1 UNK         0.0000 
     42 H42         4.0968   53.3554   22.0201 H         1 UNK         0.0000 
     43 H43         3.7797   52.9225   19.7921 H         1 UNK         0.0000 
     44 H44         1.6613   51.6037   17.5303 H         1 UNK         0.0000 
     45 H45         1.8027   52.4996   19.0330 H         1 UNK         0.0000 
     46 H46         3.1040   51.4328   18.5007 H         1 UNK         0.0000 
     47 H47         4.2074   53.5365   15.5423 H         1 UNK         0.0000 
     48 H48         4.5857   52.0990   16.4797 H         1 UNK         0.0000 
     49 H49         3.1167   52.1637   15.5271 H         1 UNK         0.0000 
     50 H50         2.2592   55.0977   16.2800 H         1 UNK         0.0000 
     51 H51         1.1831   53.7133   16.2156 H         1 UNK         0.0000 
     52 H52         1.2850   54.6739   17.6809 H         1 UNK         0.0000 
@<TRIPOS>BOND
     1    1    2 1    
     2    1   31 1    
     3    1   32 1    
     4    1   33 1    
     5    2    3 2    
     6    2    4 am   BACKBONE|DICT|INTERRES
     7    4    5 1    
     8    4   34 1    
     9    5   10 ar   
    10    5    6 ar   
    11    6    7 ar   
    12    6   35 1    
    13    7    8 ar   
    14    7   36 1    
    15    8    9 ar   
    16    8   15 1    
    17    9   10 ar   
    18    9   11 1    
    19   10   37 1    
    20   11   12 1    
    21   11   13 1    
    22   11   14 1    
    23   15   16 am   BACKBONE|DICT|INTERRES
    24   15   38 1    
    25   16   17 2    
    26   16   18 1    
    27   18   23 ar   
    28   18   19 ar   
    29   19   20 ar   
    30   19   39 1    
    31   20   21 ar   
    32   20   40 1    
    33   21   22 ar   
    34   21   41 1    
    35   22   23 ar   
    36   22   24 1    
    37   23   42 1    
    38   24   25 am   BACKBONE|DICT|INTERRES
    39   24   43 1    
    40   25   26 2    
    41   25   27 1    
    42   27   28 1    
    43   27   29 1    
    44   27   30 1    
    45   28   44 1    
    46   28   45 1    
    47   28   46 1    
    48   29   47 1    
    49   29   48 1    
    50   29   49 1    
    51   30   50 1    
    52   30   51 1    
    53   30   52 1    
@<TRIPOS>SUBSTRUCTURE
     1 UNK         1 GROUP             0       ****    0 ROOT    
