@<TRIPOS>MOLECULE
ZINC18049604_2098
57   59    1
SMALL
USER_CHARGES


@<TRIPOS>ATOM
      1 C1         -2.8769   52.2997   25.4147 C.3       1 UNK         0.0000 
      2 C2         -1.5210   51.5743   25.3030 C.3       1 UNK         0.0000 
      3 H3         -0.7818   52.1535   25.8566 H         1 UNK         0.0000 
      4 C4         -1.5546   50.1488   25.9237 C.3       1 UNK         0.0000 
      5 C5         -2.3113   49.1163   25.0491 C.3       1 UNK         0.0000 
      6 H6         -3.3513   49.4406   24.9742 H         1 UNK         0.0000 
      7 C7         -1.7342   49.1286   23.6172 C.3       1 UNK         0.0000 
      8 N8         -1.8311   50.5066   23.0731 N.pl3     1 UNK         0.0000 
      9 C9         -1.0312   51.5036   23.8342 C.3       1 UNK         0.0000 
     10 S10        -1.8658   50.6737   21.3100 S.o2      1 UNK         0.0000 
     11 O11        -2.0410   52.0954   20.9889 O.2       1 UNK         0.0000 
     12 O12        -2.8004   49.6735   20.7819 O.2       1 UNK         0.0000 
     13 C13        -0.2265   50.2295   20.7378 C.ar      1 UNK         0.0000 
     14 C14        -0.0347   49.0394   20.0320 C.ar      1 UNK         0.0000 
     15 C15         1.2279   48.7106   19.5482 C.ar      1 UNK         0.0000 
     16 C16         2.3041   49.5608   19.7828 C.ar      1 UNK         0.0000 
     17 C17         2.1424   50.7454   20.5155 C.ar      1 UNK         0.0000 
     18 C18         0.8583   51.0810   20.9800 C.ar      1 UNK         0.0000 
     19 C19         3.3507   51.6041   20.7997 C.2       1 UNK         0.0000 
     20 O20         4.4661   51.0959   20.8824 O.2       1 UNK         0.0000 
     21 N21         3.1507   52.9255   20.9292 N.am      1 UNK         0.0000 
     22 C22         4.2244   53.9035   21.1428 C.3       1 UNK         0.0000 
     23 C23         4.8099   53.8413   22.5642 C.2       1 UNK         0.0000 
     24 O24         5.8995   53.2970   22.7519 O.2       1 UNK         0.0000 
     25 N25         4.0654   54.3830   23.5488 N.am      1 UNK         0.0000 
     26 C26         4.4041   54.4114   24.9105 C.ar      1 UNK         0.0000 
     27 C27         3.4138   54.0291   25.8182 C.ar      1 UNK         0.0000 
     28 C28         3.6693   54.0511   27.1883 C.ar      1 UNK         0.0000 
     29 C29         4.9113   54.4696   27.6610 C.ar      1 UNK         0.0000 
     30 C30         5.9012   54.8782   26.7656 C.ar      1 UNK         0.0000 
     31 C31         5.6459   54.8745   25.3912 C.ar      1 UNK         0.0000 
     32 F32         6.5995   55.3388   24.5484 F         1 UNK         0.0000 
     33 F33         7.1012   55.2975   27.2319 F         1 UNK         0.0000 
     34 F34         5.1412   54.4941   28.9921 F         1 UNK         0.0000 
     35 C35        -2.3028   47.7108   25.6759 C.3       1 UNK         0.0000 
     36 H36        -3.6673   51.7697   24.8876 H         1 UNK         0.0000 
     37 H37        -3.1833   52.3976   26.4560 H         1 UNK         0.0000 
     38 H38        -2.8185   53.3029   24.9938 H         1 UNK         0.0000 
     39 H39        -1.9856   50.1702   26.9249 H         1 UNK         0.0000 
     40 H40        -0.5333   49.7965   26.0767 H         1 UNK         0.0000 
     41 H41        -2.2513   48.4237   22.9675 H         1 UNK         0.0000 
     42 H42        -0.6784   48.8659   23.6961 H         1 UNK         0.0000 
     43 H43        -0.0037   51.1399   23.8686 H         1 UNK         0.0000 
     44 H44        -1.0866   52.4782   23.3477 H         1 UNK         0.0000 
     45 H45        -0.8637   48.3763   19.8343 H         1 UNK         0.0000 
     46 H46         1.3748   47.8037   18.9809 H         1 UNK         0.0000 
     47 H47         3.2728   49.2924   19.3799 H         1 UNK         0.0000 
     48 H48         0.6960   51.9924   21.5356 H         1 UNK         0.0000 
     49 H49         2.2397   53.3132   20.7250 H         1 UNK         0.0000 
     50 H50         3.8458   54.8962   20.9298 H         1 UNK         0.0000 
     51 H51         5.0181   53.7213   20.4159 H         1 UNK         0.0000 
     52 H52         3.1498   54.7277   23.3052 H         1 UNK         0.0000 
     53 H53         2.4466   53.6978   25.4693 H         1 UNK         0.0000 
     54 H54         2.9053   53.7420   27.8861 H         1 UNK         0.0000 
     55 H55        -1.2922   47.3931   25.9400 H         1 UNK         0.0000 
     56 H56        -2.8970   47.6940   26.5912 H         1 UNK         0.0000 
     57 H57        -2.7271   46.9674   24.9997 H         1 UNK         0.0000 
@<TRIPOS>BOND
     1    1    2 1    
     2    1   36 1    
     3    1   37 1    
     4    1   38 1    
     5    2    3 1    
     6    2    9 1    
     7    2    4 1    
     8    4    5 1    
     9    4   39 1    
    10    4   40 1    
    11    5    6 1    
    12    5    7 1    
    13    5   35 1    
    14    7    8 1    
    15    7   41 1    
    16    7   42 1    
    17    8    9 1    
    18    8   10 1    
    19    9   43 1    
    20    9   44 1    
    21   10   11 2    
    22   10   12 2    
    23   10   13 1    
    24   13   18 ar   
    25   13   14 ar   
    26   14   15 ar   
    27   14   45 1    
    28   15   16 ar   
    29   15   46 1    
    30   16   17 ar   
    31   16   47 1    
    32   17   18 ar   
    33   17   19 1    
    34   18   48 1    
    35   19   20 2    
    36   19   21 am   BACKBONE|DICT|INTERRES
    37   21   22 1    
    38   21   49 1    
    39   22   23 1    
    40   22   50 1    
    41   22   51 1    
    42   23   24 2    
    43   23   25 am   BACKBONE|DICT|INTERRES
    44   25   26 1    
    45   25   52 1    
    46   26   31 ar   
    47   26   27 ar   
    48   27   28 ar   
    49   27   53 1    
    50   28   29 ar   
    51   28   54 1    
    52   29   30 ar   
    53   29   34 1    
    54   30   31 ar   
    55   30   33 1    
    56   31   32 1    
    57   35   55 1    
    58   35   56 1    
    59   35   57 1    
@<TRIPOS>SUBSTRUCTURE
     1 UNK         1 GROUP             0       ****    0 ROOT    
