ZINC40717757_1743
                    3D
 Schrodinger Suite 2024-2.
 37 39  0  0  1  0            999 V2000
    1.6602   52.2079   28.5673 C   0  0  0  0  0  0
    2.4894   53.2059   29.3971 C   0  0  1  0  0  0
    1.9335   53.3989   30.3163 H   0  0  0  0  0  0
    3.9046   52.7321   29.6895 C   0  0  0  0  0  0
    4.8004   53.4961   28.6989 C   0  0  0  0  0  0
    3.9837   54.4087   27.8921 N   0  0  0  0  0  0
    2.7578   54.5316   28.6855 C   0  0  0  0  0  0
    4.0308   54.3326   26.4836 C   0  0  0  0  0  0
    2.8703   54.0368   25.7555 C   0  0  0  0  0  0
    2.9009   53.8999   24.3712 C   0  0  0  0  0  0
    4.0889   54.0888   23.6627 C   0  0  0  0  0  0
    5.2548   54.3809   24.3728 C   0  0  0  0  0  0
    5.2411   54.4960   25.7658 C   0  0  0  0  0  0
    6.4621   54.7785   26.3921 N   0  0  0  0  0  0
    4.0330   53.9398   22.1480 C   0  0  0  0  0  0
    2.9986   52.8588   21.7133 C   0  0  0  0  0  0
    1.6513   52.9377   22.4806 C   0  0  0  0  0  0
    0.5886   52.4963   22.0529 O   0  0  0  0  0  0
    1.7467   53.4943   23.7027 N   0  0  0  0  0  0
    2.1811   51.9106   27.6570 H   0  0  0  0  0  0
    0.6978   52.6334   28.2806 H   0  0  0  0  0  0
    1.4573   51.2993   29.1357 H   0  0  0  0  0  0
    4.1731   53.0180   30.7073 H   0  0  0  0  0  0
    4.0083   51.6491   29.6201 H   0  0  0  0  0  0
    5.5039   54.0910   29.2818 H   0  0  0  0  0  0
    5.3550   52.7801   28.0891 H   0  0  0  0  0  0
    1.9097   54.9208   28.1221 H   0  0  0  0  0  0
    2.9065   55.3303   29.4146 H   0  0  0  0  0  0
    1.9351   53.8649   26.2646 H   0  0  0  0  0  0
    6.1795   54.5169   23.8300 H   0  0  0  0  0  0
    7.2910   54.4967   25.8918 H   0  0  0  0  0  0
    6.4642   54.7847   27.4043 H   0  0  0  0  0  0
    3.7484   54.8966   21.7086 H   0  0  0  0  0  0
    5.0180   53.7038   21.7427 H   0  0  0  0  0  0
    3.4075   51.8661   21.9029 H   0  0  0  0  0  0
    2.7897   52.9415   20.6459 H   0  0  0  0  0  0
    0.8770   53.4710   24.2114 H   0  0  0  0  0  0
  1  2  1  0  0  0
  1 20  1  0  0  0
  1 21  1  0  0  0
  1 22  1  0  0  0
  2  3  1  0  0  0
  2  7  1  0  0  0
  2  4  1  0  0  0
  4  5  1  0  0  0
  4 23  1  0  0  0
  4 24  1  0  0  0
  5  6  1  0  0  0
  5 25  1  0  0  0
  5 26  1  0  0  0
  6  7  1  0  0  0
  6  8  1  0  0  0
  7 27  1  0  0  0
  7 28  1  0  0  0
  8 13  2  0  0  0
  8  9  1  0  0  0
  9 10  2  0  0  0
  9 29  1  0  0  0
 10 19  1  0  0  0
 10 11  1  0  0  0
 11 12  2  0  0  0
 11 15  1  0  0  0
 12 13  1  0  0  0
 12 30  1  0  0  0
 13 14  1  0  0  0
 14 31  1  0  0  0
 14 32  1  0  0  0
 15 16  1  0  0  0
 15 33  1  0  0  0
 15 34  1  0  0  0
 16 17  1  0  0  0
 16 35  1  0  0  0
 16 36  1  0  0  0
 17 18  2  0  0  0
 17 19  1  0  0  0
 19 37  1  0  0  0
M  END
> <i_i_glide_confnum>
10

> <i_i_glide_lignum>
1744

> <i_i_glide_posenum>
264

> <i_i_glide_rotatable_bonds>
1

> <i_m_Source_File_Index>
2285

> <b_m_subgroup_collapsed>
0

> <r_i_docking_score>
-6.33688

> <r_i_glide_ecoul>
-0.267247

> <r_i_glide_eff_state_penalty>
0

> <r_i_glide_einternal>
0.575038

> <r_i_glide_emodel>
-46.4652

> <r_i_glide_energy>
-34.29

> <r_i_glide_erotb>
0.289208

> <r_i_glide_esite>
0

> <r_i_glide_evdw>
-34.0228

> <r_i_glide_gscore>
-6.33688

> <r_i_glide_hbond>
0

> <r_i_glide_ligand_efficiency>
-0.352049

> <r_i_glide_ligand_efficiency_ln>
-1.62886

> <r_i_glide_ligand_efficiency_sa>
-0.922629

> <r_i_glide_lipo>
-2.68359

> <r_i_glide_metal>
0

> <r_i_glide_rewards>
-2.20128

> <s_i_glide_gridfile>
wee1_glide-grid

> <s_m_Source_File>
wee1_decoys_glide_SP.sdf

> <s_m_Source_Path>
/Users/zhangxujun/Desktop

> <s_m_entry_id>
2560

> <s_m_entry_name>
wee1_decoys_glide_SP.2285

> <s_m_subgroup_title>
wee1_decoys_glide_SP

> <s_m_subgroupid>
wee1_decoys_glide_SP


$$$$
