ZINC38655584_6006
                    3D
 Schrodinger Suite 2024-2.
 57 60  0  0  1  0            999 V2000
    6.9984   55.1392   25.6766 C   0  0  0  0  0  0
    5.5719   54.5963   25.5401 C   0  0  0  0  0  0
    4.8770   54.2290   26.8528 C   0  0  0  0  0  0
    3.8362   53.3092   26.8077 C   0  0  0  0  0  0
    3.2088   52.8975   27.9756 C   0  0  0  0  0  0
    3.4992   53.5150   29.1965 C   0  0  0  0  0  0
    4.5441   54.4385   29.2409 C   0  0  0  0  0  0
    5.2531   54.7688   28.0858 C   0  0  0  0  0  0
    2.7985   53.2779   30.3714 O   0  0  0  0  0  0
    1.6667   52.3826   30.4068 C   0  0  1  0  0  0
    2.0120   51.3998   30.0855 H   0  0  0  0  0  0
    1.2173   52.2832   31.8720 C   0  0  0  0  0  0
    0.4941   52.7912   29.4831 C   0  0  0  0  0  0
    0.2888   53.9662   29.1675 O   0  0  0  0  0  0
   -0.1638   51.6968   28.9988 O   0  0  0  0  0  0
   -0.7943   51.7306   27.7688 C   0  0  0  0  0  0
   -2.1158   51.2966   27.6562 C   0  0  0  0  0  0
   -2.7621   51.2984   26.4163 C   0  0  0  0  0  0
   -2.1057   51.7178   25.2472 C   0  0  0  0  0  0
   -0.7559   52.0927   25.3707 C   0  0  0  0  0  0
   -0.1166   52.1041   26.6031 C   0  0  0  0  0  0
    0.0318   52.4341   24.2904 O   0  0  0  0  0  0
   -0.4276   52.1710   23.0477 C   0  0  0  0  0  0
   -1.7020   51.8436   22.7537 C   0  0  0  0  0  0
   -2.7701   51.7516   23.8551 C   0  0  1  0  0  0
   -3.2835   52.7103   23.7698 H   0  0  0  0  0  0
   -3.8359   50.6599   23.6533 C   0  0  0  0  0  0
   -3.4411   49.3950   23.1948 C   0  0  0  0  0  0
   -4.3782   48.3835   22.9886 C   0  0  0  0  0  0
   -5.7274   48.6264   23.2360 C   0  0  0  0  0  0
   -6.1343   49.8766   23.6974 C   0  0  0  0  0  0
   -5.1998   50.8922   23.9118 C   0  0  0  0  0  0
   -5.7781   52.4164   24.4938 Cl  0  0  0  0  0  0
   -6.8900   47.3768   22.9799 Cl  0  0  0  0  0  0
   -2.0969   51.6968   21.3900 C   0  0  0  0  0  0
   -2.4288   51.6444   20.2826 N   0  0  0  0  0  0
    0.6038   52.3662   22.1674 N   0  0  0  0  0  0
    7.5045   55.1737   24.7086 H   0  0  0  0  0  0
    7.0068   56.1489   26.0826 H   0  0  0  0  0  0
    7.5798   54.4971   26.3359 H   0  0  0  0  0  0
    5.6277   53.6947   24.9289 H   0  0  0  0  0  0
    4.9496   55.3021   24.9879 H   0  0  0  0  0  0
    3.5349   52.8957   25.8580 H   0  0  0  0  0  0
    2.4855   52.1063   27.9120 H   0  0  0  0  0  0
    4.8172   54.8948   30.1765 H   0  0  0  0  0  0
    6.0617   55.4785   28.1452 H   0  0  0  0  0  0
    0.3058   51.6966   31.9874 H   0  0  0  0  0  0
    1.9869   51.8074   32.4792 H   0  0  0  0  0  0
    1.0132   53.2664   32.2973 H   0  0  0  0  0  0
   -2.6392   50.9444   28.5335 H   0  0  0  0  0  0
   -3.7878   50.9621   26.3745 H   0  0  0  0  0  0
    0.9105   52.4168   26.6290 H   0  0  0  0  0  0
   -2.3991   49.1858   23.0004 H   0  0  0  0  0  0
   -4.0555   47.4145   22.6366 H   0  0  0  0  0  0
   -7.1815   50.0612   23.8922 H   0  0  0  0  0  0
    0.5089   52.1285   21.1904 H   0  0  0  0  0  0
    1.4089   52.9136   22.4340 H   0  0  0  0  0  0
  1  2  1  0  0  0
  1 38  1  0  0  0
  1 39  1  0  0  0
  1 40  1  0  0  0
  2  3  1  0  0  0
  2 41  1  0  0  0
  2 42  1  0  0  0
  3  8  2  0  0  0
  3  4  1  0  0  0
  4  5  2  0  0  0
  4 43  1  0  0  0
  5  6  1  0  0  0
  5 44  1  0  0  0
  6  7  2  0  0  0
  6  9  1  0  0  0
  7  8  1  0  0  0
  7 45  1  0  0  0
  8 46  1  0  0  0
  9 10  1  0  0  0
 10 11  1  0  0  0
 10 12  1  0  0  0
 10 13  1  0  0  0
 12 47  1  0  0  0
 12 48  1  0  0  0
 12 49  1  0  0  0
 13 14  2  0  0  0
 13 15  1  0  0  0
 15 16  1  0  0  0
 16 21  2  0  0  0
 16 17  1  0  0  0
 17 18  2  0  0  0
 17 50  1  0  0  0
 18 19  1  0  0  0
 18 51  1  0  0  0
 19 25  1  0  0  0
 19 20  2  0  0  0
 20 21  1  0  0  0
 20 22  1  0  0  0
 21 52  1  0  0  0
 22 23  1  0  0  0
 23 24  2  0  0  0
 23 37  1  0  0  0
 24 25  1  0  0  0
 24 35  1  0  0  0
 25 26  1  0  0  0
 25 27  1  0  0  0
 27 32  2  0  0  0
 27 28  1  0  0  0
 28 29  2  0  0  0
 28 53  1  0  0  0
 29 30  1  0  0  0
 29 54  1  0  0  0
 30 31  2  0  0  0
 30 34  1  0  0  0
 31 32  1  0  0  0
 31 55  1  0  0  0
 32 33  1  0  0  0
 35 36  3  0  0  0
 37 56  1  0  0  0
 37 57  1  0  0  0
M  END
> <i_i_glide_confnum>
137

> <i_i_glide_lignum>
6007

> <i_i_glide_posenum>
393

> <i_i_glide_rotatable_bonds>
8

> <i_m_Source_File_Index>
5350

> <b_m_subgroup_collapsed>
0

> <r_i_docking_score>
-3.51007

> <r_i_glide_ecoul>
-4.53258

> <r_i_glide_eff_state_penalty>
0

> <r_i_glide_einternal>
7.83305

> <r_i_glide_emodel>
-46.6111

> <r_i_glide_energy>
-43.2113

> <r_i_glide_erotb>
0.473573

> <r_i_glide_esite>
-0.0241002

> <r_i_glide_evdw>
-38.6787

> <r_i_glide_gscore>
-3.51007

> <r_i_glide_hbond>
-0.434571

> <r_i_glide_ligand_efficiency>
-0.100288

> <r_i_glide_ligand_efficiency_ln>
-0.770539

> <r_i_glide_ligand_efficiency_sa>
-0.328048

> <r_i_glide_lipo>
-1.59686

> <r_i_glide_metal>
0

> <r_i_glide_rewards>
0.685708

> <s_i_glide_gridfile>
wee1_glide-grid

> <s_m_Source_File>
wee1_decoys_glide_SP.sdf

> <s_m_Source_Path>
/Users/zhangxujun/Desktop

> <s_m_entry_id>
5625

> <s_m_entry_name>
wee1_decoys_glide_SP.5350

> <s_m_subgroup_title>
wee1_decoys_glide_SP

> <s_m_subgroupid>
wee1_decoys_glide_SP


$$$$
