@<TRIPOS>MOLECULE
ZINC03872834_1786
56   59    1
SMALL
USER_CHARGES


@<TRIPOS>ATOM
      1 C1         -0.9000   52.8644   23.4932 C.3       1 UNK         0.0000 
      2 C2          0.1693   51.8722   24.0407 C.3       1 UNK         0.0000 
      3 C3         -0.4499   50.4374   23.8205 C.3       1 UNK         0.0000 
      4 C4          0.5389   49.2960   23.4989 C.3       1 UNK         0.0000 
      5 C5          1.4514   49.6928   22.3381 C.2       1 UNK         0.0000 
      6 O6          1.8428   48.8967   21.4891 O.2       1 UNK         0.0000 
      7 C7          1.9622   51.0381   22.3940 C.2       1 UNK         0.0000 
      8 C8          1.4356   52.0238   23.1501 C.2       1 UNK         0.0000 
      9 C9          2.1398   53.3609   23.2636 C.3       1 UNK         0.0000 
     10 C10         2.6683   53.3959   24.6926 C.3       1 UNK         0.0000 
     11 C11         1.5601   53.4416   25.7440 C.3       1 UNK         0.0000 
     12 H12         1.1036   54.3897   25.5028 H         1 UNK         0.0000 
     13 C13         0.5066   52.2633   25.5622 C.3       1 UNK         0.0000 
     14 H14        -0.4146   52.7802   25.8082 H         1 UNK         0.0000 
     15 C15         0.5504   51.1042   26.6541 C.3       1 UNK         0.0000 
     16 H16         0.9781   50.2019   26.2211 H         1 UNK         0.0000 
     17 C17         1.2992   51.4183   27.9961 C.3       1 UNK         0.0000 
     18 C18         1.3892   52.9367   28.3300 C.3       1 UNK         0.0000 
     19 C19         2.1856   53.5488   27.1622 C.3       1 UNK         0.0000 
     20 H20         3.1314   52.9995   27.1163 H         1 UNK         0.0000 
     21 C21         2.5756   54.9372   27.6640 C.3       1 UNK         0.0000 
     22 C22         2.9798   54.7460   29.1105 C.3       1 UNK         0.0000 
     23 C23         2.2647   53.4390   29.5724 C.3       1 UNK         0.0000 
     24 C24         3.3943   52.4648   30.0566 C.2       1 UNK         0.0000 
     25 O25         4.2785   52.1074   29.2818 O.2       1 UNK         0.0000 
     26 C26         3.5429   52.0615   31.5353 C.3       1 UNK         0.0000 
     27 O27         2.2882   51.6987   32.0817 O.3       1 UNK         0.0000 
     28 O28         1.4754   53.7877   30.6886 O.3       1 UNK         0.0000 
     29 C29        -0.0629   53.5054   28.4975 C.3       1 UNK         0.0000 
     30 O30        -0.7888   50.7552   26.9900 O.3       1 UNK         0.0000 
     31 H31        -1.8639   52.6964   23.9702 H         1 UNK         0.0000 
     32 H32        -0.6421   53.9051   23.6820 H         1 UNK         0.0000 
     33 H33        -1.0575   52.7258   22.4212 H         1 UNK         0.0000 
     34 H34        -1.1046   50.1457   24.6376 H         1 UNK         0.0000 
     35 H35        -1.1336   50.4620   22.9694 H         1 UNK         0.0000 
     36 H36         0.0323   48.3620   23.2612 H         1 UNK         0.0000 
     37 H37         1.1876   49.0950   24.3493 H         1 UNK         0.0000 
     38 H38         2.8477   51.2565   21.8125 H         1 UNK         0.0000 
     39 H39         2.9774   53.4163   22.5672 H         1 UNK         0.0000 
     40 H40         1.5017   54.2120   23.0322 H         1 UNK         0.0000 
     41 H41         3.3627   54.2275   24.8154 H         1 UNK         0.0000 
     42 H42         3.2259   52.4975   24.8981 H         1 UNK         0.0000 
     43 H43         2.3016   51.0098   27.9154 H         1 UNK         0.0000 
     44 H44         0.8368   50.8951   28.8369 H         1 UNK         0.0000 
     45 H45         1.7205   55.6130   27.6812 H         1 UNK         0.0000 
     46 H46         3.3385   55.3846   27.0294 H         1 UNK         0.0000 
     47 H47         2.6860   55.6242   29.6903 H         1 UNK         0.0000 
     48 H48         4.0700   54.7169   29.1725 H         1 UNK         0.0000 
     49 H49         3.9761   52.8972   32.0824 H         1 UNK         0.0000 
     50 H50         4.2450   51.2337   31.6300 H         1 UNK         0.0000 
     51 H51         2.3036   51.8356   33.0429 H         1 UNK         0.0000 
     52 H52         1.2080   52.9688   31.1277 H         1 UNK         0.0000 
     53 H53        -0.7567   53.3278   27.6907 H         1 UNK         0.0000 
     54 H54        -0.5445   53.0589   29.3678 H         1 UNK         0.0000 
     55 H55        -0.0409   54.5781   28.6620 H         1 UNK         0.0000 
     56 H56        -0.8168   49.9140   27.4762 H         1 UNK         0.0000 
@<TRIPOS>BOND
     1    1    2 1    
     2    1   31 1    
     3    1   32 1    
     4    1   33 1    
     5    2    8 1    
     6    2   13 1    
     7    2    3 1    
     8    3    4 1    
     9    3   34 1    
    10    3   35 1    
    11    4    5 1    
    12    4   36 1    
    13    4   37 1    
    14    5    6 2    
    15    5    7 1    
    16    7    8 2    
    17    7   38 1    
    18    8    9 1    
    19    9   10 1    
    20    9   39 1    
    21    9   40 1    
    22   10   11 1    
    23   10   41 1    
    24   10   42 1    
    25   11   12 1    
    26   11   19 1    
    27   11   13 1    
    28   13   14 1    
    29   13   15 1    
    30   15   16 1    
    31   15   17 1    
    32   15   30 1    
    33   17   18 1    
    34   17   43 1    
    35   17   44 1    
    36   18   23 1    
    37   18   19 1    
    38   18   29 1    
    39   19   20 1    
    40   19   21 1    
    41   21   22 1    
    42   21   45 1    
    43   21   46 1    
    44   22   23 1    
    45   22   47 1    
    46   22   48 1    
    47   23   24 1    
    48   23   28 1    
    49   24   25 2    
    50   24   26 1    
    51   26   27 1    
    52   26   49 1    
    53   26   50 1    
    54   27   51 1    
    55   28   52 1    
    56   29   53 1    
    57   29   54 1    
    58   29   55 1    
    59   30   56 1    
@<TRIPOS>SUBSTRUCTURE
     1 UNK         1 GROUP             0       ****    0 ROOT    
