ZINC09846785_1216
                    3D
 Schrodinger Suite 2024-2.
 61 65  0  0  1  0            999 V2000
    5.5203   54.8966   20.6948 C   0  0  0  0  0  0
    4.5934   54.3723   21.6022 C   0  0  0  0  0  0
    5.0475   54.3402   22.9211 C   0  0  0  0  0  0
    6.7034   54.9011   22.9920 S   0  0  0  0  0  0
    6.7044   55.2821   21.3025 C   0  0  0  0  0  0
    4.2240   53.9283   24.0641 C   0  0  0  0  0  0
    4.4409   53.9304   25.4083 C   0  0  0  0  0  0
    5.7645   54.3995   26.0582 C   0  0  0  0  0  0
    6.0208   53.9160   27.5023 C   0  0  0  0  0  0
    4.7568   53.9920   28.3565 C   0  0  0  0  0  0
    3.6701   53.0995   27.7226 C   0  0  2  0  0  0
    4.0843   52.0967   27.7214 H   0  0  0  0  0  0
    3.3629   53.4535   26.2820 C   0  0  0  0  0  0
    2.1431   53.1733   25.9939 N   0  0  0  0  0  0
    1.4827   52.7430   27.1160 N   0  0  0  0  0  0
    2.2753   52.9938   28.3201 C   0  0  2  0  0  0
    2.2349   52.1488   29.0124 H   0  0  0  0  0  0
    1.7819   54.1852   29.1192 C   0  0  0  0  0  0
    1.1878   54.2173   30.3723 C   0  0  0  0  0  0
    1.0391   55.5064   30.8818 C   0  0  0  0  0  0
    1.4602   56.4928   30.0221 C   0  0  0  0  0  0
    1.9044   55.8072   28.5151 S   0  0  0  0  0  0
    0.3767   51.9483   27.1067 C   0  0  0  0  0  0
   -0.0636   51.4475   28.1457 O   0  0  0  0  0  0
   -0.3819   51.6732   25.7903 C   0  0  0  0  0  0
   -2.5955   50.3753   25.4832 C   0  0  0  0  0  0
   -3.2797   49.0411   25.8502 C   0  0  0  0  0  0
   -2.5400   47.8175   25.2415 C   0  0  1  0  0  0
   -1.0011   47.8497   25.4313 C   0  0  0  0  0  0
   -0.3679   49.2117   25.1058 C   0  0  0  0  0  0
   -3.1034   46.4973   25.8208 C   0  0  0  0  0  0
   -3.6955   45.6968   25.1017 O   0  0  0  0  0  0
   -2.8957   46.2415   27.1135 N   0  0  0  0  0  0
    5.3245   55.0035   19.6374 H   0  0  0  0  0  0
    3.6035   54.0558   21.3039 H   0  0  0  0  0  0
    7.5854   55.7005   20.8375 H   0  0  0  0  0  0
    3.2649   53.5717   23.7114 H   0  0  0  0  0  0
    6.6251   54.0750   25.4796 H   0  0  0  0  0  0
    5.7793   55.4901   26.0413 H   0  0  0  0  0  0
    6.3835   52.8877   27.4822 H   0  0  0  0  0  0
    6.8204   54.4997   27.9603 H   0  0  0  0  0  0
    4.4592   55.0341   28.4401 H   0  0  0  0  0  0
    4.9687   53.6502   29.3683 H   0  0  0  0  0  0
    0.9468   53.3270   30.9369 H   0  0  0  0  0  0
    0.7045   55.6967   31.8871 H   0  0  0  0  0  0
    1.4990   57.5612   30.1828 H   0  0  0  0  0  0
    0.2387   51.6818   24.8924 H   0  0  0  0  0  0
   -1.1544   52.4370   25.6941 H   0  0  0  0  0  0
   -2.6286   50.6063   24.4166 H   0  0  0  0  0  0
   -3.0501   51.1869   26.0551 H   0  0  0  0  0  0
   -4.3084   49.0951   25.4894 H   0  0  0  0  0  0
   -3.2617   49.0107   26.9421 H   0  0  0  0  0  0
   -2.7462   47.7913   24.1698 H   0  0  0  0  0  0
   -0.7651   47.6974   26.4817 H   0  0  0  0  0  0
   -0.5024   47.1037   24.8110 H   0  0  0  0  0  0
   -0.4226   49.4728   24.0472 H   0  0  0  0  0  0
    0.6729   49.2218   25.4389 H   0  0  0  0  0  0
   -2.4117   46.9427   27.6816 H   0  0  0  0  0  0
   -3.2081   45.3799   27.5418 H   0  0  0  0  0  0
   -1.1118   50.2994   25.9118 N   0  3  1  0  0  0
   -1.0887   50.0530   26.9016 H   0  0  0  0  0  0
  1  5  2  0  0  0
  1  2  1  0  0  0
  1 34  1  0  0  0
  2  3  2  0  0  0
  2 35  1  0  0  0
  3  4  1  0  0  0
  3  6  1  0  0  0
  4  5  1  0  0  0
  5 36  1  0  0  0
  6  7  2  0  0  0
  6 37  1  0  0  0
  7 13  1  0  0  0
  7  8  1  0  0  0
  8  9  1  0  0  0
  8 38  1  0  0  0
  8 39  1  0  0  0
  9 10  1  0  0  0
  9 40  1  0  0  0
  9 41  1  0  0  0
 10 11  1  0  0  0
 10 42  1  0  0  0
 10 43  1  0  0  0
 11 12  1  0  0  0
 11 16  1  0  0  0
 11 13  1  0  0  0
 13 14  2  0  0  0
 14 15  1  0  0  0
 15 16  1  0  0  0
 15 23  1  0  0  0
 16 17  1  0  0  0
 16 18  1  0  0  0
 18 22  1  0  0  0
 18 19  2  0  0  0
 19 20  1  0  0  0
 19 44  1  0  0  0
 20 21  2  0  0  0
 20 45  1  0  0  0
 21 22  1  0  0  0
 21 46  1  0  0  0
 23 24  2  0  0  0
 23 25  1  0  0  0
 25 47  1  0  0  0
 25 48  1  0  0  0
 25 60  1  0  0  0
 26 27  1  0  0  0
 26 49  1  0  0  0
 26 50  1  0  0  0
 26 60  1  0  0  0
 27 28  1  0  0  0
 27 51  1  0  0  0
 27 52  1  0  0  0
 28 29  1  0  0  0
 28 31  1  0  0  0
 28 53  1  0  0  0
 29 30  1  0  0  0
 29 54  1  0  0  0
 29 55  1  0  0  0
 30 56  1  0  0  0
 30 57  1  0  0  0
 30 60  1  0  0  0
 31 32  2  0  0  0
 31 33  1  0  0  0
 33 58  1  0  0  0
 33 59  1  0  0  0
 60 61  1  0  0  0
M  CHG  1  60   1
M  END
> <i_i_glide_confnum>
1

> <i_i_glide_lignum>
1217

> <i_i_glide_posenum>
152

> <i_i_glide_rotatable_bonds>
6

> <i_m_Source_File_Index>
6091

> <b_m_subgroup_collapsed>
0

> <r_i_docking_score>
-8.17931

> <r_i_glide_ecoul>
-10.846

> <r_i_glide_eff_state_penalty>
0

> <r_i_glide_einternal>
11.8505

> <r_i_glide_emodel>
-69.1025

> <r_i_glide_energy>
-48.3574

> <r_i_glide_erotb>
0.366313

> <r_i_glide_esite>
-0.267574

> <r_i_glide_evdw>
-37.5114

> <r_i_glide_gscore>
-8.17931

> <r_i_glide_hbond>
-0.434212

> <r_i_glide_ligand_efficiency>
-0.255603

> <r_i_glide_ligand_efficiency_ln>
-1.83157

> <r_i_glide_ligand_efficiency_sa>
-0.81149

> <r_i_glide_lipo>
-3.58329

> <r_i_glide_metal>
0

> <r_i_glide_rewards>
-0.758077

> <s_i_glide_gridfile>
wee1_glide-grid

> <s_m_Source_File>
wee1_decoys_glide_SP.sdf

> <s_m_Source_Path>
/Users/zhangxujun/Desktop

> <s_m_entry_id>
6366

> <s_m_entry_name>
wee1_decoys_glide_SP.6091

> <s_m_subgroup_title>
wee1_decoys_glide_SP

> <s_m_subgroupid>
wee1_decoys_glide_SP


$$$$
