@<TRIPOS>MOLECULE
ZINC18222551_2432
35   37    1
SMALL
USER_CHARGES


@<TRIPOS>ATOM
      1 C1         -2.9579   50.8966   27.6549 C.ar      1 UNK         0.0000 
      2 C2         -4.1846   51.0966   27.0289 C.ar      1 UNK         0.0000 
      3 C3         -4.2690   51.9570   25.9369 C.ar      1 UNK         0.0000 
      4 C4         -3.1352   52.6129   25.4594 C.ar      1 UNK         0.0000 
      5 C5         -1.9090   52.4087   26.0845 C.ar      1 UNK         0.0000 
      6 C6         -1.8217   51.5609   27.1919 C.ar      1 UNK         0.0000 
      7 N7         -0.6029   51.3122   27.8424 N.am      1 UNK         0.0000 
      8 C8          0.2899   52.2533   28.2270 C.2       1 UNK         0.0000 
      9 O9          0.1075   53.4638   28.0870 O.2       1 UNK         0.0000 
     10 C10         1.5803   51.7411   28.8844 C.3       1 UNK         0.0000 
     11 S11         2.6362   53.0123   29.6844 S.3       1 UNK         0.0000 
     12 C12         3.5922   53.5813   28.3154 C.ar      1 UNK         0.0000 
     13 N13         4.8538   54.1150   28.4552 N.pl3     1 UNK         0.0000 
     14 H14         5.3153   54.2362   29.3458 H         1 UNK         0.0000 
     15 C15         5.3355   54.3815   27.1944 C.ar      1 UNK         0.0000 
     16 C16         6.5413   54.8863   26.7035 C.ar      1 UNK         0.0000 
     17 C17         6.6785   54.9194   25.3101 C.ar      1 UNK         0.0000 
     18 C18         5.6585   54.5133   24.4347 C.ar      1 UNK         0.0000 
     19 C19         4.4236   54.0960   24.9554 C.ar      1 UNK         0.0000 
     20 C20         4.2762   53.9957   26.3428 C.ar      1 UNK         0.0000 
     21 N21         3.2114   53.5254   27.0609 N.2       1 UNK         0.0000 
     22 N22         5.8894   54.4968   22.9681 N.pl3     1 UNK         0.0000 
     23 O23         6.8920   55.0451   22.5205 O.co2     1 UNK         0.0000 
     24 O24         5.0694   53.9287   22.2530 O.co2     1 UNK         0.0000 
     25 I25        -6.1103   52.2670   24.9908 I         1 UNK         0.0000 
     26 H26        -2.8960   50.2135   28.4932 H         1 UNK         0.0000 
     27 H27        -5.0606   50.5791   27.3869 H         1 UNK         0.0000 
     28 H28        -3.2074   53.2705   24.6061 H         1 UNK         0.0000 
     29 H29        -1.0257   52.8965   25.6998 H         1 UNK         0.0000 
     30 H30        -0.4666   50.3517   28.1329 H         1 UNK         0.0000 
     31 H31         1.2859   51.0568   29.6749 H         1 UNK         0.0000 
     32 H32         2.1573   51.1689   28.1584 H         1 UNK         0.0000 
     33 H33         7.3411   55.1732   27.3732 H         1 UNK         0.0000 
     34 H34         7.6189   55.2447   24.8836 H         1 UNK         0.0000 
     35 H35         3.6204   53.7851   24.3035 H         1 UNK         0.0000 
@<TRIPOS>BOND
     1    1    6 ar   
     2    1    2 ar   
     3    1   26 1    
     4    2    3 ar   
     5    2   27 1    
     6    3    4 ar   
     7    3   25 1    
     8    4    5 ar   
     9    4   28 1    
    10    5    6 ar   
    11    5   29 1    
    12    6    7 1    
    13    7    8 am   BACKBONE|DICT|INTERRES
    14    7   30 1    
    15    8    9 2    
    16    8   10 1    
    17   10   11 1    
    18   10   31 1    
    19   10   32 1    
    20   11   12 1    
    21   12   21 ar   
    22   12   13 ar   
    23   13   14 1    
    24   13   15 ar   
    25   15   20 ar   
    26   15   16 ar   
    27   16   17 ar   
    28   16   33 1    
    29   17   18 ar   
    30   17   34 1    
    31   18   19 ar   
    32   18   22 1    
    33   19   20 ar   
    34   19   35 1    
    35   20   21 ar   
    36   22   23 2    
    37   22   24 1    
@<TRIPOS>SUBSTRUCTURE
     1 UNK         1 GROUP             0       ****    0 ROOT    
