@<TRIPOS>MOLECULE
ZINC01027679_2626
47   49    1
SMALL
USER_CHARGES


@<TRIPOS>ATOM
      1 C1          9.5064   56.4006   18.4292 C.3       1 UNK         0.0000 
      2 C2          8.2058   56.0120   19.1024 C.ar      1 UNK         0.0000 
      3 C3          7.0143   55.9744   18.3755 C.ar      1 UNK         0.0000 
      4 C4          5.8183   55.6244   19.0040 C.ar      1 UNK         0.0000 
      5 C5          5.8212   55.2969   20.3613 C.ar      1 UNK         0.0000 
      6 C6          7.0125   55.3356   21.1039 C.ar      1 UNK         0.0000 
      7 C7          8.1981   55.6967   20.4621 C.ar      1 UNK         0.0000 
      8 N8          7.1044   55.0690   22.4814 N.am      1 UNK         0.0000 
      9 C9          6.1929   54.4967   23.2862 C.2       1 UNK         0.0000 
     10 O10         5.1523   53.9616   22.9034 O.2       1 UNK         0.0000 
     11 N11         6.5592   54.6199   24.5754 N.am      1 UNK         0.0000 
     12 C12         5.7669   54.3448   25.7028 C.ar      1 UNK         0.0000 
     13 C13         6.4285   53.9764   26.8727 C.ar      1 UNK         0.0000 
     14 C14         5.6980   53.6193   28.0006 C.ar      1 UNK         0.0000 
     15 C15         4.3019   53.6533   27.9816 C.ar      1 UNK         0.0000 
     16 C16         3.6397   54.0909   26.8281 C.ar      1 UNK         0.0000 
     17 C17         4.3675   54.4357   25.6954 C.ar      1 UNK         0.0000 
     18 S18         3.4395   53.1366   29.4833 S.o2      1 UNK         0.0000 
     19 O19         3.8186   51.7334   29.6878 O.2       1 UNK         0.0000 
     20 O20         3.9044   54.0966   30.4816 O.2       1 UNK         0.0000 
     21 N21         1.9347   53.3694   29.1432 N.2       1 UNK         0.0000 
     22 C22         1.1662   52.5258   28.4455 C.2       1 UNK         0.0000 
     23 C23        -0.1384   52.8044   28.0689 C.2       1 UNK         0.0000 
     24 C24        -0.5963   51.7216   27.3612 C.2       1 UNK         0.0000 
     25 O25         0.4102   50.8257   27.2802 O.3       1 UNK         0.0000 
     26 N26         1.5044   51.3408   27.9748 N.2       1 UNK         0.0000 
     27 C27        -1.8969   51.3616   26.6927 C.3       1 UNK         0.0000 
     28 C28         4.5224   55.5895   18.2142 C.3       1 UNK         0.0000 
     29 H29        10.2117   55.5699   18.4800 H         1 UNK         0.0000 
     30 H30         9.9595   57.2454   18.9497 H         1 UNK         0.0000 
     31 H31         9.3675   56.6777   17.3835 H         1 UNK         0.0000 
     32 H32         7.0143   56.2223   17.3237 H         1 UNK         0.0000 
     33 H33         4.8801   55.0401   20.8213 H         1 UNK         0.0000 
     34 H34         9.1226   55.7364   21.0189 H         1 UNK         0.0000 
     35 H35         7.9986   55.2967   22.8984 H         1 UNK         0.0000 
     36 H36         7.5316   54.8161   24.7514 H         1 UNK         0.0000 
     37 H37         7.5046   53.9168   26.9073 H         1 UNK         0.0000 
     38 H38         6.2234   53.2964   28.8846 H         1 UNK         0.0000 
     39 H39         2.5638   54.1572   26.7836 H         1 UNK         0.0000 
     40 H40         3.8285   54.7597   24.8177 H         1 UNK         0.0000 
     41 H41        -0.6697   53.7114   28.2978 H         1 UNK         0.0000 
     42 H42        -2.6361   52.1562   26.7873 H         1 UNK         0.0000 
     43 H43        -1.7604   51.1659   25.6295 H         1 UNK         0.0000 
     44 H44        -2.3285   50.4637   27.1356 H         1 UNK         0.0000 
     45 H45         3.7866   54.9328   18.6823 H         1 UNK         0.0000 
     46 H46         4.0998   56.5919   18.1264 H         1 UNK         0.0000 
     47 H47         4.6972   55.2006   17.2100 H         1 UNK         0.0000 
@<TRIPOS>BOND
     1    1    2 1    
     2    1   29 1    
     3    1   30 1    
     4    1   31 1    
     5    2    7 ar   
     6    2    3 ar   
     7    3    4 ar   
     8    3   32 1    
     9    4    5 ar   
    10    4   28 1    
    11    5    6 ar   
    12    5   33 1    
    13    6    7 ar   
    14    6    8 1    
    15    7   34 1    
    16    8    9 am   BACKBONE|DICT|INTERRES
    17    8   35 1    
    18    9   10 2    
    19    9   11 am   BACKBONE|DICT|INTERRES
    20   11   12 1    
    21   11   36 1    
    22   12   17 ar   
    23   12   13 ar   
    24   13   14 ar   
    25   13   37 1    
    26   14   15 ar   
    27   14   38 1    
    28   15   16 ar   
    29   15   18 1    
    30   16   17 ar   
    31   16   39 1    
    32   17   40 1    
    33   18   19 2    
    34   18   20 2    
    35   18   21 1    
    36   21   22 1    
    37   22   26 2    
    38   22   23 1    
    39   23   24 2    
    40   23   41 1    
    41   24   25 1    
    42   24   27 1    
    43   25   26 1    
    44   27   42 1    
    45   27   43 1    
    46   27   44 1    
    47   28   45 1    
    48   28   46 1    
    49   28   47 1    
@<TRIPOS>SUBSTRUCTURE
     1 UNK         1 GROUP             0       ****    0 ROOT    
