@<TRIPOS>MOLECULE
ZINC14461383_4553
66   70    1
SMALL
USER_CHARGES


@<TRIPOS>ATOM
      1 C1         -3.3414   50.8989   28.5692 C.3       1 UNK         0.0000 
      2 C2         -2.0764   51.3163   27.7923 C.3       1 UNK         0.0000 
      3 N3         -1.0174   52.0950   28.6357 N.4       1 UNK         0.0000 
      4 C4         -0.5848   51.3028   29.8844 C.3       1 UNK         0.0000 
      5 C5          0.1951   52.1842   30.8816 C.3       1 UNK         0.0000 
      6 C6          0.1362   52.6350   27.8465 C.ar      1 UNK         0.0000 
      7 C7          0.7739   53.7999   28.2826 C.ar      1 UNK         0.0000 
      8 C8          1.8650   54.2883   27.5626 C.ar      1 UNK         0.0000 
      9 C9          2.2801   53.6509   26.3852 C.ar      1 UNK         0.0000 
     10 C10         1.6070   52.4967   25.9697 C.ar      1 UNK         0.0000 
     11 C11         0.5613   51.9660   26.7004 C.ar      1 UNK         0.0000 
     12 C12         3.4128   54.2157   25.5088 C.3       1 UNK         0.0000 
     13 H13         3.3725   55.3002   25.5968 H         1 UNK         0.0000 
     14 C14         4.8325   53.7403   25.9494 C.3       1 UNK         0.0000 
     15 H15         4.7881   52.6711   26.0820 H         1 UNK         0.0000 
     16 C16         5.3052   54.2648   27.3066 C.3       1 UNK         0.0000 
     17 C17         6.3336   55.2967   26.9347 C.2       1 UNK         0.0000 
     18 C18         6.6394   55.2752   25.6280 C.2       1 UNK         0.0000 
     19 C19         5.9684   54.1067   24.9558 C.3       1 UNK         0.0000 
     20 H20         6.6959   53.2971   24.9076 H         1 UNK         0.0000 
     21 C21         5.5179   54.3373   23.5110 C.ar      1 UNK         0.0000 
     22 C22         6.4135   54.7311   22.5035 C.ar      1 UNK         0.0000 
     23 C23         6.0107   54.8356   21.1622 C.ar      1 UNK         0.0000 
     24 C24         4.7055   54.4965   20.8156 C.ar      1 UNK         0.0000 
     25 C25         3.7915   54.1587   21.8047 C.ar      1 UNK         0.0000 
     26 C26         4.1885   54.0968   23.1373 C.ar      1 UNK         0.0000 
     27 N27         3.1889   53.8967   24.0929 N.pl3     1 UNK         0.0000 
     28 S28         7.1855   55.2969   19.8811 S.o2      1 UNK         0.0000 
     29 O29         8.4157   55.6971   20.5707 O.2       1 UNK         0.0000 
     30 O30         7.2070   54.2253   18.8813 O.2       1 UNK         0.0000 
     31 N31         6.5746   56.7726   19.0964 N.pl3     1 UNK         0.0000 
     32 C32         5.7012   56.8499   17.9989 C.ar      1 UNK         0.0000 
     33 C33         5.5048   58.1183   17.4479 C.ar      1 UNK         0.0000 
     34 C34         4.6317   58.3026   16.3800 C.ar      1 UNK         0.0000 
     35 C35         3.9620   57.2073   15.8446 C.ar      1 UNK         0.0000 
     36 C36         4.1645   55.9321   16.3658 C.ar      1 UNK         0.0000 
     37 C37         5.0337   55.7525   17.4395 C.ar      1 UNK         0.0000 
     38 H38        -4.0861   50.5026   27.8774 H         1 UNK         0.0000 
     39 H39        -3.8068   51.7201   29.1059 H         1 UNK         0.0000 
     40 H40        -3.1431   50.0960   29.2810 H         1 UNK         0.0000 
     41 H41        -1.5839   50.4345   27.3853 H         1 UNK         0.0000 
     42 H42        -2.3256   51.9929   26.9735 H         1 UNK         0.0000 
     43 H43        -1.4705   50.8974   30.3718 H         1 UNK         0.0000 
     44 H44        -0.0092   50.4970   29.4328 H         1 UNK         0.0000 
     45 H45         0.3047   51.6964   31.8496 H         1 UNK         0.0000 
     46 H46         1.1989   52.4162   30.5292 H         1 UNK         0.0000 
     47 H47        -0.3274   53.1185   31.0849 H         1 UNK         0.0000 
     48 H48         0.4390   54.3299   29.1629 H         1 UNK         0.0000 
     49 H49         2.3450   55.1977   27.8913 H         1 UNK         0.0000 
     50 H50         1.9052   51.9793   25.0708 H         1 UNK         0.0000 
     51 H51         0.1112   51.0530   26.3424 H         1 UNK         0.0000 
     52 H52         4.5125   54.7209   27.8940 H         1 UNK         0.0000 
     53 H53         5.7536   53.4784   27.9165 H         1 UNK         0.0000 
     54 H54         6.7045   55.9854   27.6785 H         1 UNK         0.0000 
     55 H55         7.3390   55.9151   25.1087 H         1 UNK         0.0000 
     56 H56         7.4441   54.9286   22.7666 H         1 UNK         0.0000 
     57 H57         4.3686   54.5341   19.7937 H         1 UNK         0.0000 
     58 H58         2.7652   53.9643   21.5271 H         1 UNK         0.0000 
     59 H59         2.2218   53.9344   23.8091 H         1 UNK         0.0000 
     60 H60         6.9811   57.6407   19.3994 H         1 UNK         0.0000 
     61 H61         6.0096   58.9844   17.8524 H         1 UNK         0.0000 
     62 H62         4.4766   59.2937   15.9771 H         1 UNK         0.0000 
     63 H63         3.2856   57.3487   15.0148 H         1 UNK         0.0000 
     64 H64         3.6522   55.0824   15.9390 H         1 UNK         0.0000 
     65 H65         5.1716   54.7496   17.8038 H         1 UNK         0.0000 
     66 H66        -1.5393   52.8795   28.9964 H         1 UNK         0.0000 
@<TRIPOS>BOND
     1    1    2 1    
     2    1   38 1    
     3    1   39 1    
     4    1   40 1    
     5    2    3 1    
     6    2   41 1    
     7    2   42 1    
     8    3    4 1    
     9    3    6 1    
    10    3   66 1    
    11    4    5 1    
    12    4   43 1    
    13    4   44 1    
    14    5   45 1    
    15    5   46 1    
    16    5   47 1    
    17    6   11 ar   
    18    6    7 ar   
    19    7    8 ar   
    20    7   48 1    
    21    8    9 ar   
    22    8   49 1    
    23    9   10 ar   
    24    9   12 1    
    25   10   11 ar   
    26   10   50 1    
    27   11   51 1    
    28   12   13 1    
    29   12   27 1    
    30   12   14 1    
    31   14   15 1    
    32   14   19 1    
    33   14   16 1    
    34   16   17 1    
    35   16   52 1    
    36   16   53 1    
    37   17   18 2    
    38   17   54 1    
    39   18   19 1    
    40   18   55 1    
    41   19   20 1    
    42   19   21 1    
    43   21   26 ar   
    44   21   22 ar   
    45   22   23 ar   
    46   22   56 1    
    47   23   24 ar   
    48   23   28 1    
    49   24   25 ar   
    50   24   57 1    
    51   25   26 ar   
    52   25   58 1    
    53   26   27 1    
    54   27   59 1    
    55   28   29 2    
    56   28   30 2    
    57   28   31 1    
    58   31   32 1    
    59   31   60 1    
    60   32   37 ar   
    61   32   33 ar   
    62   33   34 ar   
    63   33   61 1    
    64   34   35 ar   
    65   34   62 1    
    66   35   36 ar   
    67   35   63 1    
    68   36   37 ar   
    69   36   64 1    
    70   37   65 1    
@<TRIPOS>SUBSTRUCTURE
     1 UNK         1 GROUP             0       ****    0 ROOT    
