@<TRIPOS>MOLECULE
ZINC59044563_3643
52   56    1
SMALL
USER_CHARGES


@<TRIPOS>ATOM
      1 C1          5.6192   58.1397   16.7190 C.ar      1 UNK         0.0000 
      2 C2          5.9042   57.6515   17.9952 C.ar      1 UNK         0.0000 
      3 C3          5.7059   56.2980   18.3080 C.ar      1 UNK         0.0000 
      4 C4          5.2477   55.4375   17.3010 C.ar      1 UNK         0.0000 
      5 C5          4.9702   55.9232   16.0225 C.ar      1 UNK         0.0000 
      6 C6          5.1504   57.2750   15.7332 C.ar      1 UNK         0.0000 
      7 Br7         4.3392   54.7384   14.6740 Br        1 UNK         0.0000 
      8 C8          5.9855   55.8155   19.7015 C.ar      1 UNK         0.0000 
      9 N9          6.8878   56.3602   20.4798 N.2       1 UNK         0.0000 
     10 N10         6.8516   55.6970   21.6967 N.2       1 UNK         0.0000 
     11 C11         5.9095   54.7899   21.6355 C.ar      1 UNK         0.0000 
     12 N12         5.3338   54.7992   20.3805 N.pl3     1 UNK         0.0000 
     13 N13         4.3045   53.9904   19.9278 N.3       1 UNK         0.0000 
     14 S14         5.4505   53.6982   22.9588 S.3       1 UNK         0.0000 
     15 C15         6.6385   54.1437   24.2923 C.3       1 UNK         0.0000 
     16 C16         6.0324   54.5617   25.6404 C.2       1 UNK         0.0000 
     17 O17         6.7030   55.2935   26.3691 O.2       1 UNK         0.0000 
     18 N18         4.7987   54.1264   25.9745 N.am      1 UNK         0.0000 
     19 C19         4.0455   54.5218   27.1781 C.3       1 UNK         0.0000 
     20 C20         4.6186   54.0826   28.5606 C.3       1 UNK         0.0000 
     21 C21         4.4094   52.5656   28.7388 C.3       1 UNK         0.0000 
     22 C22         2.8893   52.2181   28.6993 C.3       1 UNK         0.0000 
     23 C23         2.1581   52.9708   29.8408 C.3       1 UNK         0.0000 
     24 C24         2.3626   54.4980   29.6653 C.3       1 UNK         0.0000 
     25 C25         3.8787   54.8027   29.7127 C.3       1 UNK         0.0000 
     26 C26         1.7960   54.9513   28.2925 C.3       1 UNK         0.0000 
     27 C27         2.5214   54.1907   27.1452 C.3       1 UNK         0.0000 
     28 C28         2.2809   52.6702   27.3458 C.3       1 UNK         0.0000 
     29 H29         5.7538   59.1917   16.5024 H         1 UNK         0.0000 
     30 H30         6.2555   58.3437   18.7472 H         1 UNK         0.0000 
     31 H31         5.1082   54.3857   17.4985 H         1 UNK         0.0000 
     32 H32         4.9280   57.6539   14.7452 H         1 UNK         0.0000 
     33 H33         4.5504   53.0110   19.8868 H         1 UNK         0.0000 
     34 H34         3.4078   54.1838   20.3565 H         1 UNK         0.0000 
     35 H35         7.3097   54.9429   23.9838 H         1 UNK         0.0000 
     36 H36         7.2942   53.2969   24.4755 H         1 UNK         0.0000 
     37 H37         4.3598   53.4448   25.3735 H         1 UNK         0.0000 
     38 H38         4.1311   55.6010   27.1358 H         1 UNK         0.0000 
     39 H39         5.6811   54.3172   28.6217 H         1 UNK         0.0000 
     40 H40         4.8583   52.2126   29.6691 H         1 UNK         0.0000 
     41 H41         4.9575   52.0968   27.9317 H         1 UNK         0.0000 
     42 H42         2.7403   51.1457   28.8271 H         1 UNK         0.0000 
     43 H43         2.5339   52.6452   30.8121 H         1 UNK         0.0000 
     44 H44         1.0936   52.7293   29.8366 H         1 UNK         0.0000 
     45 H45         1.8503   55.0324   30.4677 H         1 UNK         0.0000 
     46 H46         4.0377   55.8727   29.6815 H         1 UNK         0.0000 
     47 H47         4.3035   54.4856   30.6623 H         1 UNK         0.0000 
     48 H48         0.7207   54.7676   28.2545 H         1 UNK         0.0000 
     49 H49         1.9165   56.0287   28.1713 H         1 UNK         0.0000 
     50 H50         2.1052   54.4923   26.1851 H         1 UNK         0.0000 
     51 H51         2.7040   52.1037   26.5241 H         1 UNK         0.0000 
     52 H52         1.2120   52.4511   27.3217 H         1 UNK         0.0000 
@<TRIPOS>BOND
     1    1    6 ar   
     2    1    2 ar   
     3    1   29 1    
     4    2    3 ar   
     5    2   30 1    
     6    3    4 ar   
     7    3    8 1    
     8    4    5 ar   
     9    4   31 1    
    10    5    6 ar   
    11    5    7 1    
    12    6   32 1    
    13    8   12 ar   
    14    8    9 ar   
    15    9   10 ar   
    16   10   11 ar   
    17   11   12 ar   
    18   11   14 1    
    19   12   13 1    
    20   13   33 1    
    21   13   34 1    
    22   14   15 1    
    23   15   16 1    
    24   15   35 1    
    25   15   36 1    
    26   16   17 2    
    27   16   18 am   BACKBONE|DICT|INTERRES
    28   18   19 1    
    29   18   37 1    
    30   19   27 1    
    31   19   20 1    
    32   19   38 1    
    33   20   25 1    
    34   20   21 1    
    35   20   39 1    
    36   21   22 1    
    37   21   40 1    
    38   21   41 1    
    39   22   28 1    
    40   22   23 1    
    41   22   42 1    
    42   23   24 1    
    43   23   43 1    
    44   23   44 1    
    45   24   25 1    
    46   24   26 1    
    47   24   45 1    
    48   25   46 1    
    49   25   47 1    
    50   26   27 1    
    51   26   48 1    
    52   26   49 1    
    53   27   28 1    
    54   27   50 1    
    55   28   51 1    
    56   28   52 1    
@<TRIPOS>SUBSTRUCTURE
     1 UNK         1 GROUP             0       ****    0 ROOT    
