ZINC09298397_4315
                    3D
 Schrodinger Suite 2024-2.
 43 45  0  0  1  0            999 V2000
    1.6529   56.8091   29.8534 C   0  0  0  0  0  0
    1.0438   55.7070   30.5311 O   0  0  0  0  0  0
    0.9187   54.4342   29.9485 C   0  0  0  0  0  0
    0.3134   53.5098   30.4875 O   0  0  0  0  0  0
    1.5487   54.3560   28.7530 N   0  0  0  0  0  0
    1.4790   53.3647   27.8372 C   0  0  0  0  0  0
    0.7332   52.3827   27.8924 O   0  0  0  0  0  0
    2.3083   53.6190   26.6705 C   0  0  0  0  0  0
    3.6508   54.0985   26.7117 C   0  0  0  0  0  0
    4.1352   54.4241   25.4332 C   0  0  0  0  0  0
    3.0487   53.8698   24.2018 S   0  0  0  0  0  0
    1.9051   53.2954   25.3698 C   0  0  0  0  0  0
    0.7213   52.6456   25.0287 N   0  0  0  0  0  0
    0.2068   52.3875   23.8096 C   0  0  0  0  0  0
    0.7045   52.7217   22.7346 O   0  0  0  0  0  0
   -1.0482   51.6809   23.8683 C   0  0  0  0  0  0
   -1.5623   50.8778   24.8947 C   0  0  0  0  0  0
   -2.8007   50.3100   24.5769 C   0  0  0  0  0  0
   -3.2324   50.6414   23.3016 C   0  0  0  0  0  0
   -2.0959   51.6571   22.4764 S   0  0  0  0  0  0
   -4.8382   50.0985   22.4393 Br  0  0  0  0  0  0
    5.4364   55.1116   25.0815 C   0  0  0  0  0  0
    6.6881   54.3339   25.5022 C   0  0  0  0  0  0
    6.9442   54.3346   27.0196 C   0  0  0  0  0  0
    5.9050   53.5966   27.8739 C   0  0  0  0  0  0
    4.5138   54.2509   27.9635 C   0  0  0  0  0  0
    1.5622   57.6972   30.4777 H   0  0  0  0  0  0
    2.7138   56.6324   29.6746 H   0  0  0  0  0  0
    1.1598   57.0189   28.9028 H   0  0  0  0  0  0
    2.0954   55.1588   28.4911 H   0  0  0  0  0  0
    0.1790   52.3354   25.8234 H   0  0  0  0  0  0
   -1.0691   50.6988   25.8413 H   0  0  0  0  0  0
   -3.3536   49.6697   25.2489 H   0  0  0  0  0  0
    5.4866   55.2964   24.0094 H   0  0  0  0  0  0
    5.4756   56.0957   25.5500 H   0  0  0  0  0  0
    6.6395   53.3103   25.1271 H   0  0  0  0  0  0
    7.5405   54.7877   25.0010 H   0  0  0  0  0  0
    7.9043   53.8656   27.2174 H   0  0  0  0  0  0
    7.0464   55.3613   27.3736 H   0  0  0  0  0  0
    5.8067   52.5633   27.5347 H   0  0  0  0  0  0
    6.3134   53.5278   28.8820 H   0  0  0  0  0  0
    4.6186   55.2967   28.2371 H   0  0  0  0  0  0
    4.0411   53.7776   28.8226 H   0  0  0  0  0  0
  1  2  1  0  0  0
  1 27  1  0  0  0
  1 28  1  0  0  0
  1 29  1  0  0  0
  2  3  1  0  0  0
  3  4  2  0  0  0
  3  5  1  0  0  0
  5  6  1  0  0  0
  5 30  1  0  0  0
  6  7  2  0  0  0
  6  8  1  0  0  0
  8 12  2  0  0  0
  8  9  1  0  0  0
  9 26  1  0  0  0
  9 10  2  0  0  0
 10 11  1  0  0  0
 10 22  1  0  0  0
 11 12  1  0  0  0
 12 13  1  0  0  0
 13 14  1  0  0  0
 13 31  1  0  0  0
 14 15  2  0  0  0
 14 16  1  0  0  0
 16 20  1  0  0  0
 16 17  2  0  0  0
 17 18  1  0  0  0
 17 32  1  0  0  0
 18 19  2  0  0  0
 18 33  1  0  0  0
 19 20  1  0  0  0
 19 21  1  0  0  0
 22 23  1  0  0  0
 22 34  1  0  0  0
 22 35  1  0  0  0
 23 24  1  0  0  0
 23 36  1  0  0  0
 23 37  1  0  0  0
 24 25  1  0  0  0
 24 38  1  0  0  0
 24 39  1  0  0  0
 25 26  1  0  0  0
 25 40  1  0  0  0
 25 41  1  0  0  0
 26 42  1  0  0  0
 26 43  1  0  0  0
M  END
> <i_i_glide_confnum>
171

> <i_i_glide_lignum>
4316

> <i_i_glide_posenum>
39

> <i_i_glide_rotatable_bonds>
7

> <i_m_Source_File_Index>
431

> <b_m_subgroup_collapsed>
0

> <r_i_docking_score>
-4.75844

> <r_i_glide_ecoul>
0.0998244

> <r_i_glide_eff_state_penalty>
0

> <r_i_glide_einternal>
9.81991

> <r_i_glide_emodel>
-50.369

> <r_i_glide_energy>
-44.6175

> <r_i_glide_erotb>
0.576656

> <r_i_glide_esite>
0

> <r_i_glide_evdw>
-44.7173

> <r_i_glide_gscore>
-4.75844

> <r_i_glide_hbond>
0

> <r_i_glide_ligand_efficiency>
-0.183017

> <r_i_glide_ligand_efficiency_ln>
-1.1175

> <r_i_glide_ligand_efficiency_sa>
-0.542186

> <r_i_glide_lipo>
-2.74824

> <r_i_glide_metal>
0

> <r_i_glide_rewards>
-0.365958

> <s_i_glide_gridfile>
wee1_glide-grid

> <s_m_Source_File>
wee1_decoys_glide_SP.sdf

> <s_m_Source_Path>
/Users/zhangxujun/Desktop

> <s_m_entry_id>
706

> <s_m_entry_name>
wee1_decoys_glide_SP.431

> <s_m_subgroup_title>
wee1_decoys_glide_SP

> <s_m_subgroupid>
wee1_decoys_glide_SP


$$$$
