@<TRIPOS>MOLECULE
ZINC01003086_815
63   66    1
SMALL
USER_CHARGES


@<TRIPOS>ATOM
      1 C1          0.5084   49.8851   24.5010 C.3       1 UNK         0.0000 
      2 C2          0.6928   51.3937   24.2922 C.3       1 UNK         0.0000 
      3 O3          1.6846   51.6047   23.2947 O.3       1 UNK         0.0000 
      4 C4          1.9966   52.8549   22.8674 C.2       1 UNK         0.0000 
      5 O5          1.4277   53.8728   23.2696 O.2       1 UNK         0.0000 
      6 C6          3.1238   52.8962   21.9067 C.2       1 UNK         0.0000 
      7 C7          3.3366   51.9014   21.0109 C.2       1 UNK         0.0000 
      8 O8          4.3051   51.9445   20.0799 O.3       1 UNK         0.0000 
      9 C9          4.9997   53.0825   19.8443 C.2       1 UNK         0.0000 
     10 C10         4.9899   54.1477   20.6858 C.2       1 UNK         0.0000 
     11 C11         4.1191   54.0919   21.9842 C.3       1 UNK         0.0000 
     12 H12         3.5662   55.0323   22.0559 H         1 UNK         0.0000 
     13 C13         4.9005   54.1643   23.3155 C.ar      1 UNK         0.0000 
     14 C14         6.2766   53.9430   23.3610 C.ar      1 UNK         0.0000 
     15 C15         6.9875   54.0966   24.5379 C.ar      1 UNK         0.0000 
     16 C16         6.3480   54.3994   25.7336 C.ar      1 UNK         0.0000 
     17 C17         4.9614   54.5778   25.7185 C.ar      1 UNK         0.0000 
     18 C18         4.2595   54.4967   24.5153 C.ar      1 UNK         0.0000 
     19 C19         4.1936   54.8965   26.9756 C.3       1 UNK         0.0000 
     20 O20         3.7803   53.6908   27.5858 O.3       1 UNK         0.0000 
     21 C21         2.8691   53.7539   28.6147 C.ar      1 UNK         0.0000 
     22 C22         2.1915   54.9204   29.0188 C.ar      1 UNK         0.0000 
     23 C23         1.2343   54.8564   30.0228 C.ar      1 UNK         0.0000 
     24 C24         0.9696   53.6363   30.6394 C.ar      1 UNK         0.0000 
     25 C25         1.6835   52.4959   30.2865 C.ar      1 UNK         0.0000 
     26 C26         2.6211   52.5504   29.2668 C.ar      1 UNK         0.0000 
     27 C27        -0.0951   53.5255   31.6990 C.3       1 UNK         0.0000 
     28 O28         7.1040   54.5945   26.8637 O.3       1 UNK         0.0000 
     29 C29         7.1006   53.5165   27.7910 C.3       1 UNK         0.0000 
     30 C30         5.9038   55.2968   20.4193 C.2       1 UNK         0.0000 
     31 O31         6.1767   56.1354   21.2758 O.2       1 UNK         0.0000 
     32 C32         6.7120   55.2799   19.1089 C.3       1 UNK         0.0000 
     33 C33         6.0773   54.4080   18.0124 C.3       1 UNK         0.0000 
     34 C34         5.7699   52.9934   18.5324 C.3       1 UNK         0.0000 
     35 N35         2.6318   50.7470   20.7876 N.pl3     1 UNK         0.0000 
     36 H36        -0.2336   49.6880   25.2740 H         1 UNK         0.0000 
     37 H37         0.1719   49.4017   23.5842 H         1 UNK         0.0000 
     38 H38         1.4377   49.4038   24.8079 H         1 UNK         0.0000 
     39 H39         0.9975   51.8678   25.2261 H         1 UNK         0.0000 
     40 H40        -0.2522   51.8463   23.9855 H         1 UNK         0.0000 
     41 H41         6.8371   53.6961   22.4817 H         1 UNK         0.0000 
     42 H42         8.0447   53.9675   24.4817 H         1 UNK         0.0000 
     43 H43         3.2068   54.7146   24.5319 H         1 UNK         0.0000 
     44 H44         4.8174   55.4576   27.6673 H         1 UNK         0.0000 
     45 H45         3.3347   55.5020   26.6913 H         1 UNK         0.0000 
     46 H46         2.3738   55.8771   28.5563 H         1 UNK         0.0000 
     47 H47         0.6989   55.7491   30.3134 H         1 UNK         0.0000 
     48 H48         1.4988   51.5652   30.7927 H         1 UNK         0.0000 
     49 H49         3.1482   51.6590   28.9634 H         1 UNK         0.0000 
     50 H50        -0.4856   54.4949   32.0040 H         1 UNK         0.0000 
     51 H51        -0.8972   52.8985   31.3054 H         1 UNK         0.0000 
     52 H52         0.3036   53.0334   32.5875 H         1 UNK         0.0000 
     53 H53         7.7245   53.7759   28.6438 H         1 UNK         0.0000 
     54 H54         6.1107   53.2908   28.1819 H         1 UNK         0.0000 
     55 H55         7.5044   52.6078   27.3473 H         1 UNK         0.0000 
     56 H56         6.8990   56.3007   18.7774 H         1 UNK         0.0000 
     57 H57         7.6772   54.8442   19.3640 H         1 UNK         0.0000 
     58 H58         5.1569   54.8808   17.6617 H         1 UNK         0.0000 
     59 H59         6.7377   54.3484   17.1459 H         1 UNK         0.0000 
     60 H60         5.1498   52.4979   17.7825 H         1 UNK         0.0000 
     61 H61         6.6535   52.3640   18.6239 H         1 UNK         0.0000 
     62 H62         1.8463   50.5033   21.3716 H         1 UNK         0.0000 
     63 H63         2.8805   50.1365   20.0220 H         1 UNK         0.0000 
@<TRIPOS>BOND
     1    1    2 1    
     2    1   36 1    
     3    1   37 1    
     4    1   38 1    
     5    2    3 1    
     6    2   39 1    
     7    2   40 1    
     8    3    4 1    
     9    4    5 2    
    10    4    6 1    
    11    6   11 1    
    12    6    7 2    
    13    7    8 1    
    14    7   35 1    
    15    8    9 1    
    16    9   34 1    
    17    9   10 2    
    18   10   11 1    
    19   10   30 1    
    20   11   12 1    
    21   11   13 1    
    22   13   18 ar   
    23   13   14 ar   
    24   14   15 ar   
    25   14   41 1    
    26   15   16 ar   
    27   15   42 1    
    28   16   17 ar   
    29   16   28 1    
    30   17   18 ar   
    31   17   19 1    
    32   18   43 1    
    33   19   20 1    
    34   19   44 1    
    35   19   45 1    
    36   20   21 1    
    37   21   26 ar   
    38   21   22 ar   
    39   22   23 ar   
    40   22   46 1    
    41   23   24 ar   
    42   23   47 1    
    43   24   25 ar   
    44   24   27 1    
    45   25   26 ar   
    46   25   48 1    
    47   26   49 1    
    48   27   50 1    
    49   27   51 1    
    50   27   52 1    
    51   28   29 1    
    52   29   53 1    
    53   29   54 1    
    54   29   55 1    
    55   30   31 2    
    56   30   32 1    
    57   32   33 1    
    58   32   56 1    
    59   32   57 1    
    60   33   34 1    
    61   33   58 1    
    62   33   59 1    
    63   34   60 1    
    64   34   61 1    
    65   35   62 1    
    66   35   63 1    
@<TRIPOS>SUBSTRUCTURE
     1 UNK         1 GROUP             0       ****    0 ROOT    
