ZINC38885675_366
                    3D
 Schrodinger Suite 2024-2.
 68 71  0  0  1  0            999 V2000
   10.6643   56.2721   16.4883 C   0  0  0  0  0  0
   10.2597   54.9046   17.0677 C   0  0  0  0  0  0
   11.4975   54.0372   17.3272 C   0  0  0  0  0  0
    9.5045   55.0419   18.3333 N   0  0  0  0  0  0
    8.0523   56.0295   18.3192 S   0  0  0  0  0  0
    8.4640   57.4174   18.5496 O   0  0  0  0  0  0
    7.2599   55.6607   17.1408 O   0  0  0  0  0  0
    7.1554   55.5096   19.7696 C   0  0  0  0  0  0
    7.7225   55.6964   21.0299 C   0  0  0  0  0  0
    7.0455   55.2745   22.1698 C   0  0  0  0  0  0
    5.8154   54.6043   22.0719 C   0  0  0  0  0  0
    5.2621   54.4106   20.7899 C   0  0  0  0  0  0
    5.9140   54.8855   19.6501 C   0  0  0  0  0  0
    4.0740   53.6883   20.6130 N   0  0  0  0  0  0
    3.9656   52.3807   20.9283 C   0  0  0  0  0  0
    4.9272   51.6947   21.2814 O   0  0  0  0  0  0
    2.5557   51.7612   20.9143 C   0  0  1  0  0  0
    1.8676   52.6087   20.8564 H   0  0  0  0  0  0
    2.3506   50.8287   19.6995 C   0  0  0  0  0  0
    0.9050   50.2686   19.7663 C   0  0  0  0  0  0
    0.5428   49.6094   21.1255 C   0  0  0  0  0  0
    0.8565   50.5981   22.2834 N   0  3  2  0  0  0
    2.3575   50.9682   22.2232 C   0  0  0  0  0  0
    0.4582   50.0226   23.6732 C   0  0  0  0  0  0
    0.5416   51.0962   24.7550 C   0  0  0  0  0  0
    0.3046   50.9658   26.0332 N   0  0  0  0  0  0
    0.6530   52.1530   26.5105 C   0  0  0  0  0  0
    1.1045   53.0125   25.6231 N   0  0  0  0  0  0
    0.9535   52.3401   24.4152 O   0  0  0  0  0  0
    0.5382   52.5259   27.9664 C   0  0  0  0  0  0
    1.1560   53.6901   28.4537 C   0  0  0  0  0  0
    1.0386   54.0522   29.7925 C   0  0  0  0  0  0
    0.3040   53.2492   30.6585 C   0  0  0  0  0  0
   -0.3203   52.0973   30.1928 C   0  0  0  0  0  0
   -0.2016   51.7327   28.8537 C   0  0  0  0  0  0
    5.1177   54.1268   23.1693 O   0  0  0  0  0  0
    5.6912   54.2189   24.4682 C   0  0  0  0  0  0
   11.2762   56.1511   15.5946 H   0  0  0  0  0  0
   11.2382   56.8592   17.2060 H   0  0  0  0  0  0
    9.7950   56.8608   16.1950 H   0  0  0  0  0  0
    9.6238   54.3696   16.3602 H   0  0  0  0  0  0
   12.0840   53.8977   16.4176 H   0  0  0  0  0  0
   12.1494   54.4899   18.0772 H   0  0  0  0  0  0
   11.2170   53.0440   17.6806 H   0  0  0  0  0  0
   10.1521   55.3974   19.0451 H   0  0  0  0  0  0
    8.6923   56.1614   21.1298 H   0  0  0  0  0  0
    7.5040   55.4491   23.1311 H   0  0  0  0  0  0
    5.4813   54.7121   18.6728 H   0  0  0  0  0  0
    3.2781   54.1775   20.2252 H   0  0  0  0  0  0
    2.4462   51.3654   18.7541 H   0  0  0  0  0  0
    3.0275   49.9716   19.7277 H   0  0  0  0  0  0
    0.1951   51.0706   19.5520 H   0  0  0  0  0  0
    0.7687   49.5415   18.9638 H   0  0  0  0  0  0
   -0.5253   49.3967   21.1663 H   0  0  0  0  0  0
    1.1065   48.6942   21.3107 H   0  0  0  0  0  0
    2.9181   50.0298   22.2582 H   0  0  0  0  0  0
    2.6377   51.5675   23.0881 H   0  0  0  0  0  0
   -0.5600   49.6481   23.5602 H   0  0  0  0  0  0
    1.1249   49.1772   23.8574 H   0  0  0  0  0  0
    1.7283   54.3303   27.7954 H   0  0  0  0  0  0
    1.5080   54.9532   30.1567 H   0  0  0  0  0  0
    0.1985   53.5180   31.7000 H   0  0  0  0  0  0
   -0.8954   51.4818   30.8753 H   0  0  0  0  0  0
   -0.6984   50.8363   28.5063 H   0  0  0  0  0  0
    5.0231   53.7465   25.1890 H   0  0  0  0  0  0
    6.6491   53.6997   24.5187 H   0  0  0  0  0  0
    5.8274   55.2576   24.7752 H   0  0  0  0  0  0
    0.3178   51.4482   22.1642 H   0  0  0  0  0  0
  1  2  1  0  0  0
  1 38  1  0  0  0
  1 39  1  0  0  0
  1 40  1  0  0  0
  2  3  1  0  0  0
  2  4  1  0  0  0
  2 41  1  0  0  0
  3 42  1  0  0  0
  3 43  1  0  0  0
  3 44  1  0  0  0
  4  5  1  0  0  0
  4 45  1  0  0  0
  5  6  2  0  0  0
  5  7  2  0  0  0
  5  8  1  0  0  0
  8 13  2  0  0  0
  8  9  1  0  0  0
  9 10  2  0  0  0
  9 46  1  0  0  0
 10 11  1  0  0  0
 10 47  1  0  0  0
 11 12  2  0  0  0
 11 36  1  0  0  0
 12 13  1  0  0  0
 12 14  1  0  0  0
 13 48  1  0  0  0
 14 15  1  0  0  0
 14 49  1  0  0  0
 15 16  2  0  0  0
 15 17  1  0  0  0
 17 18  1  0  0  0
 17 23  1  0  0  0
 17 19  1  0  0  0
 19 20  1  0  0  0
 19 50  1  0  0  0
 19 51  1  0  0  0
 20 21  1  0  0  0
 20 52  1  0  0  0
 20 53  1  0  0  0
 21 22  1  0  0  0
 21 54  1  0  0  0
 21 55  1  0  0  0
 22 23  1  0  0  0
 22 24  1  0  0  0
 22 68  1  0  0  0
 23 56  1  0  0  0
 23 57  1  0  0  0
 24 25  1  0  0  0
 24 58  1  0  0  0
 24 59  1  0  0  0
 25 29  1  0  0  0
 25 26  2  0  0  0
 26 27  1  0  0  0
 27 28  2  0  0  0
 27 30  1  0  0  0
 28 29  1  0  0  0
 30 35  2  0  0  0
 30 31  1  0  0  0
 31 32  2  0  0  0
 31 60  1  0  0  0
 32 33  1  0  0  0
 32 61  1  0  0  0
 33 34  2  0  0  0
 33 62  1  0  0  0
 34 35  1  0  0  0
 34 63  1  0  0  0
 35 64  1  0  0  0
 36 37  1  0  0  0
 37 65  1  0  0  0
 37 66  1  0  0  0
 37 67  1  0  0  0
M  CHG  1  22   1
M  END
> <i_i_glide_confnum>
169

> <i_i_glide_lignum>
367

> <i_i_glide_posenum>
262

> <i_i_glide_rotatable_bonds>
10

> <i_m_Source_File_Index>
4246

> <b_m_subgroup_collapsed>
0

> <r_i_docking_score>
-2.61111

> <r_i_glide_ecoul>
-8.11203

> <r_i_glide_eff_state_penalty>
0

> <r_i_glide_einternal>
13.1135

> <r_i_glide_emodel>
-46.9625

> <r_i_glide_energy>
-53.0191

> <r_i_glide_erotb>
0.619677

> <r_i_glide_esite>
-0.000171619

> <r_i_glide_evdw>
-44.907

> <r_i_glide_gscore>
-2.61111

> <r_i_glide_hbond>
-0.519763

> <r_i_glide_ligand_efficiency>
-0.0725308

> <r_i_glide_ligand_efficiency_ln>
-0.569673

> <r_i_glide_ligand_efficiency_sa>
-0.239491

> <r_i_glide_lipo>
-1.95301

> <r_i_glide_metal>
0

> <r_i_glide_rewards>
2.70432

> <s_i_glide_gridfile>
wee1_glide-grid

> <s_m_Source_File>
wee1_decoys_glide_SP.sdf

> <s_m_Source_Path>
/Users/zhangxujun/Desktop

> <s_m_entry_id>
4521

> <s_m_entry_name>
wee1_decoys_glide_SP.4246

> <s_m_subgroup_title>
wee1_decoys_glide_SP

> <s_m_subgroupid>
wee1_decoys_glide_SP


$$$$
