@<TRIPOS>MOLECULE
ZINC62824347_3851
38   40    1
SMALL
USER_CHARGES


@<TRIPOS>ATOM
      1 C1          3.9043   51.9333   30.8936 C.3       1 UNK         0.0000 
      2 C2          3.7346   53.2117   30.0819 C.3       1 UNK         0.0000 
      3 H3          4.1873   54.0416   30.6271 H         1 UNK         0.0000 
      4 C4          2.2318   53.5012   29.8728 C.3       1 UNK         0.0000 
      5 C5          2.0384   54.8098   29.0970 C.3       1 UNK         0.0000 
      6 C6          2.8090   54.7407   27.7670 C.3       1 UNK         0.0000 
      7 C7          4.3183   54.4330   27.9539 C.3       1 UNK         0.0000 
      8 H8          4.7263   55.2063   28.6074 H         1 UNK         0.0000 
      9 C9          4.4411   53.0977   28.7112 C.3       1 UNK         0.0000 
     10 C10         5.1170   54.4707   26.6556 C.2       1 UNK         0.0000 
     11 N11         4.5399   54.3431   25.4762 N.2       1 UNK         0.0000 
     12 C12         5.5423   54.4825   24.6501 C.2       1 UNK         0.0000 
     13 O13         6.7294   54.6671   25.2899 O.3       1 UNK         0.0000 
     14 N14         6.4228   54.6490   26.6496 N.2       1 UNK         0.0000 
     15 C15         5.5045   54.4953   23.1478 C.ar      1 UNK         0.0000 
     16 C16         6.6393   54.9734   22.4794 C.ar      1 UNK         0.0000 
     17 C17         6.6695   55.0626   21.0901 C.ar      1 UNK         0.0000 
     18 C18         5.5665   54.6629   20.3397 C.ar      1 UNK         0.0000 
     19 C19         4.4340   54.1747   20.9836 C.ar      1 UNK         0.0000 
     20 C20         4.3906   54.0966   22.3770 C.ar      1 UNK         0.0000 
     21 N21         3.2100   53.6259   22.9518 N.pl3     1 UNK         0.0000 
     22 I22         8.4128   55.6968   20.1318 I         1 UNK         0.0000 
     23 H23         3.5043   51.1118   30.3104 H         1 UNK         0.0000 
     24 H24         3.3860   51.9783   31.8539 H         1 UNK         0.0000 
     25 H25         4.9500   51.6968   31.0840 H         1 UNK         0.0000 
     26 H26         1.7610   52.6721   29.3418 H         1 UNK         0.0000 
     27 H27         1.7086   53.5426   30.8300 H         1 UNK         0.0000 
     28 H28         2.3892   55.6565   29.6902 H         1 UNK         0.0000 
     29 H29         0.9777   54.9833   28.9102 H         1 UNK         0.0000 
     30 H30         2.7042   55.6979   27.2817 H         1 UNK         0.0000 
     31 H31         2.3404   53.9806   27.1402 H         1 UNK         0.0000 
     32 H32         5.4895   52.8525   28.8886 H         1 UNK         0.0000 
     33 H33         4.0124   52.2708   28.1432 H         1 UNK         0.0000 
     34 H34         7.5045   55.2929   23.0375 H         1 UNK         0.0000 
     35 H35         5.5922   54.7168   19.2611 H         1 UNK         0.0000 
     36 H36         3.5818   53.8722   20.3913 H         1 UNK         0.0000 
     37 H37         3.1335   53.6170   23.9608 H         1 UNK         0.0000 
     38 H38         2.4131   53.4329   22.3621 H         1 UNK         0.0000 
@<TRIPOS>BOND
     1    1    2 1    
     2    1   23 1    
     3    1   24 1    
     4    1   25 1    
     5    2    3 1    
     6    2    9 1    
     7    2    4 1    
     8    4    5 1    
     9    4   26 1    
    10    4   27 1    
    11    5    6 1    
    12    5   28 1    
    13    5   29 1    
    14    6    7 1    
    15    6   30 1    
    16    6   31 1    
    17    7    8 1    
    18    7    9 1    
    19    7   10 1    
    20    9   32 1    
    21    9   33 1    
    22   10   14 2    
    23   10   11 1    
    24   11   12 2    
    25   12   13 1    
    26   12   15 1    
    27   13   14 1    
    28   15   20 ar   
    29   15   16 ar   
    30   16   17 ar   
    31   16   34 1    
    32   17   18 ar   
    33   17   22 1    
    34   18   19 ar   
    35   18   35 1    
    36   19   20 ar   
    37   19   36 1    
    38   20   21 1    
    39   21   37 1    
    40   21   38 1    
@<TRIPOS>SUBSTRUCTURE
     1 UNK         1 GROUP             0       ****    0 ROOT    
