ZINC39652855_3672
                    3D
 Schrodinger Suite 2024-2.
 68 71  0  0  1  0            999 V2000
    6.0979   54.3817   23.5022 C   0  0  0  0  0  0
    6.7054   54.3621   24.7541 C   0  0  0  0  0  0
    5.9312   54.2075   25.9018 C   0  0  0  0  0  0
    4.5453   54.0972   25.8086 C   0  0  0  0  0  0
    3.9336   54.1389   24.5581 C   0  0  0  0  0  0
    4.7087   54.2731   23.4011 C   0  0  0  0  0  0
    4.0360   54.3924   22.0346 C   0  0  0  0  0  0
    3.7406   53.0614   21.3036 C   0  0  0  0  0  0
    2.9878   52.0756   22.0821 N   0  0  0  0  0  0
    1.7549   52.2537   22.5840 C   0  0  0  0  0  0
    1.1192   53.2951   22.4367 O   0  0  0  0  0  0
    1.1901   51.1260   23.4696 C   0  0  1  0  0  0
    1.9942   50.4217   23.6941 H   0  0  0  0  0  0
    0.7721   51.7817   24.8056 C   0  0  0  0  0  0
   -0.4233   51.0470   25.2053 N   0  0  0  0  0  0
   -0.7976   50.0091   24.2471 C   0  0  0  0  0  0
   -0.0659   50.3706   22.9358 C   0  0  0  0  0  0
    0.2646   49.0753   22.1624 C   0  0  0  0  0  0
    0.8546   49.3332   20.7666 C   0  0  0  0  0  0
   -0.2092   50.0779   19.9392 N   0  3  0  0  0  0
   -0.6732   51.4030   20.5807 C   0  0  0  0  0  0
   -1.0859   51.1795   22.0619 C   0  0  0  0  0  0
   -1.1682   51.3325   26.2991 C   0  0  0  0  0  0
   -2.2737   50.8229   26.4836 O   0  0  0  0  0  0
   -0.6300   52.3316   27.3457 C   0  0  0  0  0  0
   -0.9201   51.9029   28.8056 C   0  0  0  0  0  0
   -0.0704   52.5797   29.9048 C   0  0  0  0  0  0
    1.4259   52.1856   29.9303 C   0  0  0  0  0  0
    2.2172   53.4982   29.9146 C   0  0  0  0  0  0
    1.2365   54.5275   30.4776 C   0  0  0  0  0  0
   -0.0848   54.1145   29.8645 C   0  0  0  0  0  0
    6.7766   54.1390   27.6055 Br  0  0  0  0  0  0
    6.7061   54.5077   22.6183 H   0  0  0  0  0  0
    7.7757   54.4669   24.8324 H   0  0  0  0  0  0
    3.9485   53.9832   26.7012 H   0  0  0  0  0  0
    2.8570   54.0818   24.4918 H   0  0  0  0  0  0
    4.6426   55.0254   21.3867 H   0  0  0  0  0  0
    3.1063   54.9492   22.1543 H   0  0  0  0  0  0
    4.6919   52.5656   21.1062 H   0  0  0  0  0  0
    3.2547   53.2413   20.3419 H   0  0  0  0  0  0
    3.4547   51.1995   22.2581 H   0  0  0  0  0  0
    0.4375   52.8140   24.6782 H   0  0  0  0  0  0
    1.5657   51.6976   25.5465 H   0  0  0  0  0  0
   -0.3583   49.0874   24.6321 H   0  0  0  0  0  0
   -1.8646   49.8210   24.1154 H   0  0  0  0  0  0
    0.9649   48.4967   22.7622 H   0  0  0  0  0  0
   -0.6254   48.4505   22.0671 H   0  0  0  0  0  0
    1.7524   49.9522   20.7734 H   0  0  0  0  0  0
    1.0689   48.4096   20.2269 H   0  0  0  0  0  0
    0.1557   50.2606   19.0127 H   0  0  0  0  0  0
    0.1549   52.0967   20.4432 H   0  0  0  0  0  0
   -1.5053   51.7599   19.9734 H   0  0  0  0  0  0
   -2.0339   50.6390   22.0317 H   0  0  0  0  0  0
   -1.3337   52.1256   22.5465 H   0  0  0  0  0  0
   -1.0934   53.2956   27.1419 H   0  0  0  0  0  0
    0.4436   52.4693   27.2363 H   0  0  0  0  0  0
   -0.7881   50.8270   28.9075 H   0  0  0  0  0  0
   -1.9731   52.0857   29.0202 H   0  0  0  0  0  0
   -0.4783   52.2747   30.8732 H   0  0  0  0  0  0
    1.7192   51.5128   29.1221 H   0  0  0  0  0  0
    1.6488   51.6967   30.8792 H   0  0  0  0  0  0
    2.4852   53.7605   28.8895 H   0  0  0  0  0  0
    3.1449   53.4334   30.4838 H   0  0  0  0  0  0
    1.5112   55.5573   30.2429 H   0  0  0  0  0  0
    1.1043   54.4402   31.5574 H   0  0  0  0  0  0
   -0.8954   54.5481   30.4349 H   0  0  0  0  0  0
   -0.0956   54.4962   28.8438 H   0  0  0  0  0  0
   -1.0090   49.4711   19.8180 H   0  0  0  0  0  0
  1  6  2  0  0  0
  1  2  1  0  0  0
  1 33  1  0  0  0
  2  3  2  0  0  0
  2 34  1  0  0  0
  3  4  1  0  0  0
  3 32  1  0  0  0
  4  5  2  0  0  0
  4 35  1  0  0  0
  5  6  1  0  0  0
  5 36  1  0  0  0
  6  7  1  0  0  0
  7  8  1  0  0  0
  7 37  1  0  0  0
  7 38  1  0  0  0
  8  9  1  0  0  0
  8 39  1  0  0  0
  8 40  1  0  0  0
  9 10  1  0  0  0
  9 41  1  0  0  0
 10 11  2  0  0  0
 10 12  1  0  0  0
 12 13  1  0  0  0
 12 17  1  0  0  0
 12 14  1  0  0  0
 14 15  1  0  0  0
 14 42  1  0  0  0
 14 43  1  0  0  0
 15 16  1  0  0  0
 15 23  1  0  0  0
 16 17  1  0  0  0
 16 44  1  0  0  0
 16 45  1  0  0  0
 17 22  1  0  0  0
 17 18  1  0  0  0
 18 19  1  0  0  0
 18 46  1  0  0  0
 18 47  1  0  0  0
 19 20  1  0  0  0
 19 48  1  0  0  0
 19 49  1  0  0  0
 20 21  1  0  0  0
 20 50  1  0  0  0
 20 68  1  0  0  0
 21 22  1  0  0  0
 21 51  1  0  0  0
 21 52  1  0  0  0
 22 53  1  0  0  0
 22 54  1  0  0  0
 23 24  2  0  0  0
 23 25  1  0  0  0
 25 26  1  0  0  0
 25 55  1  0  0  0
 25 56  1  0  0  0
 26 27  1  0  0  0
 26 57  1  0  0  0
 26 58  1  0  0  0
 27 31  1  0  0  0
 27 28  1  0  0  0
 27 59  1  0  0  0
 28 29  1  0  0  0
 28 60  1  0  0  0
 28 61  1  0  0  0
 29 30  1  0  0  0
 29 62  1  0  0  0
 29 63  1  0  0  0
 30 31  1  0  0  0
 30 64  1  0  0  0
 30 65  1  0  0  0
 31 66  1  0  0  0
 31 67  1  0  0  0
M  CHG  1  20   1
M  END
> <i_i_glide_confnum>
389

> <i_i_glide_lignum>
3673

> <i_i_glide_posenum>
256

> <i_i_glide_rotatable_bonds>
9

> <i_m_Source_File_Index>
2643

> <b_m_subgroup_collapsed>
0

> <r_i_docking_score>
-3.74912

> <r_i_glide_ecoul>
2.02626

> <r_i_glide_eff_state_penalty>
0

> <r_i_glide_einternal>
7.18917

> <r_i_glide_emodel>
-35.9507

> <r_i_glide_energy>
-35.1845

> <r_i_glide_erotb>
0.589945

> <r_i_glide_esite>
-0.0541331

> <r_i_glide_evdw>
-37.2107

> <r_i_glide_gscore>
-3.74912

> <r_i_glide_hbond>
0

> <r_i_glide_ligand_efficiency>
-0.120939

> <r_i_glide_ligand_efficiency_ln>
-0.845541

> <r_i_glide_ligand_efficiency_sa>
-0.379916

> <r_i_glide_lipo>
-2.43171

> <r_i_glide_metal>
0

> <r_i_glide_rewards>
-0.296628

> <s_i_glide_gridfile>
wee1_glide-grid

> <s_m_Source_File>
wee1_decoys_glide_SP.sdf

> <s_m_Source_Path>
/Users/zhangxujun/Desktop

> <s_m_entry_id>
2918

> <s_m_entry_name>
wee1_decoys_glide_SP.2643

> <s_m_subgroup_title>
wee1_decoys_glide_SP

> <s_m_subgroupid>
wee1_decoys_glide_SP


$$$$
