ZINC39682573_494
                    3D
 Schrodinger Suite 2024-2.
 68 72  0  0  1  0            999 V2000
   -1.0692   46.6525   20.0120 C   0  0  0  0  0  0
   -1.7786   47.6243   20.7130 C   0  0  0  0  0  0
   -1.4438   48.9663   20.5607 C   0  0  0  0  0  0
   -0.3985   49.3408   19.7061 C   0  0  0  0  0  0
    0.3106   48.3550   19.0108 C   0  0  0  0  0  0
   -0.0250   47.0120   19.1613 C   0  0  0  0  0  0
    0.0184   50.8133   19.5658 C   0  0  1  0  0  0
    1.0517   50.8130   19.2093 H   0  0  0  0  0  0
   -0.7966   51.5731   18.4736 C   0  0  0  0  0  0
   -2.1931   52.0967   18.8750 C   0  0  0  0  0  0
   -2.8959   52.5758   17.9613 O   0  0  0  0  0  0
   -2.5305   52.0966   20.0812 O   0  5  0  0  0  0
    0.0375   51.5351   20.8418 N   0  0  0  0  0  0
    0.8942   51.3528   21.8517 C   0  0  0  0  0  0
    1.8734   50.6096   21.7663 O   0  0  0  0  0  0
    0.6310   52.2081   23.1146 C   0  0  2  0  0  0
   -0.0973   52.9822   22.8741 H   0  0  0  0  0  0
    1.9557   52.9013   23.4659 C   0  0  0  0  0  0
    1.9043   53.0850   24.9178 N   0  0  0  0  0  0
    0.7097   52.4464   25.4821 C   0  0  0  0  0  0
    0.1971   51.4531   24.4014 C   0  0  0  0  0  0
   -1.3290   51.1910   24.4613 C   0  0  0  0  0  0
   -1.7543   50.6263   25.8381 C   0  0  0  0  0  0
   -1.0023   49.2967   26.0816 N   0  3  0  0  0  0
    0.5321   49.3925   25.9148 C   0  0  0  0  0  0
    0.8236   50.0303   24.5428 C   0  0  0  0  0  0
    2.8520   53.6685   25.7106 C   0  0  0  0  0  0
    2.6902   53.8016   26.9253 O   0  0  0  0  0  0
    4.1154   54.0968   25.1250 C   0  0  0  0  0  0
    5.2875   54.5458   25.7257 C   0  0  0  0  0  0
    6.2138   54.7746   24.7033 C   0  0  0  0  0  0
    5.5712   54.4967   23.5038 C   0  0  0  0  0  0
    4.3054   54.0960   23.7784 O   0  0  0  0  0  0
    5.9363   54.6362   22.0653 C   0  0  0  0  0  0
    7.1049   55.3209   21.7190 C   0  0  0  0  0  0
    7.4417   55.5089   20.3815 C   0  0  0  0  0  0
    6.6070   55.0105   19.3837 C   0  0  0  0  0  0
    5.4392   54.3272   19.7156 C   0  0  0  0  0  0
    5.1043   54.1378   21.0548 C   0  0  0  0  0  0
    6.9364   55.1879   18.0860 F   0  0  0  0  0  0
   -1.3298   45.6105   20.1288 H   0  0  0  0  0  0
   -2.5871   47.3407   21.3713 H   0  0  0  0  0  0
   -1.9964   49.7180   21.1047 H   0  0  0  0  0  0
    1.1274   48.6274   18.3573 H   0  0  0  0  0  0
    0.5268   46.2546   18.6245 H   0  0  0  0  0  0
   -0.2126   52.4306   18.1355 H   0  0  0  0  0  0
   -0.9011   50.9413   17.5895 H   0  0  0  0  0  0
   -0.7922   52.0977   20.9934 H   0  0  0  0  0  0
    2.8012   52.2352   23.2867 H   0  0  0  0  0  0
    2.0578   53.8417   22.9207 H   0  0  0  0  0  0
   -0.0422   53.2289   25.5594 H   0  0  0  0  0  0
    0.8199   52.0105   26.4741 H   0  0  0  0  0  0
   -1.8598   52.1341   24.3224 H   0  0  0  0  0  0
   -1.6592   50.5552   23.6372 H   0  0  0  0  0  0
   -1.5088   51.2811   26.6777 H   0  0  0  0  0  0
   -2.8166   50.3809   25.8823 H   0  0  0  0  0  0
   -1.2258   48.9280   27.0240 H   0  0  0  0  0  0
    0.9150   49.9473   26.7721 H   0  0  0  0  0  0
    0.9145   48.3748   25.9746 H   0  0  0  0  0  0
    0.5037   49.3612   23.7410 H   0  0  0  0  0  0
    1.9038   50.0866   24.4265 H   0  0  0  0  0  0
    5.4545   54.6678   26.7859 H   0  0  0  0  0  0
    7.2270   55.1284   24.8130 H   0  0  0  0  0  0
    7.7612   55.7128   22.4818 H   0  0  0  0  0  0
    8.3508   56.0263   20.1133 H   0  0  0  0  0  0
    4.7986   53.9422   18.9350 H   0  0  0  0  0  0
    4.1911   53.6128   21.2972 H   0  0  0  0  0  0
   -1.3505   48.5981   25.4418 H   0  0  0  0  0  0
  1  6  2  0  0  0
  1  2  1  0  0  0
  1 41  1  0  0  0
  2  3  2  0  0  0
  2 42  1  0  0  0
  3  4  1  0  0  0
  3 43  1  0  0  0
  4  5  2  0  0  0
  4  7  1  0  0  0
  5  6  1  0  0  0
  5 44  1  0  0  0
  6 45  1  0  0  0
  7  8  1  0  0  0
  7  9  1  0  0  0
  7 13  1  0  0  0
  9 10  1  0  0  0
  9 46  1  0  0  0
  9 47  1  0  0  0
 10 11  2  0  0  0
 10 12  1  0  0  0
 13 14  1  0  0  0
 13 48  1  0  0  0
 14 15  2  0  0  0
 14 16  1  0  0  0
 16 17  1  0  0  0
 16 21  1  0  0  0
 16 18  1  0  0  0
 18 19  1  0  0  0
 18 49  1  0  0  0
 18 50  1  0  0  0
 19 20  1  0  0  0
 19 27  1  0  0  0
 20 21  1  0  0  0
 20 51  1  0  0  0
 20 52  1  0  0  0
 21 26  1  0  0  0
 21 22  1  0  0  0
 22 23  1  0  0  0
 22 53  1  0  0  0
 22 54  1  0  0  0
 23 24  1  0  0  0
 23 55  1  0  0  0
 23 56  1  0  0  0
 24 25  1  0  0  0
 24 57  1  0  0  0
 24 68  1  0  0  0
 25 26  1  0  0  0
 25 58  1  0  0  0
 25 59  1  0  0  0
 26 60  1  0  0  0
 26 61  1  0  0  0
 27 28  2  0  0  0
 27 29  1  0  0  0
 29 33  1  0  0  0
 29 30  2  0  0  0
 30 31  1  0  0  0
 30 62  1  0  0  0
 31 32  2  0  0  0
 31 63  1  0  0  0
 32 33  1  0  0  0
 32 34  1  0  0  0
 34 39  2  0  0  0
 34 35  1  0  0  0
 35 36  2  0  0  0
 35 64  1  0  0  0
 36 37  1  0  0  0
 36 65  1  0  0  0
 37 38  2  0  0  0
 37 40  1  0  0  0
 38 39  1  0  0  0
 38 66  1  0  0  0
 39 67  1  0  0  0
M  CHG  2  12  -1  24   1
M  END
> <i_i_glide_confnum>
215

> <i_i_glide_lignum>
495

> <i_i_glide_posenum>
184

> <i_i_glide_rotatable_bonds>
9

> <i_m_Source_File_Index>
4918

> <b_m_subgroup_collapsed>
0

> <r_i_docking_score>
-6.17704

> <r_i_glide_ecoul>
-10.4089

> <r_i_glide_eff_state_penalty>
0

> <r_i_glide_einternal>
5.07229

> <r_i_glide_emodel>
-66.1322

> <r_i_glide_energy>
-47.2239

> <r_i_glide_erotb>
0.532769

> <r_i_glide_esite>
-0.144072

> <r_i_glide_evdw>
-36.815

> <r_i_glide_gscore>
-6.17704

> <r_i_glide_hbond>
-0.339749

> <r_i_glide_ligand_efficiency>
-0.162554

> <r_i_glide_ligand_efficiency_ln>
-1.33195

> <r_i_glide_ligand_efficiency_sa>
-0.546502

> <r_i_glide_lipo>
-2.10617

> <r_i_glide_metal>
0

> <r_i_glide_rewards>
-0.717733

> <s_i_glide_gridfile>
wee1_glide-grid

> <s_m_Source_File>
wee1_decoys_glide_SP.sdf

> <s_m_Source_Path>
/Users/zhangxujun/Desktop

> <s_m_entry_id>
5193

> <s_m_entry_name>
wee1_decoys_glide_SP.4918

> <s_m_subgroup_title>
wee1_decoys_glide_SP

> <s_m_subgroupid>
wee1_decoys_glide_SP


$$$$
