ZINC35684919_2023
                    3D
 Schrodinger Suite 2024-2.
 50 53  0  0  1  0            999 V2000
    5.3043   54.6667   27.1885 C   0  0  0  0  0  0
    4.0382   53.9944   26.7059 C   0  0  0  0  0  0
    3.5429   53.8177   25.3846 C   0  0  0  0  0  0
    2.3293   53.2973   25.3863 N   0  0  0  0  0  0
    2.0385   53.0233   26.6656 N   0  0  0  0  0  0
    3.0392   53.4493   27.4955 C   0  0  0  0  0  0
    2.9319   53.2144   28.8494 N   0  0  0  0  0  0
    2.1089   52.3118   29.4239 C   0  0  0  0  0  0
    2.1451   52.0970   30.6308 O   0  0  0  0  0  0
    1.1974   51.5429   28.4203 C   0  0  0  0  0  0
    0.7934   52.4265   27.1832 C   0  0  2  0  0  0
    0.1403   53.2168   27.5564 H   0  0  0  0  0  0
   -0.0462   51.6871   26.1103 C   0  0  0  0  0  0
   -0.7944   52.3610   25.3996 O   0  0  0  0  0  0
    0.1335   50.3565   25.9425 N   0  0  0  0  0  0
   -0.3268   49.6253   24.8324 C   0  0  0  0  0  0
   -1.1118   48.4900   25.0623 C   0  0  0  0  0  0
   -1.6032   47.7262   23.9888 C   0  0  0  0  0  0
   -1.2955   48.1310   22.6816 C   0  0  0  0  0  0
   -0.4874   49.2393   22.4503 C   0  0  0  0  0  0
    0.0266   49.9777   23.5153 C   0  0  0  0  0  0
    0.8621   51.0424   23.2615 O   0  0  0  0  0  0
    2.1096   50.6940   22.6789 C   0  0  0  0  0  0
   -2.4262   46.4958   24.2167 C   0  0  0  0  0  0
   -2.6091   46.0995   25.3876 O   0  0  0  0  0  0
   -2.8466   45.8622   23.2182 O   0  5  0  0  0  0
    4.2332   54.0970   24.0780 C   0  0  0  0  0  0
    3.4888   54.2283   22.8962 C   0  0  0  0  0  0
    4.1268   54.4713   21.6826 C   0  0  0  0  0  0
    5.5136   54.5809   21.6386 C   0  0  0  0  0  0
    6.2674   54.4428   22.8007 C   0  0  0  0  0  0
    5.6299   54.1876   24.0114 C   0  0  0  0  0  0
    6.2989   54.9022   20.1343 Cl  0  0  0  0  0  0
    6.1307   53.9597   27.2820 H   0  0  0  0  0  0
    5.6208   55.4675   26.5164 H   0  0  0  0  0  0
    5.1682   55.1359   28.1646 H   0  0  0  0  0  0
    3.5482   53.6826   29.4952 H   0  0  0  0  0  0
    1.7742   50.6726   28.1083 H   0  0  0  0  0  0
    0.3149   51.2077   28.9688 H   0  0  0  0  0  0
    0.5643   49.8230   26.6822 H   0  0  0  0  0  0
   -1.3405   48.1990   26.0814 H   0  0  0  0  0  0
   -1.6609   47.5714   21.8330 H   0  0  0  0  0  0
   -0.2477   49.5155   21.4336 H   0  0  0  0  0  0
    1.9949   50.2683   21.6808 H   0  0  0  0  0  0
    2.7217   51.5887   22.5795 H   0  0  0  0  0  0
    2.6566   49.9841   23.3007 H   0  0  0  0  0  0
    2.4104   54.1486   22.9092 H   0  0  0  0  0  0
    3.5482   54.5660   20.7758 H   0  0  0  0  0  0
    7.3454   54.5192   22.7649 H   0  0  0  0  0  0
    6.2425   54.0429   24.8870 H   0  0  0  0  0  0
  1  2  1  0  0  0
  1 34  1  0  0  0
  1 35  1  0  0  0
  1 36  1  0  0  0
  2  6  2  0  0  0
  2  3  1  0  0  0
  3  4  2  0  0  0
  3 27  1  0  0  0
  4  5  1  0  0  0
  5 11  1  0  0  0
  5  6  1  0  0  0
  6  7  1  0  0  0
  7  8  1  0  0  0
  7 37  1  0  0  0
  8  9  2  0  0  0
  8 10  1  0  0  0
 10 11  1  0  0  0
 10 38  1  0  0  0
 10 39  1  0  0  0
 11 12  1  0  0  0
 11 13  1  0  0  0
 13 14  2  0  0  0
 13 15  1  0  0  0
 15 16  1  0  0  0
 15 40  1  0  0  0
 16 21  2  0  0  0
 16 17  1  0  0  0
 17 18  2  0  0  0
 17 41  1  0  0  0
 18 19  1  0  0  0
 18 24  1  0  0  0
 19 20  2  0  0  0
 19 42  1  0  0  0
 20 21  1  0  0  0
 20 43  1  0  0  0
 21 22  1  0  0  0
 22 23  1  0  0  0
 23 44  1  0  0  0
 23 45  1  0  0  0
 23 46  1  0  0  0
 24 25  2  0  0  0
 24 26  1  0  0  0
 27 32  2  0  0  0
 27 28  1  0  0  0
 28 29  2  0  0  0
 28 47  1  0  0  0
 29 30  1  0  0  0
 29 48  1  0  0  0
 30 31  2  0  0  0
 30 33  1  0  0  0
 31 32  1  0  0  0
 31 49  1  0  0  0
 32 50  1  0  0  0
M  CHG  1  26  -1
M  END
> <i_i_glide_confnum>
42

> <i_i_glide_lignum>
2024

> <i_i_glide_posenum>
188

> <i_i_glide_rotatable_bonds>
6

> <i_m_Source_File_Index>
59

> <b_m_subgroup_collapsed>
0

> <r_i_docking_score>
-6.96869

> <r_i_glide_ecoul>
-6.22214

> <r_i_glide_eff_state_penalty>
0

> <r_i_glide_einternal>
8.5201

> <r_i_glide_emodel>
-68.8118

> <r_i_glide_energy>
-48.6794

> <r_i_glide_erotb>
0.389864

> <r_i_glide_esite>
-0.116248

> <r_i_glide_evdw>
-42.4572

> <r_i_glide_gscore>
-6.96869

> <r_i_glide_hbond>
-0.384707

> <r_i_glide_ligand_efficiency>
-0.217772

> <r_i_glide_ligand_efficiency_ln>
-1.56048

> <r_i_glide_ligand_efficiency_sa>
-0.691382

> <r_i_glide_lipo>
-2.5253

> <r_i_glide_metal>
0

> <r_i_glide_rewards>
-1.27612

> <s_i_glide_gridfile>
wee1_glide-grid

> <s_m_Source_File>
wee1_decoys_glide_SP.sdf

> <s_m_Source_Path>
/Users/zhangxujun/Desktop

> <s_m_entry_id>
334

> <s_m_entry_name>
wee1_decoys_glide_SP.59

> <s_m_subgroup_title>
wee1_decoys_glide_SP

> <s_m_subgroupid>
wee1_decoys_glide_SP


$$$$
