@<TRIPOS>MOLECULE
ZINC20811438_878
64   67    1
SMALL
USER_CHARGES


@<TRIPOS>ATOM
      1 C1          0.1172   52.5536   24.1630 C.3       1 UNK         0.0000 
      2 O2          1.0185   52.8018   25.2324 O.3       1 UNK         0.0000 
      3 C3          2.1208   53.5561   25.0481 C.2       1 UNK         0.0000 
      4 O4          2.4421   54.0519   23.9628 O.2       1 UNK         0.0000 
      5 C5          2.9298   53.6969   26.2834 C.2       1 UNK         0.0000 
      6 C6          2.5196   53.4019   27.6247 C.2       1 UNK         0.0000 
      7 C7          3.5310   53.6358   28.5715 C.2       1 UNK         0.0000 
      8 S8          5.0028   54.1567   27.8556 S.3       1 UNK         0.0000 
      9 C9          4.2744   54.1347   26.2741 C.2       1 UNK         0.0000 
     10 N10         4.9912   54.4667   25.1243 N.am      1 UNK         0.0000 
     11 C11         6.3045   54.7313   24.9641 C.2       1 UNK         0.0000 
     12 O12         7.1027   54.8965   25.8862 O.2       1 UNK         0.0000 
     13 C13         6.8620   54.8083   23.5224 C.3       1 UNK         0.0000 
     14 N14         5.8605   54.6576   22.4381 N.3       1 UNK         0.0000 
     15 C15         5.4238   53.2560   22.2807 C.3       1 UNK         0.0000 
     16 C16         4.3766   53.1219   21.1540 C.3       1 UNK         0.0000 
     17 N17         5.0043   53.5684   19.8144 N.4       1 UNK         0.0000 
     18 C18         5.5557   55.0113   19.9573 C.3       1 UNK         0.0000 
     19 C19         6.4879   55.1179   21.1848 C.3       1 UNK         0.0000 
     20 C20         3.9552   53.4374   18.6718 C.3       1 UNK         0.0000 
     21 C21         4.5857   53.8081   17.3252 C.2       1 UNK         0.0000 
     22 O22         4.3434   54.9161   16.8494 O.2       1 UNK         0.0000 
     23 N23         5.4256   52.8967   16.7946 N.am      1 UNK         0.0000 
     24 C24         6.2213   52.9973   15.6378 C.ar      1 UNK         0.0000 
     25 C25         5.9903   53.9120   14.5968 C.ar      1 UNK         0.0000 
     26 C26         6.8272   53.9230   13.4837 C.ar      1 UNK         0.0000 
     27 C27         7.8862   53.0234   13.4024 C.ar      1 UNK         0.0000 
     28 C28         8.1179   52.1096   14.4261 C.ar      1 UNK         0.0000 
     29 C29         7.2851   52.0972   15.5418 C.ar      1 UNK         0.0000 
     30 F30         8.6937   53.0336   12.3186 F         1 UNK         0.0000 
     31 C31         3.3843   53.5373   30.0815 C.3       1 UNK         0.0000 
     32 C32         2.1005   52.7610   30.4320 C.3       1 UNK         0.0000 
     33 C33         0.9061   53.2234   29.5872 C.3       1 UNK         0.0000 
     34 C34         1.1254   52.9388   28.0857 C.3       1 UNK         0.0000 
     35 H35        -0.7052   51.9280   24.5100 H         1 UNK         0.0000 
     36 H36        -0.3024   53.4856   23.7808 H         1 UNK         0.0000 
     37 H37         0.6154   52.0355   23.3421 H         1 UNK         0.0000 
     38 H38         4.4530   54.4299   24.2678 H         1 UNK         0.0000 
     39 H39         7.3837   55.7634   23.4307 H         1 UNK         0.0000 
     40 H40         7.6423   54.0534   23.4107 H         1 UNK         0.0000 
     41 H41         6.2820   52.6170   22.0820 H         1 UNK         0.0000 
     42 H42         4.9587   52.8969   23.1948 H         1 UNK         0.0000 
     43 H43         3.4894   53.7362   21.3307 H         1 UNK         0.0000 
     44 H44         4.0860   52.0771   21.0291 H         1 UNK         0.0000 
     45 H45         4.7053   55.6860   19.9990 H         1 UNK         0.0000 
     46 H46         6.1329   55.2174   19.0541 H         1 UNK         0.0000 
     47 H47         6.8160   56.1544   21.2769 H         1 UNK         0.0000 
     48 H48         7.3632   54.4967   21.0020 H         1 UNK         0.0000 
     49 H49         3.6136   52.3996   18.6824 H         1 UNK         0.0000 
     50 H50         3.1164   54.0927   18.9170 H         1 UNK         0.0000 
     51 H51         5.5045   52.0079   17.2890 H         1 UNK         0.0000 
     52 H52         5.1656   54.6074   14.6208 H         1 UNK         0.0000 
     53 H53         6.6532   54.6230   12.6805 H         1 UNK         0.0000 
     54 H54         8.9400   51.4118   14.3508 H         1 UNK         0.0000 
     55 H55         7.4739   51.3803   16.3297 H         1 UNK         0.0000 
     56 H56         3.3262   54.5482   30.4818 H         1 UNK         0.0000 
     57 H57         4.2504   53.0572   30.5379 H         1 UNK         0.0000 
     58 H58         1.8726   52.8693   31.4933 H         1 UNK         0.0000 
     59 H59         2.2611   51.6963   30.2678 H         1 UNK         0.0000 
     60 H60         0.7386   54.2911   29.7431 H         1 UNK         0.0000 
     61 H61        -0.0040   52.7238   29.9252 H         1 UNK         0.0000 
     62 H62         1.0213   51.8687   27.8984 H         1 UNK         0.0000 
     63 H63         0.3220   53.4150   27.5277 H         1 UNK         0.0000 
     64 H64         5.7852   52.9567   19.6153 H         1 UNK         0.0000 
@<TRIPOS>BOND
     1    1    2 1    
     2    1   35 1    
     3    1   36 1    
     4    1   37 1    
     5    2    3 1    
     6    3    4 2    
     7    3    5 1    
     8    5    9 2    
     9    5    6 1    
    10    6   34 1    
    11    6    7 2    
    12    7    8 1    
    13    7   31 1    
    14    8    9 1    
    15    9   10 am   BACKBONE|DICT|INTERRES
    16   10   11 am   BACKBONE|DICT|INTERRES
    17   10   38 1    
    18   11   12 2    
    19   11   13 1    
    20   13   14 1    
    21   13   39 1    
    22   13   40 1    
    23   14   19 1    
    24   14   15 1    
    25   15   16 1    
    26   15   41 1    
    27   15   42 1    
    28   16   17 1    
    29   16   43 1    
    30   16   44 1    
    31   17   18 1    
    32   17   20 1    
    33   17   64 1    
    34   18   19 1    
    35   18   45 1    
    36   18   46 1    
    37   19   47 1    
    38   19   48 1    
    39   20   21 1    
    40   20   49 1    
    41   20   50 1    
    42   21   22 2    
    43   21   23 am   BACKBONE|DICT|INTERRES
    44   23   24 1    
    45   23   51 1    
    46   24   29 ar   
    47   24   25 ar   
    48   25   26 ar   
    49   25   52 1    
    50   26   27 ar   
    51   26   53 1    
    52   27   28 ar   
    53   27   30 1    
    54   28   29 ar   
    55   28   54 1    
    56   29   55 1    
    57   31   32 1    
    58   31   56 1    
    59   31   57 1    
    60   32   33 1    
    61   32   58 1    
    62   32   59 1    
    63   33   34 1    
    64   33   60 1    
    65   33   61 1    
    66   34   62 1    
    67   34   63 1    
@<TRIPOS>SUBSTRUCTURE
     1 UNK         1 GROUP             0       ****    0 ROOT    
