ZINC20495152_6029
                    3D
 Schrodinger Suite 2024-2.
 52 56  0  0  1  0            999 V2000
   -2.6180   47.1734   23.0712 C   0  0  0  0  0  0
   -2.7060   46.8726   24.4307 C   0  0  0  0  0  0
   -1.7758   47.4069   25.3209 C   0  0  0  0  0  0
   -0.7656   48.2524   24.8647 C   0  0  0  0  0  0
   -0.6865   48.5729   23.5011 C   0  0  0  0  0  0
   -1.6127   48.0218   22.6076 C   0  0  0  0  0  0
    0.3691   49.5425   22.9966 C   0  0  0  0  0  0
    0.0836   50.8224   23.5524 O   0  0  0  0  0  0
    0.9391   51.8738   23.3161 C   0  0  0  0  0  0
    0.5927   53.0987   23.8845 C   0  0  0  0  0  0
    1.3695   54.2289   23.6427 C   0  0  0  0  0  0
    2.4926   54.1477   22.8306 C   0  0  0  0  0  0
    2.9124   52.9150   22.3322 C   0  0  0  0  0  0
    2.1172   51.7860   22.5594 C   0  0  0  0  0  0
    4.2388   52.7836   21.5866 C   0  0  2  0  0  0
    4.6524   51.8432   21.9530 H   0  0  0  0  0  0
    5.3165   53.8659   21.8444 C   0  0  0  0  0  0
    5.9626   54.5101   22.9550 C   0  0  0  0  0  0
    6.8750   55.3707   22.5108 N   0  0  0  0  0  0
    6.8051   55.3830   21.1861 N   0  0  0  0  0  0
    7.4035   55.9443   20.5996 H   0  0  0  0  0  0
    5.8728   54.5116   20.7498 C   0  0  0  0  0  0
    5.6217   54.3368   19.4164 O   0  0  0  0  0  0
    4.7029   53.3700   19.1539 C   0  0  0  0  0  0
    4.0404   52.6142   20.0653 C   0  0  0  0  0  0
    3.0982   51.6366   19.6148 C   0  0  0  0  0  0
    2.3025   50.8592   19.2956 N   0  0  0  0  0  0
    4.5812   53.2961   17.7943 N   0  0  0  0  0  0
    5.8062   54.3881   24.4654 C   0  0  0  0  0  0
    4.7100   53.7793   25.0833 C   0  0  0  0  0  0
    4.5499   53.7682   26.4650 C   0  0  0  0  0  0
    5.5220   54.3418   27.2675 C   0  0  0  0  0  0
    6.6579   54.8972   26.6960 C   0  0  0  0  0  0
    6.7769   54.9464   25.3083 C   0  0  0  0  0  0
    5.3057   54.3817   28.9756 Cl  0  0  0  0  0  0
    0.3626   48.8998   26.0071 Cl  0  0  0  0  0  0
   -3.3412   46.7671   22.3796 H   0  0  0  0  0  0
   -3.4999   46.2401   24.7981 H   0  0  0  0  0  0
   -1.8415   47.1897   26.3794 H   0  0  0  0  0  0
   -1.5682   48.2630   21.5553 H   0  0  0  0  0  0
    0.3621   49.5951   21.9059 H   0  0  0  0  0  0
    1.3545   49.1830   23.3026 H   0  0  0  0  0  0
   -0.2951   53.1750   24.4942 H   0  0  0  0  0  0
    1.1054   55.1815   24.0715 H   0  0  0  0  0  0
    3.0866   55.0331   22.6529 H   0  0  0  0  0  0
    2.4322   50.8393   22.1481 H   0  0  0  0  0  0
    4.1581   52.4645   17.4017 H   0  0  0  0  0  0
    5.2634   53.7576   17.2148 H   0  0  0  0  0  0
    3.9529   53.2835   24.5217 H   0  0  0  0  0  0
    3.6803   53.3026   26.9048 H   0  0  0  0  0  0
    7.4248   55.3029   27.3379 H   0  0  0  0  0  0
    7.6418   55.4260   24.8805 H   0  0  0  0  0  0
  1  6  2  0  0  0
  1  2  1  0  0  0
  1 37  1  0  0  0
  2  3  2  0  0  0
  2 38  1  0  0  0
  3  4  1  0  0  0
  3 39  1  0  0  0
  4  5  2  0  0  0
  4 36  1  0  0  0
  5  6  1  0  0  0
  5  7  1  0  0  0
  6 40  1  0  0  0
  7  8  1  0  0  0
  7 41  1  0  0  0
  7 42  1  0  0  0
  8  9  1  0  0  0
  9 14  2  0  0  0
  9 10  1  0  0  0
 10 11  2  0  0  0
 10 43  1  0  0  0
 11 12  1  0  0  0
 11 44  1  0  0  0
 12 13  2  0  0  0
 12 45  1  0  0  0
 13 14  1  0  0  0
 13 15  1  0  0  0
 14 46  1  0  0  0
 15 16  1  0  0  0
 15 25  1  0  0  0
 15 17  1  0  0  0
 17 22  2  0  0  0
 17 18  1  0  0  0
 18 19  2  0  0  0
 18 29  1  0  0  0
 19 20  1  0  0  0
 20 21  1  0  0  0
 20 22  1  0  0  0
 22 23  1  0  0  0
 23 24  1  0  0  0
 24 25  2  0  0  0
 24 28  1  0  0  0
 25 26  1  0  0  0
 26 27  3  0  0  0
 28 47  1  0  0  0
 28 48  1  0  0  0
 29 34  2  0  0  0
 29 30  1  0  0  0
 30 31  2  0  0  0
 30 49  1  0  0  0
 31 32  1  0  0  0
 31 50  1  0  0  0
 32 33  2  0  0  0
 32 35  1  0  0  0
 33 34  1  0  0  0
 33 51  1  0  0  0
 34 52  1  0  0  0
M  END
> <i_i_glide_confnum>
91

> <i_i_glide_lignum>
6030

> <i_i_glide_posenum>
336

> <i_i_glide_rotatable_bonds>
6

> <i_m_Source_File_Index>
3008

> <b_m_subgroup_collapsed>
0

> <r_i_docking_score>
-4.7815

> <r_i_glide_ecoul>
1.51751

> <r_i_glide_eff_state_penalty>
0

> <r_i_glide_einternal>
9.65217

> <r_i_glide_emodel>
-49.8408

> <r_i_glide_energy>
-41.0612

> <r_i_glide_erotb>
0.424756

> <r_i_glide_esite>
-0.138896

> <r_i_glide_evdw>
-42.5788

> <r_i_glide_gscore>
-4.7815

> <r_i_glide_hbond>
0

> <r_i_glide_ligand_efficiency>
-0.140632

> <r_i_glide_ligand_efficiency_ln>
-1.05637

> <r_i_glide_ligand_efficiency_sa>
-0.455595

> <r_i_glide_lipo>
-2.98512

> <r_i_glide_metal>
0

> <r_i_glide_rewards>
-0.180932

> <s_i_glide_gridfile>
wee1_glide-grid

> <s_m_Source_File>
wee1_decoys_glide_SP.sdf

> <s_m_Source_Path>
/Users/zhangxujun/Desktop

> <s_m_entry_id>
3283

> <s_m_entry_name>
wee1_decoys_glide_SP.3008

> <s_m_subgroup_title>
wee1_decoys_glide_SP

> <s_m_subgroupid>
wee1_decoys_glide_SP


$$$$
