ZINC00495370_1894
                    3D
 Schrodinger Suite 2024-2.
 33 35  0  0  1  0            999 V2000
    1.1169   53.2277   28.0359 C   0  0  0  0  0  0
    2.3019   53.5763   27.1535 C   0  0  0  0  0  0
    3.5508   53.8305   27.7131 C   0  0  0  0  0  0
    4.6579   54.0982   26.8915 C   0  0  0  0  0  0
    4.4429   54.0949   25.4829 C   0  0  0  0  0  0
    5.3238   54.2661   24.3534 C   0  0  0  0  0  0
    4.6906   54.1090   23.1140 C   0  0  0  0  0  0
    2.9589   53.8489   23.2917 S   0  0  0  0  0  0
    3.1088   53.8289   25.0351 C   0  0  0  0  0  0
    2.0616   53.5769   25.8210 N   0  0  0  0  0  0
    5.2611   54.3062   21.7888 C   0  0  0  0  0  0
    6.3322   54.8962   21.6329 O   0  0  0  0  0  0
    4.5709   53.7569   20.7730 N   0  0  0  0  0  0
    5.0245   53.7017   19.3872 C   0  0  0  0  0  0
    4.0831   54.1804   18.3042 C   0  0  0  0  0  0
    5.3172   54.9867   18.6415 C   0  0  0  0  0  0
    6.6688   54.5116   24.4761 N   0  0  0  0  0  0
    6.0147   54.3350   27.5572 C   0  0  0  0  0  0
    5.9032   54.4940   28.8778 F   0  0  0  0  0  0
    6.8115   53.2963   27.3299 F   0  0  0  0  0  0
    6.6091   55.4169   27.0680 F   0  0  0  0  0  0
    1.2779   53.5579   29.0632 H   0  0  0  0  0  0
    0.2007   53.6965   27.6823 H   0  0  0  0  0  0
    0.9591   52.1476   28.0408 H   0  0  0  0  0  0
    3.6612   53.7898   28.7885 H   0  0  0  0  0  0
    3.7637   53.1957   20.9984 H   0  0  0  0  0  0
    5.6368   52.8236   19.1665 H   0  0  0  0  0  0
    3.1037   54.5656   18.5941 H   0  0  0  0  0  0
    4.0459   53.6148   17.3714 H   0  0  0  0  0  0
    6.1594   54.9915   17.9467 H   0  0  0  0  0  0
    5.2058   55.9372   19.1640 H   0  0  0  0  0  0
    7.1267   54.5237   25.3755 H   0  0  0  0  0  0
    7.2508   54.6678   23.6593 H   0  0  0  0  0  0
  1  2  1  0  0  0
  1 22  1  0  0  0
  1 23  1  0  0  0
  1 24  1  0  0  0
  2 10  2  0  0  0
  2  3  1  0  0  0
  3  4  2  0  0  0
  3 25  1  0  0  0
  4  5  1  0  0  0
  4 18  1  0  0  0
  5  9  2  0  0  0
  5  6  1  0  0  0
  6  7  2  0  0  0
  6 17  1  0  0  0
  7  8  1  0  0  0
  7 11  1  0  0  0
  8  9  1  0  0  0
  9 10  1  0  0  0
 11 12  2  0  0  0
 11 13  1  0  0  0
 13 14  1  0  0  0
 13 26  1  0  0  0
 14 16  1  0  0  0
 14 15  1  0  0  0
 14 27  1  0  0  0
 15 16  1  0  0  0
 15 28  1  0  0  0
 15 29  1  0  0  0
 16 30  1  0  0  0
 16 31  1  0  0  0
 17 32  1  0  0  0
 17 33  1  0  0  0
 18 19  1  0  0  0
 18 20  1  0  0  0
 18 21  1  0  0  0
M  END
> <i_i_glide_confnum>
4

> <i_i_glide_lignum>
1895

> <i_i_glide_posenum>
119

> <i_i_glide_rotatable_bonds>
4

> <i_m_Source_File_Index>
4419

> <b_m_subgroup_collapsed>
0

> <r_i_docking_score>
-5.43413

> <r_i_glide_ecoul>
-1.24267

> <r_i_glide_eff_state_penalty>
0

> <r_i_glide_einternal>
2.87673

> <r_i_glide_emodel>
-44.5418

> <r_i_glide_energy>
-32.9617

> <r_i_glide_erotb>
0.561261

> <r_i_glide_esite>
-0.000368001

> <r_i_glide_evdw>
-31.719

> <r_i_glide_gscore>
-5.43413

> <r_i_glide_hbond>
0

> <r_i_glide_ligand_efficiency>
-0.258768

> <r_i_glide_ligand_efficiency_ln>
-1.34358

> <r_i_glide_ligand_efficiency_sa>
-0.713922

> <r_i_glide_lipo>
-2.35415

> <r_i_glide_metal>
0

> <r_i_glide_rewards>
-1.86852

> <s_i_glide_gridfile>
wee1_glide-grid

> <s_m_Source_File>
wee1_decoys_glide_SP.sdf

> <s_m_Source_Path>
/Users/zhangxujun/Desktop

> <s_m_entry_id>
4694

> <s_m_entry_name>
wee1_decoys_glide_SP.4419

> <s_m_subgroup_title>
wee1_decoys_glide_SP

> <s_m_subgroupid>
wee1_decoys_glide_SP


$$$$
