@<TRIPOS>MOLECULE
ZINC12549417_5030
70   73    1
SMALL
USER_CHARGES


@<TRIPOS>ATOM
      1 C1          8.2789   55.8733   21.1523 C.3       1 UNK         0.0000 
      2 C2          6.9669   55.2965   20.6621 C.ar      1 UNK         0.0000 
      3 C3          6.7967   55.0236   19.3035 C.ar      1 UNK         0.0000 
      4 C4          5.6213   54.4213   18.8486 C.ar      1 UNK         0.0000 
      5 C5          4.6034   54.1239   19.7552 C.ar      1 UNK         0.0000 
      6 C6          4.7518   54.3997   21.1168 C.ar      1 UNK         0.0000 
      7 C7          5.9495   54.9808   21.5700 C.ar      1 UNK         0.0000 
      8 N8          3.6401   54.0965   21.9255 N.am      1 UNK         0.0000 
      9 C9          3.5051   54.0954   23.2689 C.2       1 UNK         0.0000 
     10 O10         4.4162   54.3341   24.0667 O.2       1 UNK         0.0000 
     11 C11         2.0754   53.8190   23.7803 C.3       1 UNK         0.0000 
     12 N12         2.0727   53.1309   25.0533 N.pl3     1 UNK         0.0000 
     13 C13         0.9516   52.5106   25.6426 C.ar      1 UNK         0.0000 
     14 C14        -0.0369   51.9538   24.8178 C.ar      1 UNK         0.0000 
     15 C15        -1.2011   51.3986   25.3511 C.ar      1 UNK         0.0000 
     16 C16        -1.3868   51.3954   26.7295 C.ar      1 UNK         0.0000 
     17 C17        -0.3984   51.9043   27.5616 C.ar      1 UNK         0.0000 
     18 C18         0.7830   52.4694   27.0547 C.ar      1 UNK         0.0000 
     19 N19         1.6982   52.9588   27.9945 N.pl3     1 UNK         0.0000 
     20 C20         1.2562   53.7650   29.1469 C.3       1 UNK         0.0000 
     21 C21         1.8904   53.2424   30.4464 C.3       1 UNK         0.0000 
     22 C22         3.4256   53.3121   30.3729 C.3       1 UNK         0.0000 
     23 C23         3.9186   52.6329   29.0856 C.3       1 UNK         0.0000 
     24 C24         3.1555   53.1101   27.8247 C.3       1 UNK         0.0000 
     25 S25        -2.4540   50.6934   24.2766 S.o2      1 UNK         0.0000 
     26 O26        -3.6997   51.4221   24.5500 O.2       1 UNK         0.0000 
     27 O27        -1.8897   50.6789   22.9184 O.2       1 UNK         0.0000 
     28 N28        -2.6586   49.0054   24.7931 N.pl3     1 UNK         0.0000 
     29 C29        -1.4278   48.1759   24.7618 C.3       1 UNK         0.0000 
     30 C30        -1.7842   46.6778   24.8446 C.3       1 UNK         0.0000 
     31 C31        -2.6955   46.3651   26.0493 C.3       1 UNK         0.0000 
     32 C32        -3.9275   47.2932   26.0810 C.3       1 UNK         0.0000 
     33 C33        -3.5245   48.7754   25.9820 C.3       1 UNK         0.0000 
     34 C34         5.4417   54.0962   17.3787 C.3       1 UNK         0.0000 
     35 H35         8.1393   56.4901   22.0397 H         1 UNK         0.0000 
     36 H36         8.7471   56.4925   20.3863 H         1 UNK         0.0000 
     37 H37         8.9721   55.0696   21.3957 H         1 UNK         0.0000 
     38 H38         7.5875   55.2520   18.6052 H         1 UNK         0.0000 
     39 H39         3.6922   53.6699   19.3890 H         1 UNK         0.0000 
     40 H40         6.1059   55.2024   22.6144 H         1 UNK         0.0000 
     41 H41         2.8072   53.8809   21.3983 H         1 UNK         0.0000 
     42 H42         1.6103   54.7987   23.8760 H         1 UNK         0.0000 
     43 H43         1.5174   53.3085   22.9928 H         1 UNK         0.0000 
     44 H44         2.7266   53.4977   25.7309 H         1 UNK         0.0000 
     45 H45         0.0864   51.9477   23.7470 H         1 UNK         0.0000 
     46 H46        -2.2788   50.9826   27.1680 H         1 UNK         0.0000 
     47 H47        -0.5608   51.8340   28.6279 H         1 UNK         0.0000 
     48 H48         1.5489   54.8033   28.9705 H         1 UNK         0.0000 
     49 H49         0.1711   53.7854   29.2520 H         1 UNK         0.0000 
     50 H50         1.5041   53.8248   31.2801 H         1 UNK         0.0000 
     51 H51         1.5584   52.2196   30.6296 H         1 UNK         0.0000 
     52 H52         3.8792   52.8430   31.2466 H         1 UNK         0.0000 
     53 H53         3.7522   54.3528   30.3694 H         1 UNK         0.0000 
     54 H54         3.8376   51.5495   29.1700 H         1 UNK         0.0000 
     55 H55         4.9846   52.8296   28.9553 H         1 UNK         0.0000 
     56 H56         3.5073   52.4976   26.9990 H         1 UNK         0.0000 
     57 H57         3.3985   54.1488   27.5834 H         1 UNK         0.0000 
     58 H58        -0.8567   48.3834   23.8552 H         1 UNK         0.0000 
     59 H59        -0.8451   48.3887   25.6633 H         1 UNK         0.0000 
     60 H60        -2.2698   46.3708   23.9181 H         1 UNK         0.0000 
     61 H61        -0.8665   46.0968   24.9136 H         1 UNK         0.0000 
     62 H62        -2.1257   46.4971   26.9692 H         1 UNK         0.0000 
     63 H63        -3.0102   45.3224   26.0451 H         1 UNK         0.0000 
     64 H64        -4.4945   47.1263   26.9993 H         1 UNK         0.0000 
     65 H65        -4.6031   47.0427   25.2605 H         1 UNK         0.0000 
     66 H66        -2.9389   48.9651   26.8812 H         1 UNK         0.0000 
     67 H67        -4.4136   49.4067   25.9313 H         1 UNK         0.0000 
     68 H68         4.4230   54.3214   17.0609 H         1 UNK         0.0000 
     69 H69         6.1073   54.6852   16.7478 H         1 UNK         0.0000 
     70 H70         5.6231   53.0352   17.1987 H         1 UNK         0.0000 
@<TRIPOS>BOND
     1    1    2 1    
     2    1   35 1    
     3    1   36 1    
     4    1   37 1    
     5    2    7 ar   
     6    2    3 ar   
     7    3    4 ar   
     8    3   38 1    
     9    4    5 ar   
    10    4   34 1    
    11    5    6 ar   
    12    5   39 1    
    13    6    7 ar   
    14    6    8 1    
    15    7   40 1    
    16    8    9 am   BACKBONE|DICT|INTERRES
    17    8   41 1    
    18    9   10 2    
    19    9   11 1    
    20   11   12 1    
    21   11   42 1    
    22   11   43 1    
    23   12   13 1    
    24   12   44 1    
    25   13   18 ar   
    26   13   14 ar   
    27   14   15 ar   
    28   14   45 1    
    29   15   16 ar   
    30   15   25 1    
    31   16   17 ar   
    32   16   46 1    
    33   17   18 ar   
    34   17   47 1    
    35   18   19 1    
    36   19   24 1    
    37   19   20 1    
    38   20   21 1    
    39   20   48 1    
    40   20   49 1    
    41   21   22 1    
    42   21   50 1    
    43   21   51 1    
    44   22   23 1    
    45   22   52 1    
    46   22   53 1    
    47   23   24 1    
    48   23   54 1    
    49   23   55 1    
    50   24   56 1    
    51   24   57 1    
    52   25   26 2    
    53   25   27 2    
    54   25   28 1    
    55   28   33 1    
    56   28   29 1    
    57   29   30 1    
    58   29   58 1    
    59   29   59 1    
    60   30   31 1    
    61   30   60 1    
    62   30   61 1    
    63   31   32 1    
    64   31   62 1    
    65   31   63 1    
    66   32   33 1    
    67   32   64 1    
    68   32   65 1    
    69   33   66 1    
    70   33   67 1    
    71   34   68 1    
    72   34   69 1    
    73   34   70 1    
@<TRIPOS>SUBSTRUCTURE
     1 UNK         1 GROUP             0       ****    0 ROOT    
