ZINC15868402_934
                    3D
 Schrodinger Suite 2024-2.
 59 62  0  0  1  0            999 V2000
   -0.0103   52.2625   29.8666 C   0  0  0  0  0  0
    1.2313   52.7978   29.1386 C   0  0  0  0  0  0
    2.5216   52.1066   29.6241 C   0  0  0  0  0  0
    1.0639   52.6885   27.6914 N   0  0  0  0  0  0
    1.8212   53.2964   26.7594 C   0  0  0  0  0  0
    2.7009   54.1129   27.0388 O   0  0  0  0  0  0
    1.5322   52.9224   25.3222 C   0  0  0  0  0  0
    1.9024   53.7854   24.2830 C   0  0  0  0  0  0
    1.7170   53.4146   22.9542 C   0  0  0  0  0  0
    1.2012   52.1543   22.6295 C   0  0  0  0  0  0
    0.7842   51.3136   23.6692 C   0  0  0  0  0  0
    0.9382   51.6962   24.9962 C   0  0  0  0  0  0
    1.0572   51.7345   21.1547 C   0  0  2  0  0  0
    0.1348   52.2474   20.8776 H   0  0  0  0  0  0
    0.7728   50.3113   20.9346 N   0  0  0  0  0  0
    0.8577   49.7351   19.6515 C   0  0  0  0  0  0
    0.5993   48.3675   19.5369 C   0  0  0  0  0  0
    0.7199   47.7251   18.3044 C   0  0  0  0  0  0
    1.1044   48.4512   17.1780 C   0  0  0  0  0  0
    1.3709   49.8151   17.2827 C   0  0  0  0  0  0
    1.2417   50.4647   18.5112 C   0  0  0  0  0  0
    1.5394   52.2246   18.5825 S   0  0  0  0  0  0
    0.2357   52.8956   18.4812 O   0  0  0  0  0  0
    2.6034   52.5865   17.6409 O   0  0  0  0  0  0
    2.1092   52.2846   20.2556 N   0  0  0  0  0  0
    3.5153   51.8406   20.4947 C   0  0  0  0  0  0
    4.4513   53.0172   20.7628 C   0  0  0  0  0  0
    4.9137   53.8260   19.7202 C   0  0  0  0  0  0
    5.7735   54.8934   19.9866 C   0  0  0  0  0  0
    6.1868   55.1546   21.2930 C   0  0  0  0  0  0
    5.7354   54.3526   22.3500 C   0  0  0  0  0  0
    4.8629   53.2966   22.0690 C   0  0  0  0  0  0
    6.1770   54.5964   23.7913 C   0  0  0  0  0  0
    6.7047   55.8041   23.9657 F   0  0  0  0  0  0
    5.1478   54.4747   24.6292 F   0  0  0  0  0  0
    7.1042   53.6967   24.1183 F   0  0  0  0  0  0
    0.1196   52.2962   30.9480 H   0  0  0  0  0  0
   -0.2102   51.2216   29.6123 H   0  0  0  0  0  0
   -0.8952   52.8554   29.6387 H   0  0  0  0  0  0
    1.3030   53.8616   29.3841 H   0  0  0  0  0  0
    2.5754   52.0988   30.7139 H   0  0  0  0  0  0
    2.5650   51.0689   29.2819 H   0  0  0  0  0  0
    3.4094   52.6310   29.2658 H   0  0  0  0  0  0
    0.3001   52.1086   27.3783 H   0  0  0  0  0  0
    2.3545   54.7450   24.4911 H   0  0  0  0  0  0
    2.0140   54.0971   22.1709 H   0  0  0  0  0  0
    0.3548   50.3450   23.4704 H   0  0  0  0  0  0
    0.6413   50.9951   25.7625 H   0  0  0  0  0  0
    0.4442   49.7876   21.7332 H   0  0  0  0  0  0
    0.3118   47.7927   20.4058 H   0  0  0  0  0  0
    0.5269   46.6660   18.2232 H   0  0  0  0  0  0
    1.2189   47.9569   16.2254 H   0  0  0  0  0  0
    1.6894   50.3658   16.4077 H   0  0  0  0  0  0
    3.5332   51.1569   21.3450 H   0  0  0  0  0  0
    3.8793   51.2693   19.6375 H   0  0  0  0  0  0
    4.6194   53.6242   18.7020 H   0  0  0  0  0  0
    6.1273   55.5118   19.1742 H   0  0  0  0  0  0
    6.8638   55.9749   21.4797 H   0  0  0  0  0  0
    4.4956   52.6926   22.8813 H   0  0  0  0  0  0
  1  2  1  0  0  0
  1 37  1  0  0  0
  1 38  1  0  0  0
  1 39  1  0  0  0
  2  3  1  0  0  0
  2  4  1  0  0  0
  2 40  1  0  0  0
  3 41  1  0  0  0
  3 42  1  0  0  0
  3 43  1  0  0  0
  4  5  1  0  0  0
  4 44  1  0  0  0
  5  6  2  0  0  0
  5  7  1  0  0  0
  7 12  2  0  0  0
  7  8  1  0  0  0
  8  9  2  0  0  0
  8 45  1  0  0  0
  9 10  1  0  0  0
  9 46  1  0  0  0
 10 11  2  0  0  0
 10 13  1  0  0  0
 11 12  1  0  0  0
 11 47  1  0  0  0
 12 48  1  0  0  0
 13 14  1  0  0  0
 13 25  1  0  0  0
 13 15  1  0  0  0
 15 16  1  0  0  0
 15 49  1  0  0  0
 16 21  2  0  0  0
 16 17  1  0  0  0
 17 18  2  0  0  0
 17 50  1  0  0  0
 18 19  1  0  0  0
 18 51  1  0  0  0
 19 20  2  0  0  0
 19 52  1  0  0  0
 20 21  1  0  0  0
 20 53  1  0  0  0
 21 22  1  0  0  0
 22 23  2  0  0  0
 22 24  2  0  0  0
 22 25  1  0  0  0
 25 26  1  0  0  0
 26 27  1  0  0  0
 26 54  1  0  0  0
 26 55  1  0  0  0
 27 32  2  0  0  0
 27 28  1  0  0  0
 28 29  2  0  0  0
 28 56  1  0  0  0
 29 30  1  0  0  0
 29 57  1  0  0  0
 30 31  2  0  0  0
 30 58  1  0  0  0
 31 32  1  0  0  0
 31 33  1  0  0  0
 32 59  1  0  0  0
 33 34  1  0  0  0
 33 35  1  0  0  0
 33 36  1  0  0  0
M  END
> <i_i_glide_confnum>
37

> <i_i_glide_lignum>
935

> <i_i_glide_posenum>
395

> <i_i_glide_rotatable_bonds>
7

> <i_m_Source_File_Index>
1442

> <b_m_subgroup_collapsed>
0

> <r_i_docking_score>
-4.84767

> <r_i_glide_ecoul>
-0.5813

> <r_i_glide_eff_state_penalty>
0

> <r_i_glide_einternal>
2.52619

> <r_i_glide_emodel>
-51.4063

> <r_i_glide_energy>
-40.4342

> <r_i_glide_erotb>
0.403088

> <r_i_glide_esite>
-0.109785

> <r_i_glide_evdw>
-39.8529

> <r_i_glide_gscore>
-4.84767

> <r_i_glide_hbond>
0

> <r_i_glide_ligand_efficiency>
-0.138505

> <r_i_glide_ligand_efficiency_ln>
-1.06417

> <r_i_glide_ligand_efficiency_sa>
-0.453059

> <r_i_glide_lipo>
-2.13314

> <r_i_glide_metal>
0

> <r_i_glide_rewards>
-0.927993

> <s_i_glide_gridfile>
wee1_glide-grid

> <s_m_Source_File>
wee1_decoys_glide_SP.sdf

> <s_m_Source_Path>
/Users/zhangxujun/Desktop

> <s_m_entry_id>
1717

> <s_m_entry_name>
wee1_decoys_glide_SP.1442

> <s_m_subgroup_title>
wee1_decoys_glide_SP

> <s_m_subgroupid>
wee1_decoys_glide_SP


$$$$
