@<TRIPOS>MOLECULE
ZINC36296272_1625
33   34    1
SMALL
USER_CHARGES


@<TRIPOS>ATOM
      1 C1          4.7076   53.4057   21.4053 C.3       1 UNK         0.0000 
      2 C2          4.5432   53.8259   22.8769 C.ar      1 UNK         0.0000 
      3 C3          5.6172   54.4269   23.5622 C.ar      1 UNK         0.0000 
      4 C4          5.4806   54.8110   24.8930 C.ar      1 UNK         0.0000 
      5 C5          4.2726   54.6157   25.5483 C.ar      1 UNK         0.0000 
      6 C6          3.2027   54.0341   24.8749 C.ar      1 UNK         0.0000 
      7 C7          3.3086   53.6107   23.5395 C.ar      1 UNK         0.0000 
      8 N8          2.3031   52.9523   22.8638 N.2       1 UNK         0.0000 
      9 S9          0.7873   52.8592   23.2453 S.o2      1 UNK         0.0000 
     10 O10         0.3061   53.9633   24.0815 O.2       1 UNK         0.0000 
     11 O11        -0.0824   52.4965   22.1205 O.2       1 UNK         0.0000 
     12 C12         0.7310   51.4069   24.3192 C.ar      1 UNK         0.0000 
     13 C13         0.5665   51.6407   25.6930 C.ar      1 UNK         0.0000 
     14 C14         0.2984   50.5964   26.5687 C.ar      1 UNK         0.0000 
     15 C15         0.1691   49.3041   26.0811 C.ar      1 UNK         0.0000 
     16 C16         0.3054   49.0532   24.7225 C.ar      1 UNK         0.0000 
     17 C17         0.6040   50.0849   23.8234 C.ar      1 UNK         0.0000 
     18 N18         0.7882   49.7217   22.4003 N.pl3     1 UNK         0.0000 
     19 O19         0.0071   48.9055   21.9126 O.co2     1 UNK         0.0000 
     20 O20         1.7465   50.1821   21.7895 O.co2     1 UNK         0.0000 
     21 N21         6.8449   54.6643   22.9461 N.pl3     1 UNK         0.0000 
     22 H22         4.7214   52.3162   21.3223 H         1 UNK         0.0000 
     23 H23         3.8584   53.7646   20.8189 H         1 UNK         0.0000 
     24 H24         5.5955   53.8082   20.9179 H         1 UNK         0.0000 
     25 H25         6.3036   55.2651   25.4229 H         1 UNK         0.0000 
     26 H26         4.1623   54.9144   26.5783 H         1 UNK         0.0000 
     27 H27         2.2956   53.8927   25.4325 H         1 UNK         0.0000 
     28 H28         0.6030   52.6401   26.0972 H         1 UNK         0.0000 
     29 H29         0.1658   50.7854   27.6236 H         1 UNK         0.0000 
     30 H30        -0.0526   48.4931   26.7574 H         1 UNK         0.0000 
     31 H31         0.2086   48.0362   24.3739 H         1 UNK         0.0000 
     32 H32         6.9308   54.4917   21.9569 H         1 UNK         0.0000 
     33 H33         7.6274   55.0278   23.4780 H         1 UNK         0.0000 
@<TRIPOS>BOND
     1    1    2 1    
     2    1   22 1    
     3    1   23 1    
     4    1   24 1    
     5    2    7 ar   
     6    2    3 ar   
     7    3    4 ar   
     8    3   21 1    
     9    4    5 ar   
    10    4   25 1    
    11    5    6 ar   
    12    5   26 1    
    13    6    7 ar   
    14    6   27 1    
    15    7    8 1    
    16    8    9 1    
    17    9   10 2    
    18    9   11 2    
    19    9   12 1    
    20   12   17 ar   
    21   12   13 ar   
    22   13   14 ar   
    23   13   28 1    
    24   14   15 ar   
    25   14   29 1    
    26   15   16 ar   
    27   15   30 1    
    28   16   17 ar   
    29   16   31 1    
    30   17   18 1    
    31   18   19 2    
    32   18   20 1    
    33   21   32 1    
    34   21   33 1    
@<TRIPOS>SUBSTRUCTURE
     1 UNK         1 GROUP             0       ****    0 ROOT    
