@<TRIPOS>MOLECULE
ZINC03011415_4072
53   56    1
SMALL
USER_CHARGES


@<TRIPOS>ATOM
      1 C1          7.9983   55.6229   19.9117 C.3       1 UNK         0.0000 
      2 O2          7.8101   55.5570   21.3212 O.3       1 UNK         0.0000 
      3 C3          6.6203   55.0630   21.8253 C.ar      1 UNK         0.0000 
      4 C4          5.5072   54.7247   21.0398 C.ar      1 UNK         0.0000 
      5 C5          4.3421   54.2423   21.6344 C.ar      1 UNK         0.0000 
      6 C6          4.2645   54.0966   23.0273 C.ar      1 UNK         0.0000 
      7 C7          5.3683   54.4352   23.8295 C.ar      1 UNK         0.0000 
      8 C8          6.5420   54.8968   23.2083 C.ar      1 UNK         0.0000 
      9 O9          5.2257   54.3082   25.2028 O.3       1 UNK         0.0000 
     10 C10         6.3247   54.5824   26.0580 C.3       1 UNK         0.0000 
     11 N11         3.1084   53.6378   23.6918 N.am      1 UNK         0.0000 
     12 C12         2.1199   52.8445   23.2250 C.2       1 UNK         0.0000 
     13 O13         1.9856   52.4931   22.0522 O.2       1 UNK         0.0000 
     14 C14         1.2189   52.3578   24.2472 C.ar      1 UNK         0.0000 
     15 C15         0.3159   51.2998   24.0608 C.ar      1 UNK         0.0000 
     16 C16        -0.3876   51.1746   25.2380 C.ar      1 UNK         0.0000 
     17 N17         0.1516   52.1198   26.0952 N.pl3     1 UNK         0.0000 
     18 N18         1.0959   52.8507   25.4686 N.2       1 UNK         0.0000 
     19 C19        -0.3740   52.4773   27.4262 C.3       1 UNK         0.0000 
     20 H20        -1.0635   53.3030   27.2811 H         1 UNK         0.0000 
     21 C21        -1.2205   51.2810   27.9124 C.3       1 UNK         0.0000 
     22 C22        -2.1698   50.6979   26.8340 C.3       1 UNK         0.0000 
     23 H23        -2.5968   49.7831   27.2458 H         1 UNK         0.0000 
     24 N24        -1.3801   50.3097   25.6575 N.pl3     1 UNK         0.0000 
     25 C25        -3.3647   51.6196   26.5404 C.ar      1 UNK         0.0000 
     26 C26        -4.5698   51.3895   27.2115 C.ar      1 UNK         0.0000 
     27 C27        -5.6800   52.1999   26.9703 C.ar      1 UNK         0.0000 
     28 C28        -5.5789   53.2617   26.0727 C.ar      1 UNK         0.0000 
     29 C29        -4.3811   53.5080   25.4041 C.ar      1 UNK         0.0000 
     30 C30        -3.2773   52.6900   25.6387 C.ar      1 UNK         0.0000 
     31 Cl31       -6.9460   54.2761   25.7845 Cl        1 UNK         0.0000 
     32 C32         0.6851   52.9422   28.4603 C.3       1 UNK         0.0000 
     33 F33         0.1204   53.1750   29.6458 F         1 UNK         0.0000 
     34 F34         1.6303   52.0210   28.6493 F         1 UNK         0.0000 
     35 F35         1.2873   54.0750   28.0927 F         1 UNK         0.0000 
     36 H36         9.0077   55.9785   19.7044 H         1 UNK         0.0000 
     37 H37         7.2978   56.3171   19.4420 H         1 UNK         0.0000 
     38 H38         7.8973   54.6380   19.4468 H         1 UNK         0.0000 
     39 H39         5.5236   54.8320   19.9626 H         1 UNK         0.0000 
     40 H40         3.5039   54.0127   20.9920 H         1 UNK         0.0000 
     41 H41         7.4140   55.1588   23.7888 H         1 UNK         0.0000 
     42 H42         6.0132   54.4722   27.0991 H         1 UNK         0.0000 
     43 H43         7.1357   53.8757   25.8836 H         1 UNK         0.0000 
     44 H44         6.6954   55.6028   25.9346 H         1 UNK         0.0000 
     45 H45         3.1193   53.7958   24.6882 H         1 UNK         0.0000 
     46 H46         0.1853   50.7116   23.1622 H         1 UNK         0.0000 
     47 H47        -0.5436   50.4979   28.2532 H         1 UNK         0.0000 
     48 H48        -1.7843   51.5463   28.8099 H         1 UNK         0.0000 
     49 H49        -1.9073   49.7683   24.9903 H         1 UNK         0.0000 
     50 H50        -4.6574   50.5762   27.9196 H         1 UNK         0.0000 
     51 H51        -6.6113   52.0114   27.4840 H         1 UNK         0.0000 
     52 H52        -4.3075   54.3318   24.7062 H         1 UNK         0.0000 
     53 H53        -2.3572   52.8983   25.1119 H         1 UNK         0.0000 
@<TRIPOS>BOND
     1    1    2 1    
     2    1   36 1    
     3    1   37 1    
     4    1   38 1    
     5    2    3 1    
     6    3    8 ar   
     7    3    4 ar   
     8    4    5 ar   
     9    4   39 1    
    10    5    6 ar   
    11    5   40 1    
    12    6    7 ar   
    13    6   11 1    
    14    7    8 ar   
    15    7    9 1    
    16    8   41 1    
    17    9   10 1    
    18   10   42 1    
    19   10   43 1    
    20   10   44 1    
    21   11   12 am   BACKBONE|DICT|INTERRES
    22   11   45 1    
    23   12   13 2    
    24   12   14 1    
    25   14   18 ar   
    26   14   15 ar   
    27   15   16 ar   
    28   15   46 1    
    29   16   24 1    
    30   16   17 ar   
    31   17   18 ar   
    32   17   19 1    
    33   19   20 1    
    34   19   21 1    
    35   19   32 1    
    36   21   22 1    
    37   21   47 1    
    38   21   48 1    
    39   22   23 1    
    40   22   24 1    
    41   22   25 1    
    42   24   49 1    
    43   25   30 ar   
    44   25   26 ar   
    45   26   27 ar   
    46   26   50 1    
    47   27   28 ar   
    48   27   51 1    
    49   28   29 ar   
    50   28   31 1    
    51   29   30 ar   
    52   29   52 1    
    53   30   53 1    
    54   32   33 1    
    55   32   34 1    
    56   32   35 1    
@<TRIPOS>SUBSTRUCTURE
     1 UNK         1 GROUP             0       ****    0 ROOT    
