ZINC64303998_6212
                    3D
 Schrodinger Suite 2024-2.
 55 56  0  0  1  0            999 V2000
    4.5334   54.7435   29.5854 C   0  0  0  0  0  0
    4.5175   53.4585   28.7421 C   0  0  0  0  0  0
    3.2574   52.6325   29.0374 C   0  0  0  0  0  0
    4.6189   53.7234   27.3105 N   0  0  0  0  0  0
    5.6868   54.2328   26.6670 C   0  0  0  0  0  0
    6.7211   54.5660   27.2476 O   0  0  0  0  0  0
    5.5732   54.3489   25.1623 C   0  0  0  0  0  0
    4.3671   54.0967   24.4879 C   0  0  0  0  0  0
    4.3104   54.1266   23.0984 C   0  0  0  0  0  0
    5.4375   54.4954   22.3666 C   0  0  0  0  0  0
    6.6411   54.7631   23.0251 C   0  0  0  0  0  0
    6.7051   54.6842   24.4102 C   0  0  0  0  0  0
    5.2897   54.5669   20.9750 N   0  0  0  0  0  0
    5.9753   55.3550   20.1053 C   0  0  0  0  0  0
    6.8051   56.2036   20.4502 O   0  0  0  0  0  0
    5.6176   55.1748   18.6610 C   0  0  0  0  0  0
    5.9285   56.0180   17.8170 O   0  0  0  0  0  0
    4.9598   54.0364   18.3395 N   0  0  0  0  0  0
    4.4640   53.6840   17.0136 C   0  0  2  0  0  0
    3.2440   52.7414   17.0692 C   0  0  0  0  0  0
    2.7368   52.3054   15.6863 C   0  0  0  0  0  0
    3.9215   51.6930   14.9073 N   0  3  2  0  0  0
    5.0284   52.7457   14.6765 C   0  0  0  0  0  0
    5.5638   53.1969   16.0445 C   0  0  0  0  0  0
    3.4708   51.0917   13.5484 C   0  0  0  0  0  0
    2.6748   49.7832   13.7306 C   0  0  0  0  0  0
    2.6579   49.0667   12.6061 F   0  0  0  0  0  0
    1.4123   49.9795   14.1098 F   0  0  0  0  0  0
    4.3600   54.4964   30.6306 H   0  0  0  0  0  0
    5.4937   55.2566   29.5396 H   0  0  0  0  0  0
    3.7425   55.4313   29.2860 H   0  0  0  0  0  0
    5.3806   52.8502   29.0243 H   0  0  0  0  0  0
    3.1881   52.3904   30.0992 H   0  0  0  0  0  0
    2.3503   53.1852   28.7864 H   0  0  0  0  0  0
    3.2508   51.6951   28.4848 H   0  0  0  0  0  0
    3.8472   53.3965   26.7528 H   0  0  0  0  0  0
    3.4636   53.8390   25.0203 H   0  0  0  0  0  0
    3.3740   53.9122   22.6037 H   0  0  0  0  0  0
    7.5387   55.0200   22.4806 H   0  0  0  0  0  0
    7.6541   54.8794   24.8871 H   0  0  0  0  0  0
    4.5203   54.0346   20.6064 H   0  0  0  0  0  0
    4.7378   53.3668   19.0574 H   0  0  0  0  0  0
    4.0718   54.6020   16.5640 H   0  0  0  0  0  0
    2.4286   53.2169   17.6164 H   0  0  0  0  0  0
    3.5056   51.8367   17.6220 H   0  0  0  0  0  0
    2.3280   53.1271   15.0958 H   0  0  0  0  0  0
    1.9848   51.5284   15.8171 H   0  0  0  0  0  0
    5.8302   52.2659   14.1113 H   0  0  0  0  0  0
    4.6004   53.5642   14.0928 H   0  0  0  0  0  0
    6.0858   52.3515   16.4983 H   0  0  0  0  0  0
    6.3070   53.9822   15.8954 H   0  0  0  0  0  0
    4.3931   50.8721   13.0078 H   0  0  0  0  0  0
    2.9184   51.8603   13.0067 H   0  0  0  0  0  0
    3.1378   49.1413   14.4815 H   0  0  0  0  0  0
    4.3027   50.9315   15.4674 H   0  0  0  0  0  0
  1  2  1  0  0  0
  1 29  1  0  0  0
  1 30  1  0  0  0
  1 31  1  0  0  0
  2  3  1  0  0  0
  2  4  1  0  0  0
  2 32  1  0  0  0
  3 33  1  0  0  0
  3 34  1  0  0  0
  3 35  1  0  0  0
  4  5  1  0  0  0
  4 36  1  0  0  0
  5  6  2  0  0  0
  5  7  1  0  0  0
  7 12  2  0  0  0
  7  8  1  0  0  0
  8  9  2  0  0  0
  8 37  1  0  0  0
  9 10  1  0  0  0
  9 38  1  0  0  0
 10 11  2  0  0  0
 10 13  1  0  0  0
 11 12  1  0  0  0
 11 39  1  0  0  0
 12 40  1  0  0  0
 13 14  1  0  0  0
 13 41  1  0  0  0
 14 15  2  0  0  0
 14 16  1  0  0  0
 16 17  2  0  0  0
 16 18  1  0  0  0
 18 19  1  0  0  0
 18 42  1  0  0  0
 19 24  1  0  0  0
 19 20  1  0  0  0
 19 43  1  0  0  0
 20 21  1  0  0  0
 20 44  1  0  0  0
 20 45  1  0  0  0
 21 22  1  0  0  0
 21 46  1  0  0  0
 21 47  1  0  0  0
 22 23  1  0  0  0
 22 25  1  0  0  0
 22 55  1  0  0  0
 23 24  1  0  0  0
 23 48  1  0  0  0
 23 49  1  0  0  0
 24 50  1  0  0  0
 24 51  1  0  0  0
 25 26  1  0  0  0
 25 52  1  0  0  0
 25 53  1  0  0  0
 26 27  1  0  0  0
 26 28  1  0  0  0
 26 54  1  0  0  0
M  CHG  1  22   1
M  END
> <i_i_glide_confnum>
13

> <i_i_glide_lignum>
6213

> <i_i_glide_posenum>
107

> <i_i_glide_rotatable_bonds>
10

> <i_m_Source_File_Index>
654

> <b_m_subgroup_collapsed>
0

> <r_i_docking_score>
-5.31606

> <r_i_glide_ecoul>
-5.32089

> <r_i_glide_eff_state_penalty>
0

> <r_i_glide_einternal>
7.59547

> <r_i_glide_emodel>
-54.9922

> <r_i_glide_energy>
-41.4057

> <r_i_glide_erotb>
0.991391

> <r_i_glide_esite>
-0.115354

> <r_i_glide_evdw>
-36.0848

> <r_i_glide_gscore>
-5.31606

> <r_i_glide_hbond>
-0.212728

> <r_i_glide_ligand_efficiency>
-0.189859

> <r_i_glide_ligand_efficiency_ln>
-1.2271

> <r_i_glide_ligand_efficiency_sa>
-0.576525

> <r_i_glide_lipo>
-2.01348

> <r_i_glide_metal>
0

> <r_i_glide_rewards>
-1.36352

> <s_i_glide_gridfile>
wee1_glide-grid

> <s_m_Source_File>
wee1_decoys_glide_SP.sdf

> <s_m_Source_Path>
/Users/zhangxujun/Desktop

> <s_m_entry_id>
929

> <s_m_entry_name>
wee1_decoys_glide_SP.654

> <s_m_subgroup_title>
wee1_decoys_glide_SP

> <s_m_subgroupid>
wee1_decoys_glide_SP


$$$$
