@<TRIPOS>MOLECULE
ZINC02450070_4928
54   57    1
SMALL
USER_CHARGES


@<TRIPOS>ATOM
      1 C1         -1.7692   51.6120   25.4152 C.3       1 UNK         0.0000 
      2 C2         -0.4800   52.0808   24.7653 C.ar      1 UNK         0.0000 
      3 C3         -0.4689   52.4805   23.4304 C.ar      1 UNK         0.0000 
      4 C4          0.7227   52.8959   22.8403 C.ar      1 UNK         0.0000 
      5 C5          1.9227   52.9265   23.5665 C.ar      1 UNK         0.0000 
      6 C6          1.8891   52.5002   24.8971 C.ar      1 UNK         0.0000 
      7 C7          0.7037   52.0858   25.4977 C.ar      1 UNK         0.0000 
      8 C8          3.1902   53.3833   22.8688 C.ar      1 UNK         0.0000 
      9 N9          3.2981   53.2659   21.5685 N.2       1 UNK         0.0000 
     10 N10         4.5159   53.7824   21.1870 N.2       1 UNK         0.0000 
     11 C11         5.1282   54.2122   22.2598 C.ar      1 UNK         0.0000 
     12 N12         4.3553   53.9686   23.3909 N.pl3     1 UNK         0.0000 
     13 C13         4.6900   54.2799   24.7394 C.ar      1 UNK         0.0000 
     14 C14         5.9846   54.0719   25.2384 C.ar      1 UNK         0.0000 
     15 C15         6.2494   54.2336   26.5976 C.ar      1 UNK         0.0000 
     16 C16         5.2205   54.6140   27.4545 C.ar      1 UNK         0.0000 
     17 C17         3.9509   54.8830   26.9586 C.ar      1 UNK         0.0000 
     18 C18         3.7021   54.7504   25.6004 C.ar      1 UNK         0.0000 
     19 Cl19        5.5042   54.7795   29.1447 Cl        1 UNK         0.0000 
     20 S20         6.7003   55.0477   22.2165 S.3       1 UNK         0.0000 
     21 C21         7.0273   55.0415   20.4223 C.3       1 UNK         0.0000 
     22 C22         6.3788   56.1971   19.6713 C.2       1 UNK         0.0000 
     23 O23         6.7041   57.3532   19.9422 O.2       1 UNK         0.0000 
     24 N24         5.4614   55.8367   18.7489 N.am      1 UNK         0.0000 
     25 C25         4.8395   56.6363   17.7822 C.ar      1 UNK         0.0000 
     26 C26         5.4162   57.8105   17.2857 C.ar      1 UNK         0.0000 
     27 C27         4.7580   58.5418   16.3089 C.ar      1 UNK         0.0000 
     28 C28         3.5239   58.1129   15.8211 C.ar      1 UNK         0.0000 
     29 C29         2.9560   56.9301   16.2963 C.ar      1 UNK         0.0000 
     30 C30         3.6184   56.1874   17.2720 C.ar      1 UNK         0.0000 
     31 S31         2.6451   59.0857   14.6008 S.o2      1 UNK         0.0000 
     32 O32         2.4091   58.2128   13.4471 O.2       1 UNK         0.0000 
     33 O33         1.5199   59.7318   15.2810 O.2       1 UNK         0.0000 
     34 N34         3.7323   60.3489   14.0812 N.pl3     1 UNK         0.0000 
     35 H35        -2.4827   51.2518   24.6729 H         1 UNK         0.0000 
     36 H36        -1.5770   50.7779   26.0929 H         1 UNK         0.0000 
     37 H37        -2.2254   52.4193   25.9887 H         1 UNK         0.0000 
     38 H38        -1.3785   52.4699   22.8485 H         1 UNK         0.0000 
     39 H39         0.7067   53.2052   21.8048 H         1 UNK         0.0000 
     40 H40         2.7890   52.4715   25.4858 H         1 UNK         0.0000 
     41 H41         0.7099   51.7596   26.5280 H         1 UNK         0.0000 
     42 H42         6.7747   53.7026   24.6017 H         1 UNK         0.0000 
     43 H43         7.2337   54.0271   26.9909 H         1 UNK         0.0000 
     44 H44         3.1586   55.1888   27.6261 H         1 UNK         0.0000 
     45 H45         2.7049   54.9112   25.2279 H         1 UNK         0.0000 
     46 H46         6.7096   54.0977   19.9789 H         1 UNK         0.0000 
     47 H47         8.1051   55.1146   20.2733 H         1 UNK         0.0000 
     48 H48         5.1273   54.8853   18.7909 H         1 UNK         0.0000 
     49 H49         6.3681   58.1734   17.6427 H         1 UNK         0.0000 
     50 H50         5.2086   59.4615   15.9637 H         1 UNK         0.0000 
     51 H51         2.0011   56.5936   15.9181 H         1 UNK         0.0000 
     52 H52         3.1679   55.2760   17.6402 H         1 UNK         0.0000 
     53 H53         3.3618   60.8485   13.2720 H         1 UNK         0.0000 
     54 H54         3.8996   61.0253   14.8417 H         1 UNK         0.0000 
@<TRIPOS>BOND
     1    1    2 1    
     2    1   35 1    
     3    1   36 1    
     4    1   37 1    
     5    2    7 ar   
     6    2    3 ar   
     7    3    4 ar   
     8    3   38 1    
     9    4    5 ar   
    10    4   39 1    
    11    5    6 ar   
    12    5    8 1    
    13    6    7 ar   
    14    6   40 1    
    15    7   41 1    
    16    8   12 ar   
    17    8    9 ar   
    18    9   10 ar   
    19   10   11 ar   
    20   11   12 ar   
    21   11   20 1    
    22   12   13 1    
    23   13   18 ar   
    24   13   14 ar   
    25   14   15 ar   
    26   14   42 1    
    27   15   16 ar   
    28   15   43 1    
    29   16   17 ar   
    30   16   19 1    
    31   17   18 ar   
    32   17   44 1    
    33   18   45 1    
    34   20   21 1    
    35   21   22 1    
    36   21   46 1    
    37   21   47 1    
    38   22   23 2    
    39   22   24 am   BACKBONE|DICT|INTERRES
    40   24   25 1    
    41   24   48 1    
    42   25   30 ar   
    43   25   26 ar   
    44   26   27 ar   
    45   26   49 1    
    46   27   28 ar   
    47   27   50 1    
    48   28   29 ar   
    49   28   31 1    
    50   29   30 ar   
    51   29   51 1    
    52   30   52 1    
    53   31   32 2    
    54   31   33 2    
    55   31   34 1    
    56   34   53 1    
    57   34   54 1    
@<TRIPOS>SUBSTRUCTURE
     1 UNK         1 GROUP             0       ****    0 ROOT    
