@<TRIPOS>MOLECULE
ZINC08897905_3355
61   64    1
SMALL
USER_CHARGES


@<TRIPOS>ATOM
      1 C1          5.7318   54.1339   28.6577 C.3       1 UNK         0.0000 
      2 C2          5.3429   53.8516   27.1970 C.3       1 UNK         0.0000 
      3 H3          5.4961   52.7829   27.0299 H         1 UNK         0.0000 
      4 C4          3.8735   54.2305   26.9485 C.3       1 UNK         0.0000 
      5 C5          3.3657   53.8000   25.5587 C.3       1 UNK         0.0000 
      6 C6          4.4163   54.0975   24.4773 C.2       1 UNK         0.0000 
      7 C7          5.7214   54.4949   24.8142 C.2       1 UNK         0.0000 
      8 S8          6.6756   54.8515   23.4228 S.3       1 UNK         0.0000 
      9 C9          5.3560   54.4448   22.3612 C.2       1 UNK         0.0000 
     10 C10         4.2317   53.9688   23.0726 C.2       1 UNK         0.0000 
     11 C11         2.9815   53.5150   22.4791 C.2       1 UNK         0.0000 
     12 O12         1.8952   53.8352   22.9664 O.2       1 UNK         0.0000 
     13 N13         3.1520   52.6960   21.4138 N.am      1 UNK         0.0000 
     14 C14         2.2014   52.0586   20.7047 C.2       1 UNK         0.0000 
     15 O15         0.9799   52.1033   20.8907 O.2       1 UNK         0.0000 
     16 O16         2.8742   51.3442   19.7482 O.3       1 UNK         0.0000 
     17 C17         2.0719   50.5932   18.8411 C.3       1 UNK         0.0000 
     18 N18         5.4928   54.5537   20.9796 N.am      1 UNK         0.0000 
     19 C19         6.1635   55.5118   20.3061 C.2       1 UNK         0.0000 
     20 O20         6.7043   56.4912   20.8341 O.2       1 UNK         0.0000 
     21 C21         6.1489   55.4073   18.7629 C.3       1 UNK         0.0000 
     22 H22         6.8970   56.1171   18.4069 H         1 UNK         0.0000 
     23 C23         4.7377   55.6757   18.1833 C.3       1 UNK         0.0000 
     24 C24         4.4565   54.5340   17.2210 C.3       1 UNK         0.0000 
     25 C25         5.2365   53.3561   17.7910 C.3       1 UNK         0.0000 
     26 N26         6.4633   54.0144   18.3014 N.pl3     1 UNK         0.0000 
     27 S27         7.9934   53.7343   17.4539 S.o2      1 UNK         0.0000 
     28 O28         9.0378   54.4887   18.1577 O.2       1 UNK         0.0000 
     29 O29         8.1307   52.2924   17.2296 O.2       1 UNK         0.0000 
     30 C30         7.7642   54.4990   15.8546 C.ar      1 UNK         0.0000 
     31 C31         8.0619   55.8525   15.6812 C.ar      1 UNK         0.0000 
     32 C32         7.8296   56.4561   14.4487 C.ar      1 UNK         0.0000 
     33 C33         7.3078   55.7062   13.3973 C.ar      1 UNK         0.0000 
     34 C34         7.0195   54.3534   13.5653 C.ar      1 UNK         0.0000 
     35 C35         7.2471   53.7457   14.7960 C.ar      1 UNK         0.0000 
     36 F36         7.0740   56.2986   12.2036 F         1 UNK         0.0000 
     37 C37         6.2589   54.6439   26.2341 C.3       1 UNK         0.0000 
     38 H38         5.6029   55.1888   28.9068 H         1 UNK         0.0000 
     39 H39         5.1021   53.5571   29.3339 H         1 UNK         0.0000 
     40 H40         6.7673   53.8692   28.8786 H         1 UNK         0.0000 
     41 H41         3.2383   53.7678   27.7049 H         1 UNK         0.0000 
     42 H42         3.7317   55.2966   27.1022 H         1 UNK         0.0000 
     43 H43         2.4395   54.3391   25.3586 H         1 UNK         0.0000 
     44 H44         3.1072   52.7415   25.5574 H         1 UNK         0.0000 
     45 H45         4.0962   52.4843   21.1407 H         1 UNK         0.0000 
     46 H46         2.7058   50.0934   18.1083 H         1 UNK         0.0000 
     47 H47         1.3849   51.2391   18.2927 H         1 UNK         0.0000 
     48 H48         1.4941   49.8280   19.3621 H         1 UNK         0.0000 
     49 H49         4.8542   54.0249   20.4101 H         1 UNK         0.0000 
     50 H50         3.9519   55.6973   18.9390 H         1 UNK         0.0000 
     51 H51         4.6991   56.6347   17.6647 H         1 UNK         0.0000 
     52 H52         3.3930   54.3157   17.1266 H         1 UNK         0.0000 
     53 H53         4.8266   54.7748   16.2219 H         1 UNK         0.0000 
     54 H54         4.6974   52.9121   18.6276 H         1 UNK         0.0000 
     55 H55         5.4340   52.4977   17.1440 H         1 UNK         0.0000 
     56 H56         8.4604   56.4376   16.4990 H         1 UNK         0.0000 
     57 H57         8.0472   57.5048   14.3076 H         1 UNK         0.0000 
     58 H58         6.6130   53.7817   12.7430 H         1 UNK         0.0000 
     59 H59         7.0118   52.6978   14.9306 H         1 UNK         0.0000 
     60 H60         7.2817   54.2724   26.3037 H         1 UNK         0.0000 
     61 H61         6.2783   55.6980   26.5096 H         1 UNK         0.0000 
@<TRIPOS>BOND
     1    1    2 1    
     2    1   38 1    
     3    1   39 1    
     4    1   40 1    
     5    2    3 1    
     6    2   37 1    
     7    2    4 1    
     8    4    5 1    
     9    4   41 1    
    10    4   42 1    
    11    5    6 1    
    12    5   43 1    
    13    5   44 1    
    14    6   10 1    
    15    6    7 2    
    16    7    8 1    
    17    7   37 1    
    18    8    9 1    
    19    9   10 2    
    20    9   18 am   BACKBONE|DICT|INTERRES
    21   10   11 1    
    22   11   12 2    
    23   11   13 am   BACKBONE|DICT|INTERRES
    24   13   14 am   BACKBONE|DICT|INTERRES
    25   13   45 1    
    26   14   15 2    
    27   14   16 1    
    28   16   17 1    
    29   17   46 1    
    30   17   47 1    
    31   17   48 1    
    32   18   19 am   BACKBONE|DICT|INTERRES
    33   18   49 1    
    34   19   20 2    
    35   19   21 1    
    36   21   22 1    
    37   21   26 1    
    38   21   23 1    
    39   23   24 1    
    40   23   50 1    
    41   23   51 1    
    42   24   25 1    
    43   24   52 1    
    44   24   53 1    
    45   25   26 1    
    46   25   54 1    
    47   25   55 1    
    48   26   27 1    
    49   27   28 2    
    50   27   29 2    
    51   27   30 1    
    52   30   35 ar   
    53   30   31 ar   
    54   31   32 ar   
    55   31   56 1    
    56   32   33 ar   
    57   32   57 1    
    58   33   34 ar   
    59   33   36 1    
    60   34   35 ar   
    61   34   58 1    
    62   35   59 1    
    63   37   60 1    
    64   37   61 1    
@<TRIPOS>SUBSTRUCTURE
     1 UNK         1 GROUP             0       ****    0 ROOT    
