ZINC08991889_1478
                    3D
 Schrodinger Suite 2024-2.
 34 37  0  0  1  0            999 V2000
    5.5961   54.4379   27.3216 C   0  0  0  0  0  0
    5.1124   54.4967   28.6351 C   0  0  0  0  0  0
    3.7431   54.3642   28.8259 C   0  0  0  0  0  0
    2.8886   54.1736   27.7786 C   0  0  0  0  0  0
    3.3395   54.0967   26.4650 C   0  0  0  0  0  0
    4.7249   54.2443   26.2311 C   0  0  0  0  0  0
    5.3336   54.1890   24.9626 N   0  0  0  0  0  0
    4.7754   54.0968   23.7360 C   0  0  0  0  0  0
    3.5657   54.0973   23.5115 O   0  0  0  0  0  0
    5.7826   54.0059   22.5824 C   0  0  0  0  0  0
    5.1044   53.3933   20.9955 S   0  0  0  0  0  0
    5.5593   54.5520   19.7345 C   0  0  0  0  0  0
    5.5279   54.0820   18.4165 C   0  0  0  0  0  0
    5.8403   55.0011   17.3787 C   0  0  0  0  0  0
    5.7501   54.4134   16.1451 N   0  0  0  0  0  0
    5.4266   53.1721   16.4075 C   0  0  0  0  0  0
    5.2836   52.8968   17.7478 N   0  0  0  0  0  0
    5.1045   51.9413   18.0825 H   0  0  0  0  0  0
    6.1839   56.2705   17.6270 N   0  0  0  0  0  0
    6.2229   56.6262   18.9405 C   0  0  0  0  0  0
    5.9266   55.8308   20.0035 N   0  0  0  0  0  0
    6.7044   58.2461   19.2817 Cl  0  0  0  0  0  0
    1.6201   54.0517   28.2509 O   0  0  0  0  0  0
    1.6884   54.3870   29.6119 C   0  0  0  0  0  0
    3.0404   54.3617   29.9891 O   0  0  0  0  0  0
    6.6593   54.5452   27.1629 H   0  0  0  0  0  0
    5.7920   54.6555   29.4586 H   0  0  0  0  0  0
    2.6296   53.9236   25.6724 H   0  0  0  0  0  0
    6.3403   54.2151   24.9862 H   0  0  0  0  0  0
    6.2312   54.9885   22.4451 H   0  0  0  0  0  0
    6.5861   53.3316   22.8808 H   0  0  0  0  0  0
    5.2929   52.3764   15.6873 H   0  0  0  0  0  0
    1.2941   55.3963   29.7528 H   0  0  0  0  0  0
    1.1058   53.6809   30.2072 H   0  0  0  0  0  0
  1  6  2  0  0  0
  1  2  1  0  0  0
  1 26  1  0  0  0
  2  3  2  0  0  0
  2 27  1  0  0  0
  3 25  1  0  0  0
  3  4  1  0  0  0
  4  5  2  0  0  0
  4 23  1  0  0  0
  5  6  1  0  0  0
  5 28  1  0  0  0
  6  7  1  0  0  0
  7  8  1  0  0  0
  7 29  1  0  0  0
  8  9  2  0  0  0
  8 10  1  0  0  0
 10 11  1  0  0  0
 10 30  1  0  0  0
 10 31  1  0  0  0
 11 12  1  0  0  0
 12 21  2  0  0  0
 12 13  1  0  0  0
 13 17  1  0  0  0
 13 14  2  0  0  0
 14 15  1  0  0  0
 14 19  1  0  0  0
 15 16  2  0  0  0
 16 17  1  0  0  0
 16 32  1  0  0  0
 17 18  1  0  0  0
 19 20  2  0  0  0
 20 21  1  0  0  0
 20 22  1  0  0  0
 23 24  1  0  0  0
 24 25  1  0  0  0
 24 33  1  0  0  0
 24 34  1  0  0  0
M  END
> <i_i_glide_confnum>
5

> <i_i_glide_lignum>
1479

> <i_i_glide_posenum>
326

> <i_i_glide_rotatable_bonds>
5

> <i_m_Source_File_Index>
5730

> <b_m_subgroup_collapsed>
0

> <r_i_docking_score>
-6.16064

> <r_i_glide_ecoul>
-6.6638

> <r_i_glide_eff_state_penalty>
0

> <r_i_glide_einternal>
6.15443

> <r_i_glide_emodel>
-53.9175

> <r_i_glide_energy>
-38.3405

> <r_i_glide_erotb>
0.43565

> <r_i_glide_esite>
-0.146266

> <r_i_glide_evdw>
-31.6767

> <r_i_glide_gscore>
-6.16064

> <r_i_glide_hbond>
-0.456

> <r_i_glide_ligand_efficiency>
-0.256693

> <r_i_glide_ligand_efficiency_ln>
-1.47452

> <r_i_glide_ligand_efficiency_sa>
-0.740432

> <r_i_glide_lipo>
-1.7695

> <r_i_glide_metal>
0

> <r_i_glide_rewards>
-1.64112

> <s_i_glide_gridfile>
wee1_glide-grid

> <s_m_Source_File>
wee1_decoys_glide_SP.sdf

> <s_m_Source_Path>
/Users/zhangxujun/Desktop

> <s_m_entry_id>
6005

> <s_m_entry_name>
wee1_decoys_glide_SP.5730

> <s_m_subgroup_title>
wee1_decoys_glide_SP

> <s_m_subgroupid>
wee1_decoys_glide_SP


$$$$
