@<TRIPOS>MOLECULE
ZINC42962418_1594
46   47    1
SMALL
USER_CHARGES


@<TRIPOS>ATOM
      1 C1          3.9700   54.2412   28.7606 C.3       1 UNK         0.0000 
      2 C2          4.5333   54.2855   27.3509 C.ar      1 UNK         0.0000 
      3 C3          5.8985   54.4965   27.1488 C.ar      1 UNK         0.0000 
      4 C4          6.4043   54.5443   25.8527 C.ar      1 UNK         0.0000 
      5 C5          5.5534   54.3822   24.7601 C.ar      1 UNK         0.0000 
      6 C6          4.1922   54.1402   24.9640 C.ar      1 UNK         0.0000 
      7 C7          3.6840   54.0964   26.2595 C.ar      1 UNK         0.0000 
      8 S8          6.2528   54.4959   23.1325 S.3       1 UNK         0.0000 
      9 C9          4.9327   54.4953   21.8639 C.3       1 UNK         0.0000 
     10 C10         4.6134   53.1350   21.2330 C.2       1 UNK         0.0000 
     11 O11         5.1043   52.0963   21.6816 O.2       1 UNK         0.0000 
     12 N12         3.7771   53.1821   20.1749 N.am      1 UNK         0.0000 
     13 N13         3.5046   52.0114   19.4738 N.am      1 UNK         0.0000 
     14 C14         2.3456   51.3589   19.6728 C.2       1 UNK         0.0000 
     15 O15         1.4522   51.7095   20.4499 O.2       1 UNK         0.0000 
     16 N16         2.3044   50.2426   18.9283 N.am      1 UNK         0.0000 
     17 C17         1.2873   49.1954   19.0032 C.3       1 UNK         0.0000 
     18 C18         1.9056   47.7915   19.2103 C.3       1 UNK         0.0000 
     19 C19         0.8661   46.6533   19.1857 C.3       1 UNK         0.0000 
     20 C20         0.0022   46.7030   17.9140 C.3       1 UNK         0.0000 
     21 C21        -0.7160   48.0609   17.8231 C.3       1 UNK         0.0000 
     22 C22         0.2877   49.2332   17.8185 C.3       1 UNK         0.0000 
     23 O23        -0.9159   45.6315   17.8755 O.3       1 UNK         0.0000 
     24 H24         3.1263   53.5528   28.8208 H         1 UNK         0.0000 
     25 H25         3.6349   55.2320   29.0680 H         1 UNK         0.0000 
     26 H26         4.7121   53.8840   29.4737 H         1 UNK         0.0000 
     27 H27         6.5645   54.6327   27.9902 H         1 UNK         0.0000 
     28 H28         7.4589   54.7094   25.6923 H         1 UNK         0.0000 
     29 H29         3.5184   53.9796   24.1383 H         1 UNK         0.0000 
     30 H30         2.6316   53.9114   26.4129 H         1 UNK         0.0000 
     31 H31         4.0109   54.9045   22.2693 H         1 UNK         0.0000 
     32 H32         5.2560   55.1712   21.0725 H         1 UNK         0.0000 
     33 H33         3.4184   54.0193   19.7345 H         1 UNK         0.0000 
     34 H34         4.2059   51.7590   18.7877 H         1 UNK         0.0000 
     35 H35         3.0456   50.0887   18.2523 H         1 UNK         0.0000 
     36 H36         0.6768   49.3584   19.8966 H         1 UNK         0.0000 
     37 H37         2.6304   47.6056   18.4142 H         1 UNK         0.0000 
     38 H38         2.4566   47.7647   20.1528 H         1 UNK         0.0000 
     39 H39         0.2232   46.7553   20.0628 H         1 UNK         0.0000 
     40 H40         1.3584   45.6856   19.2758 H         1 UNK         0.0000 
     41 H41         0.6652   46.6181   17.0500 H         1 UNK         0.0000 
     42 H42        -1.3804   48.1779   18.6821 H         1 UNK         0.0000 
     43 H43        -1.3532   48.0977   16.9377 H         1 UNK         0.0000 
     44 H44        -0.2595   50.1766   17.8246 H         1 UNK         0.0000 
     45 H45         0.8469   49.1942   16.8820 H         1 UNK         0.0000 
     46 H46        -0.4195   44.8108   17.8784 H         1 UNK         0.0000 
@<TRIPOS>BOND
     1    1    2 1    
     2    1   24 1    
     3    1   25 1    
     4    1   26 1    
     5    2    7 ar   
     6    2    3 ar   
     7    3    4 ar   
     8    3   27 1    
     9    4    5 ar   
    10    4   28 1    
    11    5    6 ar   
    12    5    8 1    
    13    6    7 ar   
    14    6   29 1    
    15    7   30 1    
    16    8    9 1    
    17    9   10 1    
    18    9   31 1    
    19    9   32 1    
    20   10   11 2    
    21   10   12 am   BACKBONE|DICT|INTERRES
    22   12   13 1    
    23   12   33 1    
    24   13   14 am   BACKBONE|DICT|INTERRES
    25   13   34 1    
    26   14   15 2    
    27   14   16 am   BACKBONE|DICT|INTERRES
    28   16   17 1    
    29   16   35 1    
    30   17   22 1    
    31   17   18 1    
    32   17   36 1    
    33   18   19 1    
    34   18   37 1    
    35   18   38 1    
    36   19   20 1    
    37   19   39 1    
    38   19   40 1    
    39   20   21 1    
    40   20   23 1    
    41   20   41 1    
    42   21   22 1    
    43   21   42 1    
    44   21   43 1    
    45   22   44 1    
    46   22   45 1    
    47   23   46 1    
@<TRIPOS>SUBSTRUCTURE
     1 UNK         1 GROUP             0       ****    0 ROOT    
