@<TRIPOS>MOLECULE
ZINC38651211_4343
51   54    1
SMALL
USER_CHARGES


@<TRIPOS>ATOM
      1 C1         -1.5041   51.4418   19.1575 C.3       1 UNK         0.0000 
      2 C2         -1.8816   50.7534   20.4804 C.3       1 UNK         0.0000 
      3 H3         -1.4020   49.7732   20.4908 H         1 UNK         0.0000 
      4 C4         -1.4053   51.5804   21.6912 C.2       1 UNK         0.0000 
      5 O5         -2.0957   52.4839   22.1729 O.2       1 UNK         0.0000 
      6 O6         -0.1869   51.1686   22.1325 O.3       1 UNK         0.0000 
      7 C7          0.3560   51.7114   23.2761 C.ar      1 UNK         0.0000 
      8 C8          1.5958   52.3381   23.1982 C.ar      1 UNK         0.0000 
      9 C9          2.1768   52.8963   24.3353 C.ar      1 UNK         0.0000 
     10 C10         1.5378   52.8702   25.5886 C.ar      1 UNK         0.0000 
     11 C11         0.3080   52.1796   25.6476 C.ar      1 UNK         0.0000 
     12 C12        -0.2751   51.6091   24.5189 C.ar      1 UNK         0.0000 
     13 O13        -0.3913   52.0012   26.8208 O.3       1 UNK         0.0000 
     14 C14         0.2396   52.2405   27.9914 C.2       1 UNK         0.0000 
     15 C15         1.4132   52.8937   28.1131 C.2       1 UNK         0.0000 
     16 C16         2.1010   53.5216   26.8832 C.3       1 UNK         0.0000 
     17 H17         1.7002   54.5293   26.8997 H         1 UNK         0.0000 
     18 C18         3.6332   53.7575   26.9223 C.ar      1 UNK         0.0000 
     19 C19         4.4704   53.1003   27.8376 C.ar      1 UNK         0.0000 
     20 C20         5.8499   53.2967   27.8195 C.ar      1 UNK         0.0000 
     21 C21         6.4302   54.1259   26.8738 C.ar      1 UNK         0.0000 
     22 C22         5.6221   54.7810   25.9560 C.ar      1 UNK         0.0000 
     23 C23         4.2338   54.6425   26.0110 C.ar      1 UNK         0.0000 
     24 Cl24        6.3653   55.6967   24.7098 Cl        1 UNK         0.0000 
     25 C25         1.9292   53.1281   29.4201 C.1       1 UNK         0.0000 
     26 N26         2.3587   53.2821   30.4817 N.1       1 UNK         0.0000 
     27 N27        -0.5201   51.6970   28.9921 N.pl3     1 UNK         0.0000 
     28 O28        -3.3045   50.5844   20.4718 O.3       1 UNK         0.0000 
     29 C29        -3.9198   49.7461   21.3879 C.ar      1 UNK         0.0000 
     30 C30        -3.2346   48.9477   22.3206 C.ar      1 UNK         0.0000 
     31 C31        -3.9412   48.1446   23.2119 C.ar      1 UNK         0.0000 
     32 C32        -5.3319   48.1217   23.1674 C.ar      1 UNK         0.0000 
     33 C33        -6.0228   48.8996   22.2413 C.ar      1 UNK         0.0000 
     34 C34        -5.3150   49.7073   21.3538 C.ar      1 UNK         0.0000 
     35 F35        -6.0173   47.3373   24.0299 F         1 UNK         0.0000 
     36 H36        -0.4286   51.6141   19.0845 H         1 UNK         0.0000 
     37 H37        -1.7915   50.8232   18.3066 H         1 UNK         0.0000 
     38 H38        -2.0050   52.4037   19.0451 H         1 UNK         0.0000 
     39 H39         2.1105   52.3978   22.2505 H         1 UNK         0.0000 
     40 H40         3.1386   53.3543   24.1983 H         1 UNK         0.0000 
     41 H41        -1.2191   51.0925   24.6102 H         1 UNK         0.0000 
     42 H42         4.0837   52.3769   28.5362 H         1 UNK         0.0000 
     43 H43         6.4911   52.7481   28.4818 H         1 UNK         0.0000 
     44 H44         7.5037   54.2214   26.8338 H         1 UNK         0.0000 
     45 H45         3.6270   55.1847   25.3004 H         1 UNK         0.0000 
     46 H46        -0.2757   51.8328   29.9624 H         1 UNK         0.0000 
     47 H47        -1.1405   50.9263   28.7827 H         1 UNK         0.0000 
     48 H48        -2.1575   48.9407   22.3762 H         1 UNK         0.0000 
     49 H49        -3.4140   47.5431   23.9383 H         1 UNK         0.0000 
     50 H50        -7.1015   48.8745   22.2147 H         1 UNK         0.0000 
     51 H51        -5.8508   50.3137   20.6387 H         1 UNK         0.0000 
@<TRIPOS>BOND
     1    1    2 1    
     2    1   36 1    
     3    1   37 1    
     4    1   38 1    
     5    2    3 1    
     6    2    4 1    
     7    2   28 1    
     8    4    5 2    
     9    4    6 1    
    10    6    7 1    
    11    7   12 ar   
    12    7    8 ar   
    13    8    9 ar   
    14    8   39 1    
    15    9   10 ar   
    16    9   40 1    
    17   10   16 1    
    18   10   11 ar   
    19   11   12 ar   
    20   11   13 1    
    21   12   41 1    
    22   13   14 1    
    23   14   15 2    
    24   14   27 1    
    25   15   16 1    
    26   15   25 1    
    27   16   17 1    
    28   16   18 1    
    29   18   23 ar   
    30   18   19 ar   
    31   19   20 ar   
    32   19   42 1    
    33   20   21 ar   
    34   20   43 1    
    35   21   22 ar   
    36   21   44 1    
    37   22   23 ar   
    38   22   24 1    
    39   23   45 1    
    40   25   26 3    
    41   27   46 1    
    42   27   47 1    
    43   28   29 1    
    44   29   34 ar   
    45   29   30 ar   
    46   30   31 ar   
    47   30   48 1    
    48   31   32 ar   
    49   31   49 1    
    50   32   33 ar   
    51   32   35 1    
    52   33   34 ar   
    53   33   50 1    
    54   34   51 1    
@<TRIPOS>SUBSTRUCTURE
     1 UNK         1 GROUP             0       ****    0 ROOT    
