ZINC39669150_1288
                    3D
 Schrodinger Suite 2024-2.
 72 75  0  0  1  0            999 V2000
    4.1956   52.8938   18.8374 C   0  0  0  0  0  0
    2.7303   52.8324   19.2851 C   0  0  0  0  0  0
    2.1333   51.4089   19.3485 C   0  0  0  0  0  0
    0.6840   51.3706   19.9007 C   0  0  0  0  0  0
    0.5213   51.1634   21.4434 C   0  0  1  0  0  0
    0.7684   50.1189   21.6334 H   0  0  0  0  0  0
    1.4917   52.0415   22.2727 C   0  0  0  0  0  0
   -0.9349   51.4034   21.9412 C   0  0  0  0  0  0
   -1.6991   52.0987   21.2675 O   0  0  0  0  0  0
   -1.3470   50.8715   23.1194 N   0  0  0  0  0  0
   -0.6028   49.9102   23.9354 C   0  0  0  0  0  0
   -1.1299   50.1641   25.3589 C   0  0  2  0  0  0
   -1.0994   49.2266   25.9112 H   0  0  0  0  0  0
   -2.6055   50.6438   25.1674 C   0  0  0  0  0  0
   -2.5389   51.3827   23.8115 C   0  0  0  0  0  0
   -3.2781   51.5048   26.2710 C   0  0  0  0  0  0
   -3.3152   50.7579   27.6204 C   0  0  0  0  0  0
   -4.0898   49.4281   27.4551 N   0  3  0  0  0  0
   -3.6938   48.5634   26.2323 C   0  0  0  0  0  0
   -3.5929   49.4557   24.9760 C   0  0  0  0  0  0
   -0.2156   51.1567   26.1190 C   0  0  0  0  0  0
    0.1409   52.2141   25.5977 O   0  0  0  0  0  0
    0.2839   50.7086   27.2798 N   0  0  0  0  0  0
    1.4589   51.2400   27.9699 C   0  0  0  0  0  0
    1.3583   52.6537   28.5701 C   0  0  2  0  0  0
    0.4862   53.1900   28.1924 H   0  0  0  0  0  0
    2.6333   53.4218   28.1766 C   0  0  0  0  0  0
    2.7730   53.9886   26.9044 C   0  0  0  0  0  0
    3.9927   54.5067   26.4804 C   0  0  0  0  0  0
    5.0834   54.4957   27.3412 C   0  0  0  0  0  0
    4.9425   53.9913   28.6302 C   0  0  0  0  0  0
    3.7270   53.4403   29.0566 C   0  0  0  0  0  0
    3.5358   52.8338   30.4334 C   0  0  0  0  0  0
    2.0769   53.0778   30.8753 C   0  0  0  0  0  0
    1.1729   52.4536   29.9778 O   0  0  0  0  0  0
    4.5594   53.9200   18.8341 H   0  0  0  0  0  0
    4.3194   52.4975   17.8281 H   0  0  0  0  0  0
    4.8350   52.3186   19.5097 H   0  0  0  0  0  0
    2.6713   53.3010   20.2649 H   0  0  0  0  0  0
    2.1314   53.4432   18.6073 H   0  0  0  0  0  0
    2.1374   50.9978   18.3360 H   0  0  0  0  0  0
    2.7799   50.7464   19.9265 H   0  0  0  0  0  0
    0.1809   52.2843   19.5761 H   0  0  0  0  0  0
    0.1542   50.5590   19.3982 H   0  0  0  0  0  0
    1.3911   51.8855   23.3454 H   0  0  0  0  0  0
    2.5338   51.8222   22.0390 H   0  0  0  0  0  0
    1.3181   53.1030   22.0937 H   0  0  0  0  0  0
   -0.8925   48.8936   23.6632 H   0  0  0  0  0  0
    0.4848   49.9838   23.9047 H   0  0  0  0  0  0
   -2.3223   52.4293   24.0346 H   0  0  0  0  0  0
   -3.4730   51.3746   23.2484 H   0  0  0  0  0  0
   -2.7154   52.4284   26.4092 H   0  0  0  0  0  0
   -4.2770   51.8306   25.9756 H   0  0  0  0  0  0
   -2.3258   50.4963   27.9947 H   0  0  0  0  0  0
   -3.8347   51.3162   28.4002 H   0  0  0  0  0  0
   -3.9271   48.8795   28.2917 H   0  0  0  0  0  0
   -2.7628   48.0564   26.4812 H   0  0  0  0  0  0
   -4.4687   47.8020   26.1368 H   0  0  0  0  0  0
   -4.5826   49.8088   24.6782 H   0  0  0  0  0  0
   -3.2633   48.8279   24.1459 H   0  0  0  0  0  0
   -0.1220   49.8660   27.6751 H   0  0  0  0  0  0
    1.7688   50.5011   28.7161 H   0  0  0  0  0  0
    2.2921   51.2661   27.2819 H   0  0  0  0  0  0
    1.9440   53.9723   26.2120 H   0  0  0  0  0  0
    4.0901   54.9078   25.4835 H   0  0  0  0  0  0
    6.0324   54.9003   27.0201 H   0  0  0  0  0  0
    5.8018   54.0099   29.2809 H   0  0  0  0  0  0
    4.2569   53.2487   31.1389 H   0  0  0  0  0  0
    3.7295   51.7628   30.3774 H   0  0  0  0  0  0
    1.8551   54.1465   30.8829 H   0  0  0  0  0  0
    1.9048   52.6776   31.8754 H   0  0  0  0  0  0
   -5.0789   49.6270   27.4144 H   0  0  0  0  0  0
  1  2  1  0  0  0
  1 36  1  0  0  0
  1 37  1  0  0  0
  1 38  1  0  0  0
  2  3  1  0  0  0
  2 39  1  0  0  0
  2 40  1  0  0  0
  3  4  1  0  0  0
  3 41  1  0  0  0
  3 42  1  0  0  0
  4  5  1  0  0  0
  4 43  1  0  0  0
  4 44  1  0  0  0
  5  6  1  0  0  0
  5  7  1  0  0  0
  5  8  1  0  0  0
  7 45  1  0  0  0
  7 46  1  0  0  0
  7 47  1  0  0  0
  8  9  2  0  0  0
  8 10  1  0  0  0
 10 15  1  0  0  0
 10 11  1  0  0  0
 11 12  1  0  0  0
 11 48  1  0  0  0
 11 49  1  0  0  0
 12 13  1  0  0  0
 12 14  1  0  0  0
 12 21  1  0  0  0
 14 20  1  0  0  0
 14 15  1  0  0  0
 14 16  1  0  0  0
 15 50  1  0  0  0
 15 51  1  0  0  0
 16 17  1  0  0  0
 16 52  1  0  0  0
 16 53  1  0  0  0
 17 18  1  0  0  0
 17 54  1  0  0  0
 17 55  1  0  0  0
 18 19  1  0  0  0
 18 56  1  0  0  0
 18 72  1  0  0  0
 19 20  1  0  0  0
 19 57  1  0  0  0
 19 58  1  0  0  0
 20 59  1  0  0  0
 20 60  1  0  0  0
 21 22  2  0  0  0
 21 23  1  0  0  0
 23 24  1  0  0  0
 23 61  1  0  0  0
 24 25  1  0  0  0
 24 62  1  0  0  0
 24 63  1  0  0  0
 25 26  1  0  0  0
 25 35  1  0  0  0
 25 27  1  0  0  0
 27 32  2  0  0  0
 27 28  1  0  0  0
 28 29  2  0  0  0
 28 64  1  0  0  0
 29 30  1  0  0  0
 29 65  1  0  0  0
 30 31  2  0  0  0
 30 66  1  0  0  0
 31 32  1  0  0  0
 31 67  1  0  0  0
 32 33  1  0  0  0
 33 34  1  0  0  0
 33 68  1  0  0  0
 33 69  1  0  0  0
 34 35  1  0  0  0
 34 70  1  0  0  0
 34 71  1  0  0  0
M  CHG  1  18   1
M  END
> <i_i_glide_confnum>
485

> <i_i_glide_lignum>
1289

> <i_i_glide_posenum>
223

> <i_i_glide_rotatable_bonds>
9

> <i_m_Source_File_Index>
1870

> <b_m_subgroup_collapsed>
0

> <r_i_docking_score>
-4.22786

> <r_i_glide_ecoul>
-5.02595

> <r_i_glide_eff_state_penalty>
0

> <r_i_glide_einternal>
25.8094

> <r_i_glide_emodel>
-34.9941

> <r_i_glide_energy>
-36.3268

> <r_i_glide_erotb>
0.714082

> <r_i_glide_esite>
-0.184936

> <r_i_glide_evdw>
-31.3009

> <r_i_glide_gscore>
-4.22786

> <r_i_glide_hbond>
-0.138976

> <r_i_glide_ligand_efficiency>
-0.132121

> <r_i_glide_ligand_efficiency_ln>
-0.946733

> <r_i_glide_ligand_efficiency_sa>
-0.419457

> <r_i_glide_lipo>
-1.84987

> <r_i_glide_metal>
0

> <r_i_glide_rewards>
-0.449218

> <s_i_glide_gridfile>
wee1_glide-grid

> <s_m_Source_File>
wee1_decoys_glide_SP.sdf

> <s_m_Source_Path>
/Users/zhangxujun/Desktop

> <s_m_entry_id>
2145

> <s_m_entry_name>
wee1_decoys_glide_SP.1870

> <s_m_subgroup_title>
wee1_decoys_glide_SP

> <s_m_subgroupid>
wee1_decoys_glide_SP


$$$$
