@<TRIPOS>MOLECULE
ZINC59293445_4253
54   56    1
SMALL
USER_CHARGES


@<TRIPOS>ATOM
      1 C1          2.8674   53.3469   24.2970 C.3       1 UNK         0.0000 
      2 C2          1.6205   52.6416   23.7695 C.2       1 UNK         0.0000 
      3 C3          0.6012   52.0286   24.4498 C.2       1 UNK         0.0000 
      4 C4         -0.5210   51.2806   23.6417 C.3       1 UNK         0.0000 
      5 C5         -1.9273   51.4711   24.1404 C.ar      1 UNK         0.0000 
      6 C6         -2.6693   52.6294   24.3736 C.ar      1 UNK         0.0000 
      7 C7         -3.9655   52.5228   24.8787 C.ar      1 UNK         0.0000 
      8 C8         -4.5294   51.2656   25.1118 C.ar      1 UNK         0.0000 
      9 C9         -3.7896   50.1079   24.8604 C.ar      1 UNK         0.0000 
     10 C10        -2.4826   50.2259   24.3822 C.ar      1 UNK         0.0000 
     11 N11        -1.5385   49.2293   24.1293 N.am      1 UNK         0.0000 
     12 C12        -0.3357   49.7483   23.7652 C.2       1 UNK         0.0000 
     13 O13         0.7043   49.1323   23.5309 O.2       1 UNK         0.0000 
     14 C14        -1.7713   47.7746   24.2156 C.3       1 UNK         0.0000 
     15 C15        -2.1120   47.1836   22.8332 C.2       1 UNK         0.0000 
     16 O16        -1.6051   47.6167   21.7966 O.2       1 UNK         0.0000 
     17 O17        -2.9960   46.1444   22.9074 O.3       1 UNK         0.0000 
     18 C18        -3.5445   45.4655   21.7584 C.3       1 UNK         0.0000 
     19 C19        -4.2889   46.4427   20.8134 C.3       1 UNK         0.0000 
     20 C20        -4.5705   44.4621   22.3211 C.3       1 UNK         0.0000 
     21 C21        -2.4376   44.6942   21.0011 C.3       1 UNK         0.0000 
     22 Br22       -4.9521   54.0967   25.2772 Br        1 UNK         0.0000 
     23 C23        -0.3983   51.5988   22.1356 C.2       1 UNK         0.0000 
     24 C24         0.7093   52.1836   21.6463 C.2       1 UNK         0.0000 
     25 O25         1.7168   52.6440   22.4147 O.3       1 UNK         0.0000 
     26 N26         0.9806   52.4967   20.3432 N.pl3     1 UNK         0.0000 
     27 C27        -1.4653   51.2765   21.2384 C.1       1 UNK         0.0000 
     28 N28        -2.3432   51.0817   20.5106 N.1       1 UNK         0.0000 
     29 C29         0.5788   52.0980   25.9438 C.2       1 UNK         0.0000 
     30 O30         1.2469   52.8936   26.6110 O.2       1 UNK         0.0000 
     31 O31        -0.2936   51.2357   26.5080 O.3       1 UNK         0.0000 
     32 C32        -0.5040   51.2074   27.9124 C.3       1 UNK         0.0000 
     33 H33         3.2446   52.8969   25.2138 H         1 UNK         0.0000 
     34 H34         3.6836   53.2969   23.5753 H         1 UNK         0.0000 
     35 H35         2.6501   54.3985   24.4831 H         1 UNK         0.0000 
     36 H36        -2.2435   53.6037   24.1868 H         1 UNK         0.0000 
     37 H37        -5.5335   51.1888   25.5018 H         1 UNK         0.0000 
     38 H38        -4.2291   49.1431   25.0639 H         1 UNK         0.0000 
     39 H39        -2.5242   47.5296   24.9646 H         1 UNK         0.0000 
     40 H40        -0.8503   47.2884   24.5416 H         1 UNK         0.0000 
     41 H41        -4.8227   45.9095   20.0265 H         1 UNK         0.0000 
     42 H42        -3.6140   47.1409   20.3186 H         1 UNK         0.0000 
     43 H43        -5.0210   47.0382   21.3602 H         1 UNK         0.0000 
     44 H44        -4.0960   43.6600   22.8818 H         1 UNK         0.0000 
     45 H45        -5.2844   44.9516   22.9852 H         1 UNK         0.0000 
     46 H46        -5.1450   43.9897   21.5231 H         1 UNK         0.0000 
     47 H47        -1.8623   44.0604   21.6759 H         1 UNK         0.0000 
     48 H48        -2.8588   44.0562   20.2236 H         1 UNK         0.0000 
     49 H49        -1.7294   45.3664   20.5153 H         1 UNK         0.0000 
     50 H50         0.4597   52.0725   19.5900 H         1 UNK         0.0000 
     51 H51         1.5044   53.3397   20.1270 H         1 UNK         0.0000 
     52 H52        -1.2978   50.4979   28.1454 H         1 UNK         0.0000 
     53 H53         0.3997   50.8977   28.4392 H         1 UNK         0.0000 
     54 H54        -0.8078   52.1859   28.2870 H         1 UNK         0.0000 
@<TRIPOS>BOND
     1    1    2 1    
     2    1   33 1    
     3    1   34 1    
     4    1   35 1    
     5    2   25 1    
     6    2    3 2    
     7    3    4 1    
     8    3   29 1    
     9    4   12 1    
    10    4    5 1    
    11    4   23 1    
    12    5   10 ar   
    13    5    6 ar   
    14    6    7 ar   
    15    6   36 1    
    16    7    8 ar   
    17    7   22 1    
    18    8    9 ar   
    19    8   37 1    
    20    9   10 ar   
    21    9   38 1    
    22   10   11 1    
    23   11   12 am   BACKBONE|DICT|INTERRES
    24   11   14 1    
    25   12   13 2    
    26   14   15 1    
    27   14   39 1    
    28   14   40 1    
    29   15   16 2    
    30   15   17 1    
    31   17   18 1    
    32   18   19 1    
    33   18   20 1    
    34   18   21 1    
    35   19   41 1    
    36   19   42 1    
    37   19   43 1    
    38   20   44 1    
    39   20   45 1    
    40   20   46 1    
    41   21   47 1    
    42   21   48 1    
    43   21   49 1    
    44   23   24 2    
    45   23   27 1    
    46   24   25 1    
    47   24   26 1    
    48   26   50 1    
    49   26   51 1    
    50   27   28 3    
    51   29   30 2    
    52   29   31 1    
    53   31   32 1    
    54   32   52 1    
    55   32   53 1    
    56   32   54 1    
@<TRIPOS>SUBSTRUCTURE
     1 UNK         1 GROUP             0       ****    0 ROOT    
