ZINC66720122_1455
                    3D
 Schrodinger Suite 2024-2.
 55 57  0  0  1  0            999 V2000
    6.8404   54.0899   27.5674 C   0  0  0  0  0  0
    5.9879   54.2606   26.3178 C   0  0  0  0  0  0
    6.6460   54.5212   25.1091 C   0  0  0  0  0  0
    5.9454   54.6611   23.9117 C   0  0  0  0  0  0
    4.5527   54.4965   23.9319 C   0  0  0  0  0  0
    3.8854   54.2453   25.1276 C   0  0  0  0  0  0
    4.5796   54.1395   26.3417 C   0  0  0  0  0  0
    3.8003   53.9423   27.6291 C   0  0  0  0  0  0
    4.1375   54.4972   28.6749 O   0  0  0  0  0  0
    2.7182   53.1444   27.5461 N   0  0  0  0  0  0
    1.8020   52.8298   28.6421 C   0  0  0  0  0  0
    0.5089   52.2052   28.0966 C   0  0  0  0  0  0
    2.4506   51.9283   29.7096 C   0  0  0  0  0  0
    6.7044   55.0157   22.7718 N   0  0  0  0  0  0
    6.2997   55.1750   21.4856 C   0  0  0  0  0  0
    5.1720   54.8959   21.0744 O   0  0  0  0  0  0
    7.3868   55.6967   20.5845 C   0  0  0  0  0  0
    8.5646   55.6911   20.9558 O   0  0  0  0  0  0
    7.0467   56.1587   19.3404 N   0  0  0  0  0  0
    5.7124   56.5950   18.8917 C   0  0  0  0  0  0
    6.0403   57.6641   17.8534 C   0  0  0  0  0  0
    7.3035   57.1511   17.1944 C   0  0  0  0  0  0
    8.0880   56.5013   18.3439 C   0  0  2  0  0  0
    8.7775   57.2351   18.7666 H   0  0  0  0  0  0
    8.9353   55.3185   17.8750 C   0  0  0  0  0  0
   10.3049   55.2843   17.6269 C   0  0  0  0  0  0
   10.5877   53.9836   17.2811 C   0  0  0  0  0  0
    9.4297   53.2810   17.2813 O   0  0  0  0  0  0
    8.3923   54.1359   17.6544 N   0  0  0  0  0  0
   11.8448   53.2282   16.9429 C   0  0  0  0  0  0
    7.9043   54.0848   27.3464 H   0  0  0  0  0  0
    6.6388   54.8961   28.2697 H   0  0  0  0  0  0
    6.6017   53.1505   28.0656 H   0  0  0  0  0  0
    7.7190   54.6232   25.0946 H   0  0  0  0  0  0
    3.9504   54.5957   23.0433 H   0  0  0  0  0  0
    2.8082   54.1658   25.0953 H   0  0  0  0  0  0
    2.5231   52.7060   26.6605 H   0  0  0  0  0  0
    1.5197   53.7707   29.1214 H   0  0  0  0  0  0
   -0.1689   51.9441   28.9099 H   0  0  0  0  0  0
    0.7023   51.2807   27.5519 H   0  0  0  0  0  0
   -0.0276   52.8965   27.4449 H   0  0  0  0  0  0
    1.7361   51.6968   30.4999 H   0  0  0  0  0  0
    2.7683   50.9760   29.2810 H   0  0  0  0  0  0
    3.3061   52.4100   30.1829 H   0  0  0  0  0  0
    7.6846   55.2154   22.9435 H   0  0  0  0  0  0
    5.2049   55.7716   18.3879 H   0  0  0  0  0  0
    5.1101   57.0385   19.6819 H   0  0  0  0  0  0
    5.2197   57.8324   17.1536 H   0  0  0  0  0  0
    6.2346   58.6212   18.3447 H   0  0  0  0  0  0
    7.0505   56.4216   16.4225 H   0  0  0  0  0  0
    7.8669   57.9529   16.7133 H   0  0  0  0  0  0
   11.0074   56.0966   17.7356 H   0  0  0  0  0  0
   12.7180   53.8814   16.9310 H   0  0  0  0  0  0
   12.0391   52.4431   17.6751 H   0  0  0  0  0  0
   11.7743   52.7534   15.9640 H   0  0  0  0  0  0
  1  2  1  0  0  0
  1 31  1  0  0  0
  1 32  1  0  0  0
  1 33  1  0  0  0
  2  7  2  0  0  0
  2  3  1  0  0  0
  3  4  2  0  0  0
  3 34  1  0  0  0
  4  5  1  0  0  0
  4 14  1  0  0  0
  5  6  2  0  0  0
  5 35  1  0  0  0
  6  7  1  0  0  0
  6 36  1  0  0  0
  7  8  1  0  0  0
  8  9  2  0  0  0
  8 10  1  0  0  0
 10 11  1  0  0  0
 10 37  1  0  0  0
 11 12  1  0  0  0
 11 13  1  0  0  0
 11 38  1  0  0  0
 12 39  1  0  0  0
 12 40  1  0  0  0
 12 41  1  0  0  0
 13 42  1  0  0  0
 13 43  1  0  0  0
 13 44  1  0  0  0
 14 15  1  0  0  0
 14 45  1  0  0  0
 15 16  2  0  0  0
 15 17  1  0  0  0
 17 18  2  0  0  0
 17 19  1  0  0  0
 19 23  1  0  0  0
 19 20  1  0  0  0
 20 21  1  0  0  0
 20 46  1  0  0  0
 20 47  1  0  0  0
 21 22  1  0  0  0
 21 48  1  0  0  0
 21 49  1  0  0  0
 22 23  1  0  0  0
 22 50  1  0  0  0
 22 51  1  0  0  0
 23 24  1  0  0  0
 23 25  1  0  0  0
 25 29  2  0  0  0
 25 26  1  0  0  0
 26 27  2  0  0  0
 26 52  1  0  0  0
 27 28  1  0  0  0
 27 30  1  0  0  0
 28 29  1  0  0  0
 30 53  1  0  0  0
 30 54  1  0  0  0
 30 55  1  0  0  0
M  END
> <i_i_glide_confnum>
86

> <i_i_glide_lignum>
1456

> <i_i_glide_posenum>
221

> <i_i_glide_rotatable_bonds>
8

> <i_m_Source_File_Index>
2469

> <b_m_subgroup_collapsed>
0

> <r_i_docking_score>
-5.63129

> <r_i_glide_ecoul>
-0.868291

> <r_i_glide_eff_state_penalty>
0

> <r_i_glide_einternal>
7.67752

> <r_i_glide_emodel>
-56.9629

> <r_i_glide_energy>
-43.8847

> <r_i_glide_erotb>
0.863491

> <r_i_glide_esite>
0

> <r_i_glide_evdw>
-43.0164

> <r_i_glide_gscore>
-5.63129

> <r_i_glide_hbond>
-0.251265

> <r_i_glide_ligand_efficiency>
-0.194182

> <r_i_glide_ligand_efficiency_ln>
-1.28942

> <r_i_glide_ligand_efficiency_sa>
-0.59659

> <r_i_glide_lipo>
-2.32287

> <r_i_glide_metal>
0

> <r_i_glide_rewards>
-1.63958

> <s_i_glide_gridfile>
wee1_glide-grid

> <s_m_Source_File>
wee1_decoys_glide_SP.sdf

> <s_m_Source_Path>
/Users/zhangxujun/Desktop

> <s_m_entry_id>
2744

> <s_m_entry_name>
wee1_decoys_glide_SP.2469

> <s_m_subgroup_title>
wee1_decoys_glide_SP

> <s_m_subgroupid>
wee1_decoys_glide_SP


$$$$
