@<TRIPOS>MOLECULE
ZINC21050687_5335
50   52    1
SMALL
USER_CHARGES


@<TRIPOS>ATOM
      1 C1          4.3642   54.0534   29.0164 C.3       1 UNK         0.0000 
      2 C2          4.7754   54.1782   27.5586 C.ar      1 UNK         0.0000 
      3 C3          6.0996   54.4960   27.2493 C.ar      1 UNK         0.0000 
      4 C4          6.4920   54.6507   25.9217 C.ar      1 UNK         0.0000 
      5 C5          5.5819   54.4880   24.8788 C.ar      1 UNK         0.0000 
      6 C6          4.2501   54.1659   25.1905 C.ar      1 UNK         0.0000 
      7 C7          3.8501   54.0084   26.5193 C.ar      1 UNK         0.0000 
      8 I8          1.8537   53.4948   26.8934 I         1 UNK         0.0000 
      9 N9          6.0868   54.6904   23.5780 N.am      1 UNK         0.0000 
     10 C10         5.5046   54.4312   22.3851 C.2       1 UNK         0.0000 
     11 O11         4.4307   53.8433   22.2561 O.2       1 UNK         0.0000 
     12 C12         6.2360   54.9363   21.1576 C.ar      1 UNK         0.0000 
     13 C13         7.5958   55.2967   21.1857 C.ar      1 UNK         0.0000 
     14 C14         8.2587   55.6967   20.0275 C.ar      1 UNK         0.0000 
     15 C15         7.5672   55.7764   18.8242 C.ar      1 UNK         0.0000 
     16 C16         6.2079   55.4630   18.7812 C.ar      1 UNK         0.0000 
     17 C17         5.5513   55.0341   19.9368 C.ar      1 UNK         0.0000 
     18 S18         5.2849   55.7173   17.2746 S.o2      1 UNK         0.0000 
     19 O19         6.2244   55.6183   16.1511 O.2       1 UNK         0.0000 
     20 O20         4.0802   54.8815   17.3338 O.2       1 UNK         0.0000 
     21 N21         4.7872   57.4102   17.4002 N.pl3     1 UNK         0.0000 
     22 C22         3.4268   57.8215   17.0096 C.3       1 UNK         0.0000 
     23 C23         3.4098   58.2702   15.5377 C.3       1 UNK         0.0000 
     24 N24         4.5473   59.2967   15.2812 N.4       1 UNK         0.0000 
     25 C25         5.9464   58.9329   15.8434 C.3       1 UNK         0.0000 
     26 C26         5.8044   58.4733   17.3038 C.3       1 UNK         0.0000 
     27 C27         4.6288   59.6891   13.7934 C.3       1 UNK         0.0000 
     28 H28         5.1052   54.4970   29.6814 H         1 UNK         0.0000 
     29 H29         4.2176   53.0065   29.2837 H         1 UNK         0.0000 
     30 H30         3.4298   54.5853   29.1960 H         1 UNK         0.0000 
     31 H31         6.8261   54.6316   28.0385 H         1 UNK         0.0000 
     32 H32         7.5135   54.8962   25.7013 H         1 UNK         0.0000 
     33 H33         3.5022   54.0402   24.4241 H         1 UNK         0.0000 
     34 H34         7.0017   55.1096   23.5446 H         1 UNK         0.0000 
     35 H35         8.1869   55.2305   22.0818 H         1 UNK         0.0000 
     36 H36         9.3101   55.9443   20.0630 H         1 UNK         0.0000 
     37 H37         8.0856   56.1001   17.9326 H         1 UNK         0.0000 
     38 H38         4.4980   54.7879   19.8821 H         1 UNK         0.0000 
     39 H39         2.7501   56.9850   17.1879 H         1 UNK         0.0000 
     40 H40         3.1040   58.6291   17.6705 H         1 UNK         0.0000 
     41 H41         2.4796   58.7985   15.3217 H         1 UNK         0.0000 
     42 H42         3.5341   57.4356   14.8450 H         1 UNK         0.0000 
     43 H43         6.5294   59.8559   15.8007 H         1 UNK         0.0000 
     44 H44         6.3969   58.1751   15.1994 H         1 UNK         0.0000 
     45 H45         5.5053   59.2967   17.9505 H         1 UNK         0.0000 
     46 H46         6.7442   58.1011   17.7061 H         1 UNK         0.0000 
     47 H47         4.9268   58.8069   13.2237 H         1 UNK         0.0000 
     48 H48         3.6421   60.0465   13.4955 H         1 UNK         0.0000 
     49 H49         5.3648   60.4908   13.7094 H         1 UNK         0.0000 
     50 H50         4.3043   60.1458   15.8142 H         1 UNK         0.0000 
@<TRIPOS>BOND
     1    1    2 1    
     2    1   28 1    
     3    1   29 1    
     4    1   30 1    
     5    2    7 ar   
     6    2    3 ar   
     7    3    4 ar   
     8    3   31 1    
     9    4    5 ar   
    10    4   32 1    
    11    5    6 ar   
    12    5    9 1    
    13    6    7 ar   
    14    6   33 1    
    15    7    8 1    
    16    9   10 am   BACKBONE|DICT|INTERRES
    17    9   34 1    
    18   10   11 2    
    19   10   12 1    
    20   12   17 ar   
    21   12   13 ar   
    22   13   14 ar   
    23   13   35 1    
    24   14   15 ar   
    25   14   36 1    
    26   15   16 ar   
    27   15   37 1    
    28   16   17 ar   
    29   16   18 1    
    30   17   38 1    
    31   18   19 2    
    32   18   20 2    
    33   18   21 1    
    34   21   26 1    
    35   21   22 1    
    36   22   23 1    
    37   22   39 1    
    38   22   40 1    
    39   23   24 1    
    40   23   41 1    
    41   23   42 1    
    42   24   25 1    
    43   24   27 1    
    44   24   50 1    
    45   25   26 1    
    46   25   43 1    
    47   25   44 1    
    48   26   45 1    
    49   26   46 1    
    50   27   47 1    
    51   27   48 1    
    52   27   49 1    
@<TRIPOS>SUBSTRUCTURE
     1 UNK         1 GROUP             0       ****    0 ROOT    
