ZINC02208082_932
                    3D
 Schrodinger Suite 2024-2.
 64 68  0  0  1  0            999 V2000
    5.7206   54.5992   24.6415 C   0  0  0  0  0  0
    4.5882   54.0968   23.7777 C   0  0  0  0  0  0
    3.2703   53.8037   24.1270 C   0  0  0  0  0  0
    2.4594   53.2969   23.0915 C   0  0  0  0  0  0
    3.1700   53.3177   21.8915 C   0  0  0  0  0  0
    4.8162   53.8067   22.0816 S   0  0  0  0  0  0
    1.0428   52.9877   23.2856 C   0  0  0  0  0  0
    0.4331   53.6966   24.0817 O   0  0  0  0  0  0
    0.4769   51.8531   22.7519 N   0  0  0  0  0  0
   -0.8218   51.2131   23.1506 C   0  0  2  0  0  0
   -1.3892   51.0335   22.2375 H   0  0  0  0  0  0
   -1.8195   52.0067   24.0300 C   0  0  0  0  0  0
   -1.9364   51.7842   25.4125 C   0  0  0  0  0  0
   -2.9253   52.4227   26.1530 C   0  0  0  0  0  0
   -3.8044   53.2969   25.5228 C   0  0  0  0  0  0
   -3.6937   53.5440   24.1582 C   0  0  0  0  0  0
   -2.7041   52.8966   23.4184 C   0  0  0  0  0  0
   -0.5675   49.8379   23.7329 C   0  0  0  0  0  0
   -1.1318   48.5890   23.5170 C   0  0  0  0  0  0
   -0.5975   47.7382   24.4816 C   0  0  0  0  0  0
    0.3044   48.4967   25.2047 C   0  0  0  0  0  0
    0.3434   49.7632   24.7361 O   0  0  0  0  0  0
    1.1018   51.2801   21.6230 N   0  0  0  0  0  0
    0.6247   51.4659   20.3668 C   0  0  0  0  0  0
   -0.4580   52.0254   20.1513 O   0  0  0  0  0  0
    1.4840   50.9264   19.1555 C   0  0  0  0  0  0
    0.7492   49.7886   18.3900 C   0  0  0  0  0  0
    1.1043   49.5102   17.0604 C   0  0  0  0  0  0
    0.5054   48.4678   16.3596 C   0  0  0  0  0  0
   -0.4505   47.6756   16.9865 C   0  0  0  0  0  0
   -0.8005   47.9108   18.3124 C   0  0  0  0  0  0
   -0.1969   48.9517   19.0123 C   0  0  0  0  0  0
    1.7986   52.1503   18.2427 C   0  0  0  0  0  0
    3.1038   52.6562   18.1138 C   0  0  0  0  0  0
    3.3628   53.7673   17.3172 C   0  0  0  0  0  0
    2.3206   54.3857   16.6338 C   0  0  0  0  0  0
    1.0221   53.8973   16.7358 C   0  0  0  0  0  0
    0.7653   52.7858   17.5326 C   0  0  0  0  0  0
    2.6899   50.3561   19.6791 O   0  0  0  0  0  0
    5.4098   54.7470   25.6759 H   0  0  0  0  0  0
    6.5538   53.8960   24.6554 H   0  0  0  0  0  0
    6.1096   55.5525   24.2830 H   0  0  0  0  0  0
    2.9077   53.9326   25.1371 H   0  0  0  0  0  0
    2.8169   53.1023   20.8950 H   0  0  0  0  0  0
   -1.2817   51.1007   25.9311 H   0  0  0  0  0  0
   -3.0135   52.2271   27.2114 H   0  0  0  0  0  0
   -4.5731   53.7912   26.0983 H   0  0  0  0  0  0
   -4.3736   54.2333   23.6809 H   0  0  0  0  0  0
   -2.6274   53.0670   22.3577 H   0  0  0  0  0  0
   -1.8902   48.3456   22.7881 H   0  0  0  0  0  0
   -0.8446   46.7015   24.6497 H   0  0  0  0  0  0
    0.9598   48.2904   26.0373 H   0  0  0  0  0  0
    2.0409   50.9545   21.8048 H   0  0  0  0  0  0
    1.8681   50.0923   16.5630 H   0  0  0  0  0  0
    0.7933   48.2710   15.3374 H   0  0  0  0  0  0
   -0.9153   46.8661   16.4429 H   0  0  0  0  0  0
   -1.5320   47.2835   18.7995 H   0  0  0  0  0  0
   -0.4746   49.0911   20.0463 H   0  0  0  0  0  0
    3.9363   52.1978   18.6277 H   0  0  0  0  0  0
    4.3705   54.1463   17.2305 H   0  0  0  0  0  0
    2.5224   55.2490   16.0170 H   0  0  0  0  0  0
    0.2175   54.3781   16.1996 H   0  0  0  0  0  0
   -0.2470   52.4155   17.6008 H   0  0  0  0  0  0
    3.2542   50.1097   18.9323 H   0  0  0  0  0  0
  1  2  1  0  0  0
  1 40  1  0  0  0
  1 41  1  0  0  0
  1 42  1  0  0  0
  2  6  1  0  0  0
  2  3  2  0  0  0
  3  4  1  0  0  0
  3 43  1  0  0  0
  4  5  2  0  0  0
  4  7  1  0  0  0
  5  6  1  0  0  0
  5 44  1  0  0  0
  7  8  2  0  0  0
  7  9  1  0  0  0
  9 10  1  0  0  0
  9 23  1  0  0  0
 10 11  1  0  0  0
 10 12  1  0  0  0
 10 18  1  0  0  0
 12 17  2  0  0  0
 12 13  1  0  0  0
 13 14  2  0  0  0
 13 45  1  0  0  0
 14 15  1  0  0  0
 14 46  1  0  0  0
 15 16  2  0  0  0
 15 47  1  0  0  0
 16 17  1  0  0  0
 16 48  1  0  0  0
 17 49  1  0  0  0
 18 22  1  0  0  0
 18 19  2  0  0  0
 19 20  1  0  0  0
 19 50  1  0  0  0
 20 21  2  0  0  0
 20 51  1  0  0  0
 21 22  1  0  0  0
 21 52  1  0  0  0
 23 24  1  0  0  0
 23 53  1  0  0  0
 24 25  2  0  0  0
 24 26  1  0  0  0
 26 27  1  0  0  0
 26 33  1  0  0  0
 26 39  1  0  0  0
 27 32  2  0  0  0
 27 28  1  0  0  0
 28 29  2  0  0  0
 28 54  1  0  0  0
 29 30  1  0  0  0
 29 55  1  0  0  0
 30 31  2  0  0  0
 30 56  1  0  0  0
 31 32  1  0  0  0
 31 57  1  0  0  0
 32 58  1  0  0  0
 33 38  2  0  0  0
 33 34  1  0  0  0
 34 35  2  0  0  0
 34 59  1  0  0  0
 35 36  1  0  0  0
 35 60  1  0  0  0
 36 37  2  0  0  0
 36 61  1  0  0  0
 37 38  1  0  0  0
 37 62  1  0  0  0
 38 63  1  0  0  0
 39 64  1  0  0  0
M  END
> <i_i_glide_confnum>
245

> <i_i_glide_lignum>
933

> <i_i_glide_posenum>
148

> <i_i_glide_rotatable_bonds>
11

> <i_m_Source_File_Index>
3076

> <b_m_subgroup_collapsed>
0

> <r_i_docking_score>
-3.79131

> <r_i_glide_ecoul>
-4.46185

> <r_i_glide_eff_state_penalty>
0

> <r_i_glide_einternal>
6.19396

> <r_i_glide_emodel>
-52.0351

> <r_i_glide_energy>
-42.4866

> <r_i_glide_erotb>
0.752947

> <r_i_glide_esite>
-0.0080621

> <r_i_glide_evdw>
-38.0248

> <r_i_glide_gscore>
-3.79131

> <r_i_glide_hbond>
-0.0583765

> <r_i_glide_ligand_efficiency>
-0.0997713

> <r_i_glide_ligand_efficiency_ln>
-0.817518

> <r_i_glide_ligand_efficiency_sa>
-0.335429

> <r_i_glide_lipo>
-1.69731

> <r_i_glide_metal>
0

> <r_i_glide_rewards>
-0.209991

> <s_i_glide_gridfile>
wee1_glide-grid

> <s_m_Source_File>
wee1_decoys_glide_SP.sdf

> <s_m_Source_Path>
/Users/zhangxujun/Desktop

> <s_m_entry_id>
3351

> <s_m_entry_name>
wee1_decoys_glide_SP.3076

> <s_m_subgroup_title>
wee1_decoys_glide_SP

> <s_m_subgroupid>
wee1_decoys_glide_SP


$$$$
