@<TRIPOS>MOLECULE
ZINC00664726_6015
58   62    1
SMALL
USER_CHARGES


@<TRIPOS>ATOM
      1 C1         -5.7043   50.8162   25.8969 C.3       1 UNK         0.0000 
      2 C2         -4.4517   51.0875   26.7187 C.ar      1 UNK         0.0000 
      3 C3         -3.4135   51.8298   26.1516 C.ar      1 UNK         0.0000 
      4 C4         -2.2567   52.0969   26.8801 C.ar      1 UNK         0.0000 
      5 C5         -2.1063   51.6338   28.1907 C.ar      1 UNK         0.0000 
      6 C6         -3.1551   50.8965   28.7539 C.ar      1 UNK         0.0000 
      7 C7         -4.3207   50.6151   28.0345 C.ar      1 UNK         0.0000 
      8 C8         -5.4079   49.7766   28.6924 C.3       1 UNK         0.0000 
      9 C9         -0.8756   51.9449   28.9968 C.ar      1 UNK         0.0000 
     10 C10         0.3908   52.4510   28.6563 C.ar      1 UNK         0.0000 
     11 C11         1.0851   52.4743   29.8761 C.ar      1 UNK         0.0000 
     12 N12         0.3743   52.0985   30.9001 N.2       1 UNK         0.0000 
     13 N13        -0.7966   51.7600   30.3603 N.pl3     1 UNK         0.0000 
     14 H14        -1.5382   51.3933   30.9490 H         1 UNK         0.0000 
     15 O15         2.4042   52.8074   30.0503 O.3       1 UNK         0.0000 
     16 C16         3.0601   53.1553   28.9141 C.2       1 UNK         0.0000 
     17 C17         2.5645   53.1563   27.6532 C.2       1 UNK         0.0000 
     18 C18         1.1074   52.7661   27.3292 C.3       1 UNK         0.0000 
     19 H19         0.6905   53.6709   26.9011 H         1 UNK         0.0000 
     20 C20         0.9130   51.6767   26.2527 C.ar      1 UNK         0.0000 
     21 C21         0.5411   50.3725   26.6347 C.ar      1 UNK         0.0000 
     22 C22         0.2997   49.3776   25.6947 C.ar      1 UNK         0.0000 
     23 C23         0.4302   49.6594   24.3441 C.ar      1 UNK         0.0000 
     24 C24         0.8018   50.9371   23.9417 C.ar      1 UNK         0.0000 
     25 C25         1.0474   51.9598   24.8776 C.ar      1 UNK         0.0000 
     26 O26         1.4143   53.2390   24.5057 O.3       1 UNK         0.0000 
     27 C27         1.2428   53.6620   23.1547 C.3       1 UNK         0.0000 
     28 C28         2.4559   53.3770   22.2717 C.ar      1 UNK         0.0000 
     29 C29         2.3502   52.5202   21.1680 C.ar      1 UNK         0.0000 
     30 C30         3.3847   52.4524   20.2383 C.ar      1 UNK         0.0000 
     31 C31         4.5166   53.2454   20.4077 C.ar      1 UNK         0.0000 
     32 C32         4.6634   54.0384   21.5440 C.ar      1 UNK         0.0000 
     33 C33         3.6332   54.0986   22.4782 C.ar      1 UNK         0.0000 
     34 Cl34        5.7095   53.3012   19.1631 Cl        1 UNK         0.0000 
     35 C35         3.4019   53.6549   26.6088 C.1       1 UNK         0.0000 
     36 N36         4.1299   54.1034   25.8295 N.1       1 UNK         0.0000 
     37 N37         4.3256   53.5136   29.2810 N.pl3     1 UNK         0.0000 
     38 H38        -5.7651   49.7588   25.6388 H         1 UNK         0.0000 
     39 H39        -6.5965   51.0713   26.4689 H         1 UNK         0.0000 
     40 H40        -5.7307   51.4048   24.9793 H         1 UNK         0.0000 
     41 H41        -3.4977   52.2064   25.1429 H         1 UNK         0.0000 
     42 H42        -1.4905   52.6960   26.4165 H         1 UNK         0.0000 
     43 H43        -3.0536   50.5000   29.7546 H         1 UNK         0.0000 
     44 H44        -6.2845   50.3874   28.9081 H         1 UNK         0.0000 
     45 H45        -5.7181   48.9704   28.0274 H         1 UNK         0.0000 
     46 H46        -5.0628   49.3094   29.6163 H         1 UNK         0.0000 
     47 H47         0.4135   50.0981   27.6744 H         1 UNK         0.0000 
     48 H48         0.0026   48.3924   26.0251 H         1 UNK         0.0000 
     49 H49         0.2486   48.8885   23.6100 H         1 UNK         0.0000 
     50 H50         0.8974   51.1034   22.8852 H         1 UNK         0.0000 
     51 H51         1.1052   54.7433   23.1871 H         1 UNK         0.0000 
     52 H52         0.3210   53.2753   22.7188 H         1 UNK         0.0000 
     53 H53         1.4416   51.9719   20.9733 H         1 UNK         0.0000 
     54 H54         3.2876   51.8350   19.3559 H         1 UNK         0.0000 
     55 H55         5.5468   54.6457   21.6745 H         1 UNK         0.0000 
     56 H56         3.7177   54.7713   23.3180 H         1 UNK         0.0000 
     57 H57         4.9719   53.8645   28.5883 H         1 UNK         0.0000 
     58 H58         4.7189   53.1629   30.1410 H         1 UNK         0.0000 
@<TRIPOS>BOND
     1    1    2 1    
     2    1   38 1    
     3    1   39 1    
     4    1   40 1    
     5    2    7 ar   
     6    2    3 ar   
     7    3    4 ar   
     8    3   41 1    
     9    4    5 ar   
    10    4   42 1    
    11    5    6 ar   
    12    5    9 1    
    13    6    7 ar   
    14    6   43 1    
    15    7    8 1    
    16    8   44 1    
    17    8   45 1    
    18    8   46 1    
    19    9   13 ar   
    20    9   10 ar   
    21   10   18 1    
    22   10   11 ar   
    23   11   12 ar   
    24   11   15 1    
    25   12   13 ar   
    26   13   14 1    
    27   15   16 1    
    28   16   17 2    
    29   16   37 1    
    30   17   18 1    
    31   17   35 1    
    32   18   19 1    
    33   18   20 1    
    34   20   25 ar   
    35   20   21 ar   
    36   21   22 ar   
    37   21   47 1    
    38   22   23 ar   
    39   22   48 1    
    40   23   24 ar   
    41   23   49 1    
    42   24   25 ar   
    43   24   50 1    
    44   25   26 1    
    45   26   27 1    
    46   27   28 1    
    47   27   51 1    
    48   27   52 1    
    49   28   33 ar   
    50   28   29 ar   
    51   29   30 ar   
    52   29   53 1    
    53   30   31 ar   
    54   30   54 1    
    55   31   32 ar   
    56   31   34 1    
    57   32   33 ar   
    58   32   55 1    
    59   33   56 1    
    60   35   36 3    
    61   37   57 1    
    62   37   58 1    
@<TRIPOS>SUBSTRUCTURE
     1 UNK         1 GROUP             0       ****    0 ROOT    
