@<TRIPOS>MOLECULE
ZINC08943225_2339
48   51    1
SMALL
USER_CHARGES


@<TRIPOS>ATOM
      1 C1          2.1017   54.2126   16.3773 C.ar      1 UNK         0.0000 
      2 C2          2.2801   53.1136   17.2125 C.ar      1 UNK         0.0000 
      3 C3          3.5124   52.9041   17.8211 C.ar      1 UNK         0.0000 
      4 C4          4.5737   53.7859   17.5920 C.ar      1 UNK         0.0000 
      5 C5          4.3820   54.8866   16.7474 C.ar      1 UNK         0.0000 
      6 C6          3.1474   55.1016   16.1403 C.ar      1 UNK         0.0000 
      7 C7          5.9176   53.5545   18.3003 C.3       1 UNK         0.0000 
      8 H8          5.8434   52.6449   18.8992 H         1 UNK         0.0000 
      9 C9          7.0691   53.3631   17.2859 C.2       1 UNK         0.0000 
     10 O10         7.5713   54.3390   16.7245 O.2       1 UNK         0.0000 
     11 N11         7.5052   52.0970   17.1123 N.am      1 UNK         0.0000 
     12 C12         8.6034   51.6966   16.3320 C.ar      1 UNK         0.0000 
     13 C13         9.5031   50.7779   16.8811 C.ar      1 UNK         0.0000 
     14 C14        10.5876   50.3314   16.1333 C.ar      1 UNK         0.0000 
     15 C15        10.7770   50.8069   14.8391 C.ar      1 UNK         0.0000 
     16 C16         9.8894   51.7249   14.2828 C.ar      1 UNK         0.0000 
     17 C17         8.7977   52.1690   15.0269 C.ar      1 UNK         0.0000 
     18 F18        11.8405   50.3839   14.1218 F         1 UNK         0.0000 
     19 S19         6.2765   54.9522   19.4295 S.3       1 UNK         0.0000 
     20 C20         5.5031   54.4007   20.9216 C.ar      1 UNK         0.0000 
     21 N21         4.3875   53.7196   20.9969 N.2       1 UNK         0.0000 
     22 N22         4.1045   53.5279   22.3443 N.2       1 UNK         0.0000 
     23 C23         5.0603   54.0965   23.0434 C.ar      1 UNK         0.0000 
     24 N24         5.9796   54.6667   22.1855 N.pl3     1 UNK         0.0000 
     25 N25         7.1010   55.4038   22.5018 N.3       1 UNK         0.0000 
     26 C26         5.0926   54.1349   24.5451 C.ar      1 UNK         0.0000 
     27 C27         3.8854   54.1405   25.2549 C.ar      1 UNK         0.0000 
     28 C28         3.8871   54.1504   26.6460 C.ar      1 UNK         0.0000 
     29 C29         5.0935   54.1533   27.3352 C.ar      1 UNK         0.0000 
     30 C30         6.3018   54.1496   26.6462 C.ar      1 UNK         0.0000 
     31 C31         6.3011   54.1368   25.2532 C.ar      1 UNK         0.0000 
     32 F32         5.0926   54.1572   28.6882 F         1 UNK         0.0000 
     33 H33         1.1441   54.3771   15.9066 H         1 UNK         0.0000 
     34 H34         1.4674   52.4259   17.3915 H         1 UNK         0.0000 
     35 H35         3.6440   52.0488   18.4678 H         1 UNK         0.0000 
     36 H36         5.1882   55.5826   16.5671 H         1 UNK         0.0000 
     37 H37         3.0033   55.9535   15.4918 H         1 UNK         0.0000 
     38 H38         6.9990   51.3695   17.6101 H         1 UNK         0.0000 
     39 H39         9.3669   50.4055   17.8865 H         1 UNK         0.0000 
     40 H40        11.2860   49.6246   16.5541 H         1 UNK         0.0000 
     41 H41        10.0508   52.0859   13.2774 H         1 UNK         0.0000 
     42 H42         8.1084   52.8753   14.5872 H         1 UNK         0.0000 
     43 H43         7.9622   54.8978   22.3408 H         1 UNK         0.0000 
     44 H44         7.0984   56.3116   22.0568 H         1 UNK         0.0000 
     45 H45         2.9427   54.1326   24.7256 H         1 UNK         0.0000 
     46 H46         2.9538   54.1500   27.1903 H         1 UNK         0.0000 
     47 H47         7.2308   54.1411   27.1957 H         1 UNK         0.0000 
     48 H48         7.2453   54.1028   24.7313 H         1 UNK         0.0000 
@<TRIPOS>BOND
     1    1    6 ar   
     2    1    2 ar   
     3    1   33 1    
     4    2    3 ar   
     5    2   34 1    
     6    3    4 ar   
     7    3   35 1    
     8    4    5 ar   
     9    4    7 1    
    10    5    6 ar   
    11    5   36 1    
    12    6   37 1    
    13    7    8 1    
    14    7    9 1    
    15    7   19 1    
    16    9   10 2    
    17    9   11 am   BACKBONE|DICT|INTERRES
    18   11   12 1    
    19   11   38 1    
    20   12   17 ar   
    21   12   13 ar   
    22   13   14 ar   
    23   13   39 1    
    24   14   15 ar   
    25   14   40 1    
    26   15   16 ar   
    27   15   18 1    
    28   16   17 ar   
    29   16   41 1    
    30   17   42 1    
    31   19   20 1    
    32   20   24 ar   
    33   20   21 ar   
    34   21   22 ar   
    35   22   23 ar   
    36   23   24 ar   
    37   23   26 1    
    38   24   25 1    
    39   25   43 1    
    40   25   44 1    
    41   26   31 ar   
    42   26   27 ar   
    43   27   28 ar   
    44   27   45 1    
    45   28   29 ar   
    46   28   46 1    
    47   29   30 ar   
    48   29   32 1    
    49   30   31 ar   
    50   30   47 1    
    51   31   48 1    
@<TRIPOS>SUBSTRUCTURE
     1 UNK         1 GROUP             0       ****    0 ROOT    
