@<TRIPOS>MOLECULE
ZINC63376042_506
59   63    1
SMALL
USER_CHARGES


@<TRIPOS>ATOM
      1 C1          8.7969   61.2210   14.9881 C.3       1 UNK         0.0000 
      2 C2          7.3997   60.7028   14.6367 C.3       1 UNK         0.0000 
      3 O3          7.1108   59.5679   15.4400 O.3       1 UNK         0.0000 
      4 C4          5.9004   58.9618   15.3668 C.2       1 UNK         0.0000 
      5 O5          5.0119   59.2963   14.5772 O.2       1 UNK         0.0000 
      6 C6          5.7259   57.8868   16.3941 C.ar      1 UNK         0.0000 
      7 C7          6.8280   57.2452   16.9789 C.ar      1 UNK         0.0000 
      8 C8          6.6376   56.2078   17.8867 C.ar      1 UNK         0.0000 
      9 C9          5.3408   55.8082   18.2298 C.ar      1 UNK         0.0000 
     10 C10         4.2380   56.4666   17.6734 C.ar      1 UNK         0.0000 
     11 C11         4.4308   57.4927   16.7544 C.ar      1 UNK         0.0000 
     12 N12         5.1398   54.7098   19.1069 N.pl3     1 UNK         0.0000 
     13 C13         5.4352   54.8966   20.4514 C.ar      1 UNK         0.0000 
     14 O14         5.9044   55.9521   20.8878 O.2       1 UNK         0.0000 
     15 C15         5.1325   53.7355   21.3098 C.ar      1 UNK         0.0000 
     16 C16         4.7033   52.6186   20.6847 C.ar      1 UNK         0.0000 
     17 N17         4.5328   52.4967   19.3537 N.pl3     1 UNK         0.0000 
     18 H18         4.5661   51.5748   18.9155 H         1 UNK         0.0000 
     19 C19         4.6942   53.5403   18.5056 C.ar      1 UNK         0.0000 
     20 O20         4.4091   53.3905   17.3162 O.2       1 UNK         0.0000 
     21 O21         4.3532   51.5357   21.2816 O.co2     1 UNK         0.0000 
     22 C22         5.2735   53.8020   22.8435 C.3       1 UNK         0.0000 
     23 H23         5.4216   52.7911   23.2216 H         1 UNK         0.0000 
     24 C24         3.9669   54.3601   23.4626 C.3       1 UNK         0.0000 
     25 H25         3.7076   55.2967   22.9877 H         1 UNK         0.0000 
     26 C26         4.0944   54.4714   24.9677 C.2       1 UNK         0.0000 
     27 C27         3.0532   53.8547   25.5482 C.2       1 UNK         0.0000 
     28 C28         2.7018   53.6397   26.9590 C.2       1 UNK         0.0000 
     29 C29         1.6096   52.9286   27.3138 C.2       1 UNK         0.0000 
     30 C30         0.7909   52.3906   26.2181 C.2       1 UNK         0.0000 
     31 C31         1.1071   52.5724   24.9086 C.2       1 UNK         0.0000 
     32 C32         2.2509   53.2943   24.5509 C.2       1 UNK         0.0000 
     33 N33         2.7569   53.5225   23.3568 N.pl3     1 UNK         0.0000 
     34 O34         1.3601   52.7395   28.6395 O.3       1 UNK         0.0000 
     35 C35         0.2483   51.9292   29.0157 C.3       1 UNK         0.0000 
     36 C36         5.3600   55.1278   25.4937 C.3       1 UNK         0.0000 
     37 C37         6.5718   54.4836   24.7838 C.3       1 UNK         0.0000 
     38 N38         6.4366   54.5563   23.3286 N.3       1 UNK         0.0000 
     39 H39         8.8513   61.5076   16.0386 H         1 UNK         0.0000 
     40 H40         9.5570   60.4611   14.8054 H         1 UNK         0.0000 
     41 H41         9.0475   62.0968   14.3899 H         1 UNK         0.0000 
     42 H42         6.6581   61.4839   14.8169 H         1 UNK         0.0000 
     43 H43         7.3494   60.4368   13.5796 H         1 UNK         0.0000 
     44 H44         7.8394   57.5251   16.7197 H         1 UNK         0.0000 
     45 H45         7.4942   55.7053   18.3121 H         1 UNK         0.0000 
     46 H46         3.2342   56.1581   17.9289 H         1 UNK         0.0000 
     47 H47         3.5644   57.9761   16.3233 H         1 UNK         0.0000 
     48 H48         3.3189   54.0328   27.7533 H         1 UNK         0.0000 
     49 H49        -0.0977   51.8197   26.4420 H         1 UNK         0.0000 
     50 H50         0.4647   52.1401   24.1547 H         1 UNK         0.0000 
     51 H51         0.1993   51.8665   30.1029 H         1 UNK         0.0000 
     52 H52        -0.6958   52.3556   28.6727 H         1 UNK         0.0000 
     53 H53         0.3394   50.9101   28.6347 H         1 UNK         0.0000 
     54 H54         5.3583   56.1963   25.2833 H         1 UNK         0.0000 
     55 H55         5.4550   55.0201   26.5743 H         1 UNK         0.0000 
     56 H56         7.5030   54.9723   25.0709 H         1 UNK         0.0000 
     57 H57         6.6904   53.4463   25.1027 H         1 UNK         0.0000 
     58 H58         7.2708   54.1991   22.8834 H         1 UNK         0.0000 
     59 H59         2.3823   53.1854   22.4727 H         1 UNK         0.0000 
@<TRIPOS>BOND
     1    1    2 1    
     2    1   39 1    
     3    1   40 1    
     4    1   41 1    
     5    2    3 1    
     6    2   42 1    
     7    2   43 1    
     8    3    4 1    
     9    4    5 2    
    10    4    6 1    
    11    6   11 ar   
    12    6    7 ar   
    13    7    8 ar   
    14    7   44 1    
    15    8    9 ar   
    16    8   45 1    
    17    9   10 ar   
    18    9   12 1    
    19   10   11 ar   
    20   10   46 1    
    21   11   47 1    
    22   12   19 ar   
    23   12   13 ar   
    24   13   14 2    
    25   13   15 ar   
    26   15   22 1    
    27   15   16 ar   
    28   16   21 1    
    29   16   17 ar   
    30   17   18 1    
    31   17   19 ar   
    32   19   20 2    
    33   22   23 1    
    34   22   38 1    
    35   22   24 1    
    36   24   25 1    
    37   24   33 1    
    38   24   26 1    
    39   26   27 2    
    40   26   36 1    
    41   27   32 1    
    42   27   28 1    
    43   28   29 2    
    44   28   48 1    
    45   29   30 1    
    46   29   34 1    
    47   30   31 2    
    48   30   49 1    
    49   31   32 1    
    50   31   50 1    
    51   32   33 2    
    52   33   59 1    
    53   34   35 1    
    54   35   51 1    
    55   35   52 1    
    56   35   53 1    
    57   36   37 1    
    58   36   54 1    
    59   36   55 1    
    60   37   38 1    
    61   37   56 1    
    62   37   57 1    
    63   38   58 1    
@<TRIPOS>SUBSTRUCTURE
     1 UNK         1 GROUP             0       ****    0 ROOT    
