@<TRIPOS>MOLECULE
ZINC11719715_1267
50   52    1
SMALL
USER_CHARGES


@<TRIPOS>ATOM
      1 C1          2.6687   51.8583   19.0045 C.3       1 UNK         0.0000 
      2 C2          3.6561   52.4374   20.0255 C.3       1 UNK         0.0000 
      3 H3          4.2678   51.6365   20.4476 H         1 UNK         0.0000 
      4 C4          4.5781   53.4369   19.2797 C.2       1 UNK         0.0000 
      5 O5          4.3045   54.6385   19.2430 O.2       1 UNK         0.0000 
      6 N6          5.6659   52.8967   18.6988 N.am      1 UNK         0.0000 
      7 C7          6.7144   53.5916   18.0769 C.ar      1 UNK         0.0000 
      8 C8          7.2004   53.0646   16.8766 C.ar      1 UNK         0.0000 
      9 C9          8.3040   53.6427   16.2496 C.ar      1 UNK         0.0000 
     10 C10         8.9424   54.7393   16.8285 C.ar      1 UNK         0.0000 
     11 C11         8.4797   55.2566   18.0378 C.ar      1 UNK         0.0000 
     12 C12         7.3754   54.6856   18.6708 C.ar      1 UNK         0.0000 
     13 F13         6.9953   55.1764   19.8750 F         1 UNK         0.0000 
     14 Cl14       10.3157   55.4452   16.0583 Cl        1 UNK         0.0000 
     15 C15         2.0093   52.1723   21.9950 C.3       1 UNK         0.0000 
     16 C16         1.3972   52.8603   23.2378 C.3       1 UNK         0.0000 
     17 C17         2.5121   53.3308   24.1789 C.3       1 UNK         0.0000 
     18 C18         3.3519   54.3727   23.4290 C.3       1 UNK         0.0000 
     19 C19         4.0868   53.6932   22.2694 C.3       1 UNK         0.0000 
     20 N20         1.9046   54.0202   25.3244 N.pl3     1 UNK         0.0000 
     21 S21         2.1016   53.5364   27.0140 S.o2      1 UNK         0.0000 
     22 O22         1.3739   54.4901   27.8565 O.2       1 UNK         0.0000 
     23 O23         1.8646   52.0968   27.1235 O.2       1 UNK         0.0000 
     24 C24         3.8550   53.8064   27.3679 C.2       1 UNK         0.0000 
     25 C25         4.9272   53.6967   26.4911 C.2       1 UNK         0.0000 
     26 C26         6.1634   53.8319   27.1167 C.2       1 UNK         0.0000 
     27 C27         6.0443   54.0222   28.4793 C.2       1 UNK         0.0000 
     28 S28         4.3891   54.0972   28.9906 S.3       1 UNK         0.0000 
     29 H29         3.1851   51.4687   18.1237 H         1 UNK         0.0000 
     30 H30         2.1183   51.0229   19.4357 H         1 UNK         0.0000 
     31 H31         1.9580   52.6224   18.6839 H         1 UNK         0.0000 
     32 H32         5.6007   51.8949   18.4816 H         1 UNK         0.0000 
     33 H33         6.7292   52.2010   16.4269 H         1 UNK         0.0000 
     34 H34         8.6701   53.2315   15.3199 H         1 UNK         0.0000 
     35 H35         8.9898   56.0897   18.4989 H         1 UNK         0.0000 
     36 H36         1.2112   51.9638   21.2819 H         1 UNK         0.0000 
     37 H37         2.5396   51.2501   22.2417 H         1 UNK         0.0000 
     38 H38         0.7738   53.6973   22.9208 H         1 UNK         0.0000 
     39 H39         0.7315   52.1713   23.7611 H         1 UNK         0.0000 
     40 H40         3.1044   52.4854   24.5086 H         1 UNK         0.0000 
     41 H41         4.0540   54.8961   24.0766 H         1 UNK         0.0000 
     42 H42         2.7101   55.1520   23.0251 H         1 UNK         0.0000 
     43 H43         4.7439   52.8812   22.5814 H         1 UNK         0.0000 
     44 H44         4.6686   54.4530   21.7469 H         1 UNK         0.0000 
     45 H45         1.4158   54.8965   25.1440 H         1 UNK         0.0000 
     46 H46         4.8494   53.4773   25.4439 H         1 UNK         0.0000 
     47 H47         7.1042   53.7480   26.5978 H         1 UNK         0.0000 
     48 H48         6.8518   54.0967   29.1900 H         1 UNK         0.0000 
     49 N49         3.0223   53.1219   21.2821 N.4       1 UNK         0.0000 
     50 H50         2.4982   53.9252   20.9421 H         1 UNK         0.0000 
@<TRIPOS>BOND
     1    1    2 1    
     2    1   29 1    
     3    1   30 1    
     4    1   31 1    
     5    2    3 1    
     6    2    4 1    
     7    2   49 1    
     8    4    5 2    
     9    4    6 am   BACKBONE|DICT|INTERRES
    10    6    7 1    
    11    6   32 1    
    12    7   12 ar   
    13    7    8 ar   
    14    8    9 ar   
    15    8   33 1    
    16    9   10 ar   
    17    9   34 1    
    18   10   11 ar   
    19   10   14 1    
    20   11   12 ar   
    21   11   35 1    
    22   12   13 1    
    23   15   16 1    
    24   15   36 1    
    25   15   37 1    
    26   15   49 1    
    27   16   17 1    
    28   16   38 1    
    29   16   39 1    
    30   17   18 1    
    31   17   20 1    
    32   17   40 1    
    33   18   19 1    
    34   18   41 1    
    35   18   42 1    
    36   19   43 1    
    37   19   44 1    
    38   19   49 1    
    39   20   21 1    
    40   20   45 1    
    41   21   22 2    
    42   21   23 2    
    43   21   24 1    
    44   24   28 1    
    45   24   25 2    
    46   25   26 1    
    47   25   46 1    
    48   26   27 2    
    49   26   47 1    
    50   27   28 1    
    51   27   48 1    
    52   49   50 1    
@<TRIPOS>SUBSTRUCTURE
     1 UNK         1 GROUP             0       ****    0 ROOT    
