ZINC43757652_4152
                    3D
 Schrodinger Suite 2024-2.
 71 74  0  0  1  0            999 V2000
   -2.8487   52.7393   24.1256 C   0  0  0  0  0  0
   -1.4981   51.9857   24.1434 C   0  0  2  0  0  0
   -1.4202   51.6291   25.1738 H   0  0  0  0  0  0
   -0.2669   52.9119   23.9480 C   0  0  0  0  0  0
    0.4514   52.3650   22.7127 C   0  0  1  0  0  0
   -0.1765   52.7145   21.8975 H   0  0  0  0  0  0
    1.8799   52.8582   22.2945 C   0  0  1  0  0  0
    1.6718   53.6971   21.6360 H   0  0  0  0  0  0
    2.7845   53.5420   23.3529 C   0  0  0  0  0  0
    4.2759   53.7058   22.9355 C   0  0  1  0  0  0
    4.8885   52.8967   23.2832 H   0  0  0  0  0  0
    4.4349   53.7814   21.4060 C   0  0  0  0  0  0
    5.0289   54.8215   20.7661 C   0  0  0  0  0  0
    5.1036   54.9807   19.3130 C   0  0  0  0  0  0
    5.7644   55.8611   18.7695 O   0  0  0  0  0  0
    4.2729   54.0268   18.5845 C   0  0  0  0  0  0
    3.7030   52.9456   19.1574 C   0  0  0  0  0  0
    3.9105   52.5330   20.6231 C   0  0  2  0  0  0
    2.6423   51.8858   21.3395 C   0  0  2  0  0  0
    1.6318   51.0556   20.4803 C   0  0  1  0  0  0
    2.1856   50.3948   19.8103 H   0  0  0  0  0  0
    0.6879   50.1718   21.3841 C   0  0  0  0  0  0
    0.2291   50.8229   22.7616 C   0  0  2  0  0  0
   -1.3013   50.7208   23.2041 C   0  0  2  0  0  0
   -2.3473   50.6450   22.0207 C   0  0  0  0  0  0
   -3.1994   49.7485   21.9718 O   0  0  0  0  0  0
   -2.3188   51.6984   20.8933 C   0  0  0  0  0  0
   -3.2943   51.4658   19.8672 O   0  0  0  0  0  0
   -3.1086   50.5244   18.8959 C   0  0  0  0  0  0
   -2.0677   49.8795   18.7405 O   0  0  0  0  0  0
   -4.3575   50.3040   17.9957 C   0  0  0  0  0  0
   -5.3415   49.3734   18.7471 C   0  0  0  0  0  0
   -3.9530   49.6158   16.6627 C   0  0  0  0  0  0
   -5.0661   51.6447   17.6711 C   0  0  0  0  0  0
   -1.5687   49.5524   23.9861 O   0  0  0  0  0  0
    1.0983   50.2167   23.9302 C   0  0  0  0  0  0
    0.8657   51.9108   19.6431 O   0  0  0  0  0  0
    3.1519   50.9272   22.1033 F   0  0  0  0  0  0
    5.0860   51.5287   20.5666 C   0  0  0  0  0  0
    4.7863   54.7791   23.5334 F   0  0  0  0  0  0
   -2.9778   53.3545   23.2378 H   0  0  0  0  0  0
   -3.6908   52.0497   24.1889 H   0  0  0  0  0  0
   -2.9261   53.4067   24.9821 H   0  0  0  0  0  0
   -0.4796   53.9811   23.9179 H   0  0  0  0  0  0
    0.3948   52.7891   24.8071 H   0  0  0  0  0  0
    2.3445   54.4906   23.6663 H   0  0  0  0  0  0
    2.7994   52.9174   24.2464 H   0  0  0  0  0  0
    5.4120   55.6327   21.3638 H   0  0  0  0  0  0
    4.1177   54.1812   17.5264 H   0  0  0  0  0  0
    3.1810   52.2747   18.4910 H   0  0  0  0  0  0
    1.1708   49.2179   21.5999 H   0  0  0  0  0  0
   -0.1650   49.9359   20.7531 H   0  0  0  0  0  0
   -1.3459   51.7161   20.4189 H   0  0  0  0  0  0
   -2.4896   52.6829   21.3107 H   0  0  0  0  0  0
   -6.2237   49.1588   18.1415 H   0  0  0  0  0  0
   -5.6998   49.8210   19.6771 H   0  0  0  0  0  0
   -4.8834   48.4125   18.9971 H   0  0  0  0  0  0
   -3.2614   50.2301   16.0840 H   0  0  0  0  0  0
   -3.4780   48.6460   16.8267 H   0  0  0  0  0  0
   -4.8225   49.4352   16.0281 H   0  0  0  0  0  0
   -4.3854   52.3680   17.2188 H   0  0  0  0  0  0
   -5.8894   51.4978   16.9700 H   0  0  0  0  0  0
   -5.5005   52.0965   18.5628 H   0  0  0  0  0  0
   -1.6462   48.8007   23.3926 H   0  0  0  0  0  0
    2.0984   50.6232   24.0171 H   0  0  0  0  0  0
    0.6642   50.4002   24.9140 H   0  0  0  0  0  0
    1.1894   49.1326   23.8490 H   0  0  0  0  0  0
    1.4616   52.4547   19.1194 H   0  0  0  0  0  0
    5.9034   51.8883   19.9421 H   0  0  0  0  0  0
    5.5013   51.3263   21.5548 H   0  0  0  0  0  0
    4.7438   50.5770   20.1593 H   0  0  0  0  0  0
  1  2  1  0  0  0
  1 41  1  0  0  0
  1 42  1  0  0  0
  1 43  1  0  0  0
  2  3  1  0  0  0
  2 24  1  0  0  0
  2  4  1  0  0  0
  4  5  1  0  0  0
  4 44  1  0  0  0
  4 45  1  0  0  0
  5  6  1  0  0  0
  5 23  1  0  0  0
  5  7  1  0  0  0
  7  8  1  0  0  0
  7 19  1  0  0  0
  7  9  1  0  0  0
  9 10  1  0  0  0
  9 46  1  0  0  0
  9 47  1  0  0  0
 10 11  1  0  0  0
 10 12  1  0  0  0
 10 40  1  0  0  0
 12 18  1  0  0  0
 12 13  2  0  0  0
 13 14  1  0  0  0
 13 48  1  0  0  0
 14 15  2  0  0  0
 14 16  1  0  0  0
 16 17  2  0  0  0
 16 49  1  0  0  0
 17 18  1  0  0  0
 17 50  1  0  0  0
 18 19  1  0  0  0
 18 39  1  0  0  0
 19 20  1  0  0  0
 19 38  1  0  0  0
 20 21  1  0  0  0
 20 22  1  0  0  0
 20 37  1  0  0  0
 22 23  1  0  0  0
 22 51  1  0  0  0
 22 52  1  0  0  0
 23 24  1  0  0  0
 23 36  1  0  0  0
 24 25  1  0  0  0
 24 35  1  0  0  0
 25 26  2  0  0  0
 25 27  1  0  0  0
 27 28  1  0  0  0
 27 53  1  0  0  0
 27 54  1  0  0  0
 28 29  1  0  0  0
 29 30  2  0  0  0
 29 31  1  0  0  0
 31 32  1  0  0  0
 31 33  1  0  0  0
 31 34  1  0  0  0
 32 55  1  0  0  0
 32 56  1  0  0  0
 32 57  1  0  0  0
 33 58  1  0  0  0
 33 59  1  0  0  0
 33 60  1  0  0  0
 34 61  1  0  0  0
 34 62  1  0  0  0
 34 63  1  0  0  0
 35 64  1  0  0  0
 36 65  1  0  0  0
 36 66  1  0  0  0
 36 67  1  0  0  0
 37 68  1  0  0  0
 39 69  1  0  0  0
 39 70  1  0  0  0
 39 71  1  0  0  0
M  END
> <i_i_glide_confnum>
7

> <i_i_glide_lignum>
4153

> <i_i_glide_posenum>
33

> <i_i_glide_rotatable_bonds>
7

> <i_m_Source_File_Index>
6029

> <b_m_subgroup_collapsed>
0

> <r_i_docking_score>
-2.1332

> <r_i_glide_ecoul>
0.326144

> <r_i_glide_eff_state_penalty>
0

> <r_i_glide_einternal>
1.32134

> <r_i_glide_emodel>
-24.7117

> <r_i_glide_energy>
-22.4322

> <r_i_glide_erotb>
0.333272

> <r_i_glide_esite>
-8.15053e-05

> <r_i_glide_evdw>
-22.7583

> <r_i_glide_gscore>
-2.1332

> <r_i_glide_hbond>
0

> <r_i_glide_ligand_efficiency>
-0.0609487

> <r_i_glide_ligand_efficiency_ln>
-0.468286

> <r_i_glide_ligand_efficiency_sa>
-0.199367

> <r_i_glide_lipo>
-1.10539

> <r_i_glide_metal>
0

> <r_i_glide_rewards>
-0.27201

> <s_i_glide_gridfile>
wee1_glide-grid

> <s_m_Source_File>
wee1_decoys_glide_SP.sdf

> <s_m_Source_Path>
/Users/zhangxujun/Desktop

> <s_m_entry_id>
6304

> <s_m_entry_name>
wee1_decoys_glide_SP.6029

> <s_m_subgroup_title>
wee1_decoys_glide_SP

> <s_m_subgroupid>
wee1_decoys_glide_SP


$$$$
