ZINC25149017_1182
                    3D
 Schrodinger Suite 2024-2.
 65 68  0  0  1  0            999 V2000
    5.3382   54.4565   27.1745 C   0  0  0  0  0  0
    4.2130   54.1951   26.1773 C   0  0  0  0  0  0
    4.4682   54.4030   24.8195 C   0  0  0  0  0  0
    3.5081   54.0847   23.8418 C   0  0  0  0  0  0
    2.2656   53.6047   24.2497 C   0  0  0  0  0  0
    1.9986   53.4075   25.6031 C   0  0  0  0  0  0
    2.9588   53.6987   26.5796 C   0  0  0  0  0  0
    2.6332   53.4884   27.9078 N   0  0  0  0  0  0
    2.6110   54.5619   28.9143 C   0  0  0  0  0  0
    1.3735   54.5234   29.8390 C   0  0  0  0  0  0
    1.2140   53.0996   30.4166 N   0  3  0  0  0  0
    1.0625   52.1025   29.2542 C   0  0  0  0  0  0
    2.3542   52.1452   28.4329 C   0  0  0  0  0  0
   -0.0306   53.0173   31.3176 C   0  0  0  0  0  0
    3.7215   54.2041   22.4550 N   0  0  0  0  0  0
    4.9060   54.2152   21.8069 C   0  0  0  0  0  0
    5.9917   54.0768   22.3706 O   0  0  0  0  0  0
    4.8639   54.4483   20.2819 C   0  0  2  0  0  0
    3.8978   54.9024   20.0654 H   0  0  0  0  0  0
    4.9751   53.1070   19.5071 C   0  0  0  0  0  0
    5.0086   53.3997   17.9812 C   0  0  0  0  0  0
    6.1095   54.4056   17.5936 C   0  0  0  0  0  0
    6.0097   55.6156   18.4331 N   0  0  0  0  0  0
    6.0178   55.4149   19.8962 C   0  0  0  0  0  0
    6.1874   57.2197   17.7099 S   0  0  0  0  0  0
    6.3056   58.2008   18.7944 O   0  0  0  0  0  0
    7.1987   57.1347   16.6508 O   0  0  0  0  0  0
    4.6269   57.5376   16.8892 C   0  0  0  0  0  0
    3.5049   56.7384   17.1318 C   0  0  0  0  0  0
    2.3057   57.0130   16.4806 C   0  0  0  0  0  0
    2.2236   58.0950   15.6055 C   0  0  0  0  0  0
    3.3377   58.8963   15.3672 C   0  0  0  0  0  0
    4.5426   58.6147   16.0076 C   0  0  0  0  0  0
    0.7263   58.4524   14.8260 Cl  0  0  0  0  0  0
    6.2923   54.6581   26.6888 H   0  0  0  0  0  0
    5.1011   55.2969   27.8226 H   0  0  0  0  0  0
    5.4807   53.5850   27.8126 H   0  0  0  0  0  0
    5.4313   54.8008   24.5408 H   0  0  0  0  0  0
    1.5053   53.3587   23.5236 H   0  0  0  0  0  0
    1.0308   53.0228   25.8942 H   0  0  0  0  0  0
    2.7054   55.5412   28.4402 H   0  0  0  0  0  0
    3.5142   54.4039   29.5075 H   0  0  0  0  0  0
    1.5008   55.1967   30.6883 H   0  0  0  0  0  0
    0.4527   54.7711   29.3029 H   0  0  0  0  0  0
    0.9290   51.1128   29.6815 H   0  0  0  0  0  0
    0.1777   52.3657   28.6698 H   0  0  0  0  0  0
    3.2134   51.8710   29.0444 H   0  0  0  0  0  0
    2.3051   51.3996   27.6437 H   0  0  0  0  0  0
   -0.8954   53.2679   30.7076 H   0  0  0  0  0  0
   -0.0955   51.9914   31.6820 H   0  0  0  0  0  0
    0.0993   53.7140   32.1472 H   0  0  0  0  0  0
    2.8911   54.2276   21.8814 H   0  0  0  0  0  0
    5.9039   52.5853   19.7248 H   0  0  0  0  0  0
    4.1142   52.4592   19.6834 H   0  0  0  0  0  0
    5.1645   52.4963   17.4059 H   0  0  0  0  0  0
    4.0374   53.7714   17.6563 H   0  0  0  0  0  0
    7.0921   53.9617   17.7570 H   0  0  0  0  0  0
    6.0521   54.6841   16.5414 H   0  0  0  0  0  0
    5.9211   56.3865   20.3836 H   0  0  0  0  0  0
    6.9936   54.9782   20.1240 H   0  0  0  0  0  0
    3.5331   55.9220   17.8346 H   0  0  0  0  0  0
    1.4343   56.4070   16.6737 H   0  0  0  0  0  0
    3.2674   59.7556   14.7139 H   0  0  0  0  0  0
    5.3969   59.2582   15.8465 H   0  0  0  0  0  0
    2.0327   52.8504   30.9559 H   0  0  0  0  0  0
  1  2  1  0  0  0
  1 35  1  0  0  0
  1 36  1  0  0  0
  1 37  1  0  0  0
  2  7  2  0  0  0
  2  3  1  0  0  0
  3  4  2  0  0  0
  3 38  1  0  0  0
  4  5  1  0  0  0
  4 15  1  0  0  0
  5  6  2  0  0  0
  5 39  1  0  0  0
  6  7  1  0  0  0
  6 40  1  0  0  0
  7  8  1  0  0  0
  8 13  1  0  0  0
  8  9  1  0  0  0
  9 10  1  0  0  0
  9 41  1  0  0  0
  9 42  1  0  0  0
 10 11  1  0  0  0
 10 43  1  0  0  0
 10 44  1  0  0  0
 11 12  1  0  0  0
 11 14  1  0  0  0
 11 65  1  0  0  0
 12 13  1  0  0  0
 12 45  1  0  0  0
 12 46  1  0  0  0
 13 47  1  0  0  0
 13 48  1  0  0  0
 14 49  1  0  0  0
 14 50  1  0  0  0
 14 51  1  0  0  0
 15 16  1  0  0  0
 15 52  1  0  0  0
 16 17  2  0  0  0
 16 18  1  0  0  0
 18 19  1  0  0  0
 18 24  1  0  0  0
 18 20  1  0  0  0
 20 21  1  0  0  0
 20 53  1  0  0  0
 20 54  1  0  0  0
 21 22  1  0  0  0
 21 55  1  0  0  0
 21 56  1  0  0  0
 22 23  1  0  0  0
 22 57  1  0  0  0
 22 58  1  0  0  0
 23 24  1  0  0  0
 23 25  1  0  0  0
 24 59  1  0  0  0
 24 60  1  0  0  0
 25 26  2  0  0  0
 25 27  2  0  0  0
 25 28  1  0  0  0
 28 33  2  0  0  0
 28 29  1  0  0  0
 29 30  2  0  0  0
 29 61  1  0  0  0
 30 31  1  0  0  0
 30 62  1  0  0  0
 31 32  2  0  0  0
 31 34  1  0  0  0
 32 33  1  0  0  0
 32 63  1  0  0  0
 33 64  1  0  0  0
M  CHG  1  11   1
M  END
> <i_i_glide_confnum>
3

> <i_i_glide_lignum>
1183

> <i_i_glide_posenum>
379

> <i_i_glide_rotatable_bonds>
6

> <i_m_Source_File_Index>
4182

> <b_m_subgroup_collapsed>
0

> <r_i_docking_score>
-3.46422

> <r_i_glide_ecoul>
-2.97674

> <r_i_glide_eff_state_penalty>
0

> <r_i_glide_einternal>
4.69942

> <r_i_glide_emodel>
-45.2197

> <r_i_glide_energy>
-42.4234

> <r_i_glide_erotb>
0.504594

> <r_i_glide_esite>
-0.058814

> <r_i_glide_evdw>
-39.4467

> <r_i_glide_gscore>
-3.46422

> <r_i_glide_hbond>
0

> <r_i_glide_ligand_efficiency>
-0.104976

> <r_i_glide_ligand_efficiency_ln>
-0.770424

> <r_i_glide_ligand_efficiency_sa>
-0.336715

> <r_i_glide_lipo>
-2.63739

> <r_i_glide_metal>
0

> <r_i_glide_rewards>
1.14624

> <s_i_glide_gridfile>
wee1_glide-grid

> <s_m_Source_File>
wee1_decoys_glide_SP.sdf

> <s_m_Source_Path>
/Users/zhangxujun/Desktop

> <s_m_entry_id>
4457

> <s_m_entry_name>
wee1_decoys_glide_SP.4182

> <s_m_subgroup_title>
wee1_decoys_glide_SP

> <s_m_subgroupid>
wee1_decoys_glide_SP


$$$$
