ZINC14484610_70
                    3D
 Schrodinger Suite 2024-2.
 56 59  0  0  1  0            999 V2000
   -2.5407   50.0175   25.6491 C   0  0  0  0  0  0
   -1.5322   50.1763   24.5187 C   0  0  0  0  0  0
   -1.9163   50.8354   23.3455 C   0  0  0  0  0  0
   -1.0132   50.9993   22.2952 C   0  0  0  0  0  0
    0.2879   50.5096   22.4124 C   0  0  0  0  0  0
    0.6790   49.8482   23.5814 C   0  0  0  0  0  0
   -0.2244   49.6740   24.6353 C   0  0  0  0  0  0
    0.2254   48.9294   25.8850 C   0  0  0  0  0  0
    1.4633   50.7638   21.0840 S   0  0  0  0  0  0
    0.7564   50.4861   19.8298 O   0  0  0  0  0  0
    2.7044   50.0691   21.4403 O   0  0  0  0  0  0
    1.8187   52.4967   21.0728 N   0  0  0  0  0  0
    2.5537   53.0913   22.0979 C   0  0  0  0  0  0
    3.8387   53.5825   21.8621 C   0  0  0  0  0  0
    4.5909   54.0956   22.9200 C   0  0  0  0  0  0
    4.0565   54.1026   24.2142 C   0  0  0  0  0  0
    2.7276   53.6974   24.4154 C   0  0  0  0  0  0
    1.9834   53.1917   23.3629 C   0  0  0  0  0  0
    4.9122   54.4667   25.3991 C   0  0  0  0  0  0
    5.7215   55.3932   25.3752 O   0  0  0  0  0  0
    4.6936   53.6412   26.4359 N   0  0  0  0  0  0
    5.0880   53.6429   27.8382 C   0  0  1  0  0  0
    5.5028   52.6431   27.9866 H   0  0  0  0  0  0
    6.2005   54.6185   28.2285 C   0  0  0  0  0  0
    3.8422   53.7651   28.7149 C   0  0  0  0  0  0
    2.9089   54.8003   28.4888 C   0  0  0  0  0  0
    1.7164   54.8772   29.2171 C   0  0  0  0  0  0
    1.4793   53.8847   30.1584 C   0  0  0  0  0  0
    2.3816   52.8866   30.3970 C   0  0  0  0  0  0
    3.5822   52.7979   29.7015 C   0  0  0  0  0  0
    1.9259   52.0967   31.4020 O   0  0  0  0  0  0
    0.6181   52.5331   31.6703 C   0  0  0  0  0  0
    0.4296   53.7583   31.0105 O   0  0  0  0  0  0
   -2.1394   50.4310   26.5751 H   0  0  0  0  0  0
   -3.4857   50.5207   25.4404 H   0  0  0  0  0  0
   -2.7435   48.9615   25.8322 H   0  0  0  0  0  0
   -2.9200   51.2216   23.2439 H   0  0  0  0  0  0
   -1.3207   51.5100   21.3944 H   0  0  0  0  0  0
    1.6868   49.4664   23.6747 H   0  0  0  0  0  0
   -0.4510   48.0967   26.0823 H   0  0  0  0  0  0
    1.2310   48.5184   25.7909 H   0  0  0  0  0  0
    0.1958   49.5811   26.7599 H   0  0  0  0  0  0
    1.5028   53.0677   20.3023 H   0  0  0  0  0  0
    4.2673   53.5270   20.8718 H   0  0  0  0  0  0
    5.6052   54.4242   22.7394 H   0  0  0  0  0  0
    2.2731   53.7276   25.3962 H   0  0  0  0  0  0
    0.9743   52.8542   23.5443 H   0  0  0  0  0  0
    4.1234   52.8426   26.1980 H   0  0  0  0  0  0
    6.4586   54.4954   29.2794 H   0  0  0  0  0  0
    7.1053   54.4464   27.6454 H   0  0  0  0  0  0
    5.9045   55.6559   28.0808 H   0  0  0  0  0  0
    3.1013   55.5385   27.7264 H   0  0  0  0  0  0
    1.0145   55.6781   29.0421 H   0  0  0  0  0  0
    4.2834   52.0004   29.8987 H   0  0  0  0  0  0
   -0.0996   51.8063   31.2818 H   0  0  0  0  0  0
    0.4654   52.6515   32.7445 H   0  0  0  0  0  0
  1  2  1  0  0  0
  1 34  1  0  0  0
  1 35  1  0  0  0
  1 36  1  0  0  0
  2  7  2  0  0  0
  2  3  1  0  0  0
  3  4  2  0  0  0
  3 37  1  0  0  0
  4  5  1  0  0  0
  4 38  1  0  0  0
  5  6  2  0  0  0
  5  9  1  0  0  0
  6  7  1  0  0  0
  6 39  1  0  0  0
  7  8  1  0  0  0
  8 40  1  0  0  0
  8 41  1  0  0  0
  8 42  1  0  0  0
  9 10  2  0  0  0
  9 11  2  0  0  0
  9 12  1  0  0  0
 12 13  1  0  0  0
 12 43  1  0  0  0
 13 18  2  0  0  0
 13 14  1  0  0  0
 14 15  2  0  0  0
 14 44  1  0  0  0
 15 16  1  0  0  0
 15 45  1  0  0  0
 16 17  2  0  0  0
 16 19  1  0  0  0
 17 18  1  0  0  0
 17 46  1  0  0  0
 18 47  1  0  0  0
 19 20  2  0  0  0
 19 21  1  0  0  0
 21 22  1  0  0  0
 21 48  1  0  0  0
 22 23  1  0  0  0
 22 24  1  0  0  0
 22 25  1  0  0  0
 24 49  1  0  0  0
 24 50  1  0  0  0
 24 51  1  0  0  0
 25 30  2  0  0  0
 25 26  1  0  0  0
 26 27  2  0  0  0
 26 52  1  0  0  0
 27 28  1  0  0  0
 27 53  1  0  0  0
 28 33  1  0  0  0
 28 29  2  0  0  0
 29 30  1  0  0  0
 29 31  1  0  0  0
 30 54  1  0  0  0
 31 32  1  0  0  0
 32 33  1  0  0  0
 32 55  1  0  0  0
 32 56  1  0  0  0
M  END
> <i_i_glide_confnum>
110

> <i_i_glide_lignum>
71

> <i_i_glide_posenum>
151

> <i_i_glide_rotatable_bonds>
7

> <i_m_Source_File_Index>
1117

> <b_m_subgroup_collapsed>
0

> <r_i_docking_score>
-6.03005

> <r_i_glide_ecoul>
-6.01

> <r_i_glide_eff_state_penalty>
0

> <r_i_glide_einternal>
14.6194

> <r_i_glide_emodel>
-66.8364

> <r_i_glide_energy>
-53.4128

> <r_i_glide_erotb>
0.587929

> <r_i_glide_esite>
-0.137286

> <r_i_glide_evdw>
-47.4028

> <r_i_glide_gscore>
-6.03005

> <r_i_glide_hbond>
-0.272659

> <r_i_glide_ligand_efficiency>
-0.188439

> <r_i_glide_ligand_efficiency_ln>
-1.35029

> <r_i_glide_ligand_efficiency_sa>
-0.598257

> <r_i_glide_lipo>
-2.63681

> <r_i_glide_metal>
0

> <r_i_glide_rewards>
-0.29958

> <s_i_glide_gridfile>
wee1_glide-grid

> <s_m_Source_File>
wee1_decoys_glide_SP.sdf

> <s_m_Source_Path>
/Users/zhangxujun/Desktop

> <s_m_entry_id>
1392

> <s_m_entry_name>
wee1_decoys_glide_SP.1117

> <s_m_subgroup_title>
wee1_decoys_glide_SP

> <s_m_subgroupid>
wee1_decoys_glide_SP


$$$$
