@<TRIPOS>MOLECULE
ZINC09281079_4163
63   66    1
SMALL
USER_CHARGES


@<TRIPOS>ATOM
      1 C1          2.0308   52.1353   30.3743 C.3       1 UNK         0.0000 
      2 C2          0.9073   53.0364   29.8044 C.3       1 UNK         0.0000 
      3 C3         -0.4532   52.3972   30.1831 C.3       1 UNK         0.0000 
      4 C4          0.9745   54.4168   30.5075 C.3       1 UNK         0.0000 
      5 C5          1.0383   53.2292   28.2443 C.3       1 UNK         0.0000 
      6 H6          0.3617   54.0445   27.9934 H         1 UNK         0.0000 
      7 C7          0.6838   51.9722   27.4016 C.3       1 UNK         0.0000 
      8 C8          0.5387   52.3040   25.9053 C.3       1 UNK         0.0000 
      9 C9          1.7792   53.0663   25.4209 C.2       1 UNK         0.0000 
     10 C10         2.6328   53.6966   26.3320 C.2       1 UNK         0.0000 
     11 S11         4.0118   54.3909   25.5671 S.3       1 UNK         0.0000 
     12 C12         3.4954   53.8116   24.0042 C.2       1 UNK         0.0000 
     13 C13         2.2674   53.1161   24.0898 C.2       1 UNK         0.0000 
     14 C14         1.5283   52.5703   22.9655 C.2       1 UNK         0.0000 
     15 O15         0.2972   52.6015   22.9219 O.2       1 UNK         0.0000 
     16 N16         2.2876   52.0001   22.0108 N.am      1 UNK         0.0000 
     17 C17         1.7792   51.3670   20.7951 C.3       1 UNK         0.0000 
     18 H18         1.2995   52.0921   20.1331 H         1 UNK         0.0000 
     19 C19         2.9677   50.7504   20.0276 C.3       1 UNK         0.0000 
     20 C20         2.4326   49.8676   18.8941 C.3       1 UNK         0.0000 
     21 S21         0.9206   49.0459   19.6136 S.o2      1 UNK         0.0000 
     22 O22         1.2521   47.6968   20.0812 O.2       1 UNK         0.0000 
     23 O23        -0.2172   49.2755   18.7199 O.2       1 UNK         0.0000 
     24 C24         0.8161   50.1955   21.0864 C.3       1 UNK         0.0000 
     25 N25         4.2196   54.0973   22.8440 N.am      1 UNK         0.0000 
     26 C26         5.5247   54.4390   22.7485 C.2       1 UNK         0.0000 
     27 O27         6.3220   54.4690   23.6879 O.2       1 UNK         0.0000 
     28 C28         5.8972   54.8002   21.4045 C.2       1 UNK         0.0000 
     29 C29         7.1139   55.2969   21.1002 C.2       1 UNK         0.0000 
     30 C30         7.5496   55.7047   19.7844 C.2       1 UNK         0.0000 
     31 C31         8.7341   56.2604   19.3223 C.2       1 UNK         0.0000 
     32 C32         8.6019   56.4565   17.9465 C.2       1 UNK         0.0000 
     33 C33         7.3339   56.0140   17.6197 C.2       1 UNK         0.0000 
     34 O34         6.6979   55.5608   18.7296 O.3       1 UNK         0.0000 
     35 C35         2.4635   53.7267   27.8422 C.3       1 UNK         0.0000 
     36 H36         2.9747   52.6662   30.4854 H         1 UNK         0.0000 
     37 H37         1.7827   51.7295   31.3564 H         1 UNK         0.0000 
     38 H38         2.2199   51.2967   29.7059 H         1 UNK         0.0000 
     39 H39        -1.2888   52.8906   29.6828 H         1 UNK         0.0000 
     40 H40        -0.4999   51.3352   29.9270 H         1 UNK         0.0000 
     41 H41        -0.6326   52.4555   31.2580 H         1 UNK         0.0000 
     42 H42         0.2565   55.1169   30.0841 H         1 UNK         0.0000 
     43 H43         0.7531   54.3383   31.5753 H         1 UNK         0.0000 
     44 H44         1.9535   54.8833   30.4145 H         1 UNK         0.0000 
     45 H45         1.3903   51.1601   27.5825 H         1 UNK         0.0000 
     46 H46        -0.2760   51.5595   27.7134 H         1 UNK         0.0000 
     47 H47        -0.3649   52.8908   25.7242 H         1 UNK         0.0000 
     48 H48         0.4003   51.3772   25.3472 H         1 UNK         0.0000 
     49 H49         3.2880   51.9821   22.1426 H         1 UNK         0.0000 
     50 H50         3.5713   50.1426   20.7045 H         1 UNK         0.0000 
     51 H51         3.6453   51.5166   19.6471 H         1 UNK         0.0000 
     52 H52         3.1011   49.1113   18.4828 H         1 UNK         0.0000 
     53 H53         2.1091   50.5063   18.0690 H         1 UNK         0.0000 
     54 H54        -0.2051   50.4078   21.4067 H         1 UNK         0.0000 
     55 H55         1.2739   49.6066   21.8818 H         1 UNK         0.0000 
     56 H56         3.7190   53.9747   21.9771 H         1 UNK         0.0000 
     57 H57         5.1515   54.6759   20.6313 H         1 UNK         0.0000 
     58 H58         7.8651   55.4294   21.8711 H         1 UNK         0.0000 
     59 H59         9.6013   56.4953   19.9198 H         1 UNK         0.0000 
     60 H60         9.3396   56.8695   17.2762 H         1 UNK         0.0000 
     61 H61         6.7762   55.9621   16.6954 H         1 UNK         0.0000 
     62 H62         3.2317   53.0775   28.2588 H         1 UNK         0.0000 
     63 H63         2.6389   54.7336   28.2201 H         1 UNK         0.0000 
@<TRIPOS>BOND
     1    1    2 1    
     2    1   36 1    
     3    1   37 1    
     4    1   38 1    
     5    2    3 1    
     6    2    4 1    
     7    2    5 1    
     8    3   39 1    
     9    3   40 1    
    10    3   41 1    
    11    4   42 1    
    12    4   43 1    
    13    4   44 1    
    14    5    6 1    
    15    5   35 1    
    16    5    7 1    
    17    7    8 1    
    18    7   45 1    
    19    7   46 1    
    20    8    9 1    
    21    8   47 1    
    22    8   48 1    
    23    9   13 1    
    24    9   10 2    
    25   10   11 1    
    26   10   35 1    
    27   11   12 1    
    28   12   13 2    
    29   12   25 am   BACKBONE|DICT|INTERRES
    30   13   14 1    
    31   14   15 2    
    32   14   16 am   BACKBONE|DICT|INTERRES
    33   16   17 1    
    34   16   49 1    
    35   17   18 1    
    36   17   24 1    
    37   17   19 1    
    38   19   20 1    
    39   19   50 1    
    40   19   51 1    
    41   20   21 1    
    42   20   52 1    
    43   20   53 1    
    44   21   22 2    
    45   21   23 2    
    46   21   24 1    
    47   24   54 1    
    48   24   55 1    
    49   25   26 am   BACKBONE|DICT|INTERRES
    50   25   56 1    
    51   26   27 2    
    52   26   28 1    
    53   28   29 2    
    54   28   57 1    
    55   29   30 1    
    56   29   58 1    
    57   30   34 1    
    58   30   31 2    
    59   31   32 1    
    60   31   59 1    
    61   32   33 2    
    62   32   60 1    
    63   33   34 1    
    64   33   61 1    
    65   35   62 1    
    66   35   63 1    
@<TRIPOS>SUBSTRUCTURE
     1 UNK         1 GROUP             0       ****    0 ROOT    
