@<TRIPOS>MOLECULE
ZINC16039182_1124
63   69    1
SMALL
USER_CHARGES


@<TRIPOS>ATOM
      1 C1          1.7679   50.6739   18.0615 C.ar      1 UNK         0.0000 
      2 C2          1.4335   51.9824   18.3889 C.ar      1 UNK         0.0000 
      3 C3          0.5189   52.2234   19.4074 C.ar      1 UNK         0.0000 
      4 C4         -0.0522   51.1596   20.1198 C.ar      1 UNK         0.0000 
      5 C5          0.2546   49.8421   19.7468 C.ar      1 UNK         0.0000 
      6 C6          1.1720   49.6026   18.7245 C.ar      1 UNK         0.0000 
      7 C7         -0.9728   51.4675   21.2569 C.2       1 UNK         0.0000 
      8 O8         -1.6461   52.4959   21.3004 O.2       1 UNK         0.0000 
      9 C9         -0.9030   50.5563   22.5282 C.3       1 UNK         0.0000 
     10 H10        -0.3244   49.6740   22.2651 H         1 UNK         0.0000 
     11 C11        -0.2175   51.2711   23.7587 C.3       1 UNK         0.0000 
     12 H12         0.3296   50.5369   24.3494 H         1 UNK         0.0000 
     13 C13        -1.2074   51.3908   26.0909 C.2       1 UNK         0.0000 
     14 C14        -2.2487   51.0000   26.8416 C.2       1 UNK         0.0000 
     15 C15        -3.6243   50.9656   26.3512 C.ar      1 UNK         0.0000 
     16 C16        -4.6742   50.8030   27.2589 C.ar      1 UNK         0.0000 
     17 C17        -5.9935   50.8384   26.8138 C.ar      1 UNK         0.0000 
     18 C18        -6.2642   51.0525   25.4651 C.ar      1 UNK         0.0000 
     19 C19        -5.2137   51.2180   24.5631 C.ar      1 UNK         0.0000 
     20 C20        -3.8783   51.1692   24.9847 C.ar      1 UNK         0.0000 
     21 C21        -2.7068   51.3060   23.9855 C.3       1 UNK         0.0000 
     22 H22        -2.9440   52.1808   23.3782 H         1 UNK         0.0000 
     23 C23        -2.3005   50.0831   23.0955 C.3       1 UNK         0.0000 
     24 C24        -2.3150   48.7867   23.8846 C.ar      1 UNK         0.0000 
     25 C25        -1.5010   48.3073   24.9156 C.ar      1 UNK         0.0000 
     26 C26        -1.8876   47.1744   25.6312 C.ar      1 UNK         0.0000 
     27 C27        -3.0614   46.4967   25.3032 C.ar      1 UNK         0.0000 
     28 C28        -3.8325   46.9205   24.2208 C.ar      1 UNK         0.0000 
     29 C29        -3.4409   48.0648   23.5279 C.ar      1 UNK         0.0000 
     30 N30        -4.0597   48.6774   22.4595 N.am      1 UNK         0.0000 
     31 C31        -3.4387   49.7978   22.0627 C.2       1 UNK         0.0000 
     32 O32        -3.7846   50.4966   21.1142 O.2       1 UNK         0.0000 
     33 C33         0.7526   52.4875   23.5560 C.2       1 UNK         0.0000 
     34 O34         0.4689   53.5689   24.0798 O.2       1 UNK         0.0000 
     35 C35         1.9766   52.3356   22.7014 C.ar      1 UNK         0.0000 
     36 C36         2.3687   51.1011   22.1656 C.ar      1 UNK         0.0000 
     37 C37         3.4418   51.0325   21.2810 C.ar      1 UNK         0.0000 
     38 C38         4.1682   52.1760   20.9692 C.ar      1 UNK         0.0000 
     39 C39         3.8304   53.3976   21.5413 C.ar      1 UNK         0.0000 
     40 C40         2.7380   53.4771   22.4008 C.ar      1 UNK         0.0000 
     41 H41         2.4939   50.4973   17.2804 H         1 UNK         0.0000 
     42 H42         1.8971   52.8082   17.8688 H         1 UNK         0.0000 
     43 H43         0.3045   53.2515   19.6640 H         1 UNK         0.0000 
     44 H44        -0.1944   48.9944   20.2438 H         1 UNK         0.0000 
     45 H45         1.4322   48.5912   18.4475 H         1 UNK         0.0000 
     46 H46        -0.1995   51.4275   26.4805 H         1 UNK         0.0000 
     47 H47        -2.0494   50.6694   27.8535 H         1 UNK         0.0000 
     48 H48        -4.4712   50.6473   28.3095 H         1 UNK         0.0000 
     49 H49        -6.8044   50.7064   27.5154 H         1 UNK         0.0000 
     50 H50        -7.2858   51.0883   25.1161 H         1 UNK         0.0000 
     51 H51        -5.4449   51.3794   23.5203 H         1 UNK         0.0000 
     52 H52        -0.6164   48.8305   25.2397 H         1 UNK         0.0000 
     53 H53        -1.2980   46.8611   26.4810 H         1 UNK         0.0000 
     54 H54        -3.3753   45.6574   25.9049 H         1 UNK         0.0000 
     55 H55        -4.7371   46.3904   23.9638 H         1 UNK         0.0000 
     56 H56        -4.8591   48.3031   21.9727 H         1 UNK         0.0000 
     57 H57         1.8352   50.1888   22.3837 H         1 UNK         0.0000 
     58 H58         3.6999   50.0966   20.8157 H         1 UNK         0.0000 
     59 H59         4.9894   52.1131   20.2685 H         1 UNK         0.0000 
     60 H60         4.3925   54.2865   21.2946 H         1 UNK         0.0000 
     61 H61         2.4724   54.4475   22.7979 H         1 UNK         0.0000 
     62 N62        -1.3770   51.7585   24.6698 N.4       1 UNK         0.0000 
     63 H63        -1.3527   52.7702   24.6219 H         1 UNK         0.0000 
@<TRIPOS>BOND
     1    1    6 ar   
     2    1    2 ar   
     3    1   41 1    
     4    2    3 ar   
     5    2   42 1    
     6    3    4 ar   
     7    3   43 1    
     8    4    5 ar   
     9    4    7 1    
    10    5    6 ar   
    11    5   44 1    
    12    6   45 1    
    13    7    8 2    
    14    7    9 1    
    15    9   10 1    
    16    9   23 1    
    17    9   11 1    
    18   11   12 1    
    19   11   33 1    
    20   11   62 1    
    21   13   14 2    
    22   13   46 1    
    23   13   62 1    
    24   14   15 1    
    25   14   47 1    
    26   15   20 ar   
    27   15   16 ar   
    28   16   17 ar   
    29   16   48 1    
    30   17   18 ar   
    31   17   49 1    
    32   18   19 ar   
    33   18   50 1    
    34   19   20 ar   
    35   19   51 1    
    36   20   21 1    
    37   21   22 1    
    38   21   23 1    
    39   21   62 1    
    40   23   31 1    
    41   23   24 1    
    42   24   29 ar   
    43   24   25 ar   
    44   25   26 ar   
    45   25   52 1    
    46   26   27 ar   
    47   26   53 1    
    48   27   28 ar   
    49   27   54 1    
    50   28   29 ar   
    51   28   55 1    
    52   29   30 1    
    53   30   31 am   BACKBONE|DICT|INTERRES
    54   30   56 1    
    55   31   32 2    
    56   33   34 2    
    57   33   35 1    
    58   35   40 ar   
    59   35   36 ar   
    60   36   37 ar   
    61   36   57 1    
    62   37   38 ar   
    63   37   58 1    
    64   38   39 ar   
    65   38   59 1    
    66   39   40 ar   
    67   39   60 1    
    68   40   61 1    
    69   62   63 1    
@<TRIPOS>SUBSTRUCTURE
     1 UNK         1 GROUP             0       ****    0 ROOT    
