@<TRIPOS>MOLECULE
ZINC22405238_4380
54   56    1
SMALL
USER_CHARGES


@<TRIPOS>ATOM
      1 C1         -0.5223   52.2302   29.5339 C.3       1 UNK         0.0000 
      2 C2         -0.4277   51.5310   28.1602 C.3       1 UNK         0.0000 
      3 H3         -0.1240   50.4971   28.3377 H         1 UNK         0.0000 
      4 C4         -1.8015   51.4888   27.4472 C.3       1 UNK         0.0000 
      5 C5         -1.7432   50.7014   26.1227 C.3       1 UNK         0.0000 
      6 C6         -0.6580   51.2613   25.1807 C.3       1 UNK         0.0000 
      7 C7          0.7050   51.3555   25.8921 C.3       1 UNK         0.0000 
      8 C8          0.6089   52.1779   27.2007 C.3       1 UNK         0.0000 
      9 H9          0.3223   53.2089   26.9909 H         1 UNK         0.0000 
     10 N10         1.9331   52.1123   27.8571 N.pl3     1 UNK         0.0000 
     11 S11         2.8279   53.5460   28.3604 S.o2      1 UNK         0.0000 
     12 O12         3.6469   53.1187   29.5004 O.2       1 UNK         0.0000 
     13 O13         1.8662   54.6477   28.4877 O.2       1 UNK         0.0000 
     14 C14         3.9035   53.9555   26.9695 C.ar      1 UNK         0.0000 
     15 C15         3.3351   53.9831   25.6918 C.ar      1 UNK         0.0000 
     16 C16         4.1159   54.2062   24.5492 C.ar      1 UNK         0.0000 
     17 C17         5.4772   54.4952   24.7195 C.ar      1 UNK         0.0000 
     18 C18         6.0471   54.4881   25.9851 C.ar      1 UNK         0.0000 
     19 C19         5.2807   54.1904   27.1231 C.ar      1 UNK         0.0000 
     20 O20         5.8445   54.1308   28.3791 O.3       1 UNK         0.0000 
     21 C21         7.2160   53.7624   28.4789 C.3       1 UNK         0.0000 
     22 C22         3.4964   54.0830   23.1749 C.2       1 UNK         0.0000 
     23 O23         2.2717   54.0986   23.0346 O.2       1 UNK         0.0000 
     24 N24         4.3700   53.8871   22.1635 N.am      1 UNK         0.0000 
     25 C25         4.0488   53.6093   20.8317 C.ar      1 UNK         0.0000 
     26 C26         4.5588   54.4757   19.8591 C.ar      1 UNK         0.0000 
     27 C27         4.3072   54.2425   18.5079 C.ar      1 UNK         0.0000 
     28 C28         3.5717   53.1244   18.1196 C.ar      1 UNK         0.0000 
     29 C29         3.1010   52.2308   19.0807 C.ar      1 UNK         0.0000 
     30 C30         3.3433   52.4553   20.4370 C.ar      1 UNK         0.0000 
     31 Br31        2.7695   51.1231   21.6806 Br        1 UNK         0.0000 
     32 H32        -0.7800   53.2842   29.4358 H         1 UNK         0.0000 
     33 H33        -1.2747   51.7538   30.1646 H         1 UNK         0.0000 
     34 H34         0.4202   52.1737   30.0795 H         1 UNK         0.0000 
     35 H35        -2.5410   51.0353   28.1096 H         1 UNK         0.0000 
     36 H36        -2.1663   52.4993   27.2610 H         1 UNK         0.0000 
     37 H37        -2.7153   50.7233   25.6298 H         1 UNK         0.0000 
     38 H38        -1.5349   49.6518   26.3372 H         1 UNK         0.0000 
     39 H39        -0.9528   52.2505   24.8254 H         1 UNK         0.0000 
     40 H40        -0.5728   50.6314   24.2941 H         1 UNK         0.0000 
     41 H41         1.4411   51.7819   25.2116 H         1 UNK         0.0000 
     42 H42         1.0675   50.3479   26.1132 H         1 UNK         0.0000 
     43 H43         2.2373   51.2080   28.2241 H         1 UNK         0.0000 
     44 H44         2.2763   53.7974   25.5871 H         1 UNK         0.0000 
     45 H45         6.1239   54.7070   23.8806 H         1 UNK         0.0000 
     46 H46         7.1019   54.6965   26.0538 H         1 UNK         0.0000 
     47 H47         7.5075   53.6966   29.5217 H         1 UNK         0.0000 
     48 H48         7.3926   52.7898   28.0189 H         1 UNK         0.0000 
     49 H49         7.8873   54.4964   28.0323 H         1 UNK         0.0000 
     50 H50         5.3471   54.0283   22.3561 H         1 UNK         0.0000 
     51 H51         5.1347   55.3435   20.1438 H         1 UNK         0.0000 
     52 H52         4.6878   54.9227   17.7606 H         1 UNK         0.0000 
     53 H53         3.3919   52.9301   17.0724 H         1 UNK         0.0000 
     54 H54         2.5766   51.3405   18.7662 H         1 UNK         0.0000 
@<TRIPOS>BOND
     1    1    2 1    
     2    1   32 1    
     3    1   33 1    
     4    1   34 1    
     5    2    3 1    
     6    2    8 1    
     7    2    4 1    
     8    4    5 1    
     9    4   35 1    
    10    4   36 1    
    11    5    6 1    
    12    5   37 1    
    13    5   38 1    
    14    6    7 1    
    15    6   39 1    
    16    6   40 1    
    17    7    8 1    
    18    7   41 1    
    19    7   42 1    
    20    8    9 1    
    21    8   10 1    
    22   10   11 1    
    23   10   43 1    
    24   11   12 2    
    25   11   13 2    
    26   11   14 1    
    27   14   19 ar   
    28   14   15 ar   
    29   15   16 ar   
    30   15   44 1    
    31   16   17 ar   
    32   16   22 1    
    33   17   18 ar   
    34   17   45 1    
    35   18   19 ar   
    36   18   46 1    
    37   19   20 1    
    38   20   21 1    
    39   21   47 1    
    40   21   48 1    
    41   21   49 1    
    42   22   23 2    
    43   22   24 am   BACKBONE|DICT|INTERRES
    44   24   25 1    
    45   24   50 1    
    46   25   30 ar   
    47   25   26 ar   
    48   26   27 ar   
    49   26   51 1    
    50   27   28 ar   
    51   27   52 1    
    52   28   29 ar   
    53   28   53 1    
    54   29   30 ar   
    55   29   54 1    
    56   30   31 1    
@<TRIPOS>SUBSTRUCTURE
     1 UNK         1 GROUP             0       ****    0 ROOT    
