@<TRIPOS>MOLECULE
ZINC39636402_2156
69   72    1
SMALL
USER_CHARGES


@<TRIPOS>ATOM
      1 C1         -6.0023   49.2346   29.9943 C.3       1 UNK         0.0000 
      2 C2         -5.4492   50.1270   28.8985 C.ar      1 UNK         0.0000 
      3 C3         -4.0874   50.4162   28.8562 C.ar      1 UNK         0.0000 
      4 C4         -3.5692   51.2121   27.8380 C.ar      1 UNK         0.0000 
      5 C5         -4.4055   51.7336   26.8406 C.ar      1 UNK         0.0000 
      6 C6         -5.7857   51.4434   26.8795 C.ar      1 UNK         0.0000 
      7 C7         -6.2912   50.6394   27.9088 C.ar      1 UNK         0.0000 
      8 C8         -6.7549   51.9699   25.8249 C.3       1 UNK         0.0000 
      9 C9         -3.8059   52.6058   25.7642 C.2       1 UNK         0.0000 
     10 O10        -4.0972   53.8038   25.7392 O.2       1 UNK         0.0000 
     11 N11        -2.9558   52.0410   24.8698 N.am      1 UNK         0.0000 
     12 C12        -2.2292   52.8518   23.8899 C.3       1 UNK         0.0000 
     13 C13        -1.2624   51.8331   23.2398 C.3       1 UNK         0.0000 
     14 H14        -1.7391   51.5285   22.3062 H         1 UNK         0.0000 
     15 C15        -1.1240   50.6610   24.2388 C.3       1 UNK         0.0000 
     16 C16        -2.5545   50.6303   24.8274 C.3       1 UNK         0.0000 
     17 C17        -0.0527   50.9273   25.3477 C.3       1 UNK         0.0000 
     18 C18        -0.0272   49.8237   26.3993 C.3       1 UNK         0.0000 
     19 N19         0.2833   48.4967   25.6788 N.4       1 UNK         0.0000 
     20 C20        -0.6932   48.1662   24.5298 C.3       1 UNK         0.0000 
     21 C21        -0.6838   49.3486   23.5445 C.3       1 UNK         0.0000 
     22 C22         0.0783   52.4967   22.8538 C.2       1 UNK         0.0000 
     23 O23         0.6568   52.1096   21.8407 O.2       1 UNK         0.0000 
     24 N24         0.5946   53.4337   23.6768 N.am      1 UNK         0.0000 
     25 C25         1.8549   54.1281   23.4473 C.3       1 UNK         0.0000 
     26 C26         3.0777   53.2168   23.6353 C.3       1 UNK         0.0000 
     27 C27         4.3466   53.9689   24.0032 C.ar      1 UNK         0.0000 
     28 C28         5.3145   54.1949   23.0199 C.ar      1 UNK         0.0000 
     29 C29         6.4934   54.8594   23.3432 C.ar      1 UNK         0.0000 
     30 C30         6.7044   55.2969   24.6469 C.ar      1 UNK         0.0000 
     31 C31         5.7606   55.0462   25.6405 C.ar      1 UNK         0.0000 
     32 C32         4.5667   54.3765   25.3307 C.ar      1 UNK         0.0000 
     33 O33         3.5879   54.0849   26.2650 O.3       1 UNK         0.0000 
     34 C34         3.8735   54.2495   27.6494 C.3       1 UNK         0.0000 
     35 H35        -5.2560   48.5044   30.3137 H         1 UNK         0.0000 
     36 H36        -6.3037   49.8270   30.8586 H         1 UNK         0.0000 
     37 H37        -6.8625   48.6658   29.6384 H         1 UNK         0.0000 
     38 H38        -3.4185   50.0127   29.6073 H         1 UNK         0.0000 
     39 H39        -2.5077   51.4161   27.8335 H         1 UNK         0.0000 
     40 H40        -7.3460   50.4065   27.9414 H         1 UNK         0.0000 
     41 H41        -7.7621   51.5716   25.9504 H         1 UNK         0.0000 
     42 H42        -6.8052   53.0589   25.8697 H         1 UNK         0.0000 
     43 H43        -6.4120   51.6976   24.8246 H         1 UNK         0.0000 
     44 H44        -1.7030   53.6064   24.4732 H         1 UNK         0.0000 
     45 H45        -2.9011   53.2972   23.1537 H         1 UNK         0.0000 
     46 H46        -3.1939   50.1384   24.0920 H         1 UNK         0.0000 
     47 H47        -2.6512   50.0586   25.7471 H         1 UNK         0.0000 
     48 H48         0.9493   51.0482   24.9321 H         1 UNK         0.0000 
     49 H49        -0.2742   51.8633   25.8617 H         1 UNK         0.0000 
     50 H50         0.7456   49.9819   27.1514 H         1 UNK         0.0000 
     51 H51        -0.9886   49.6968   26.8817 H         1 UNK         0.0000 
     52 H52         1.2262   48.5207   25.3131 H         1 UNK         0.0000 
     53 H53        -0.3316   47.2435   24.0794 H         1 UNK         0.0000 
     54 H54        -1.6658   47.9848   24.9912 H         1 UNK         0.0000 
     55 H55        -1.3770   49.1163   22.7337 H         1 UNK         0.0000 
     56 H56         0.2915   49.4613   23.0651 H         1 UNK         0.0000 
     57 H57         0.0925   53.6786   24.5164 H         1 UNK         0.0000 
     58 H58         1.8833   54.8983   24.2176 H         1 UNK         0.0000 
     59 H59         1.8989   54.6781   22.5033 H         1 UNK         0.0000 
     60 H60         3.2241   52.6092   22.7417 H         1 UNK         0.0000 
     61 H61         2.8797   52.4967   24.4284 H         1 UNK         0.0000 
     62 H62         5.1524   53.8619   22.0052 H         1 UNK         0.0000 
     63 H63         7.2411   55.0432   22.5854 H         1 UNK         0.0000 
     64 H64         7.6110   55.8313   24.8817 H         1 UNK         0.0000 
     65 H65         5.9679   55.3864   26.6431 H         1 UNK         0.0000 
     66 H66         3.0324   53.8772   28.2337 H         1 UNK         0.0000 
     67 H67         4.7577   53.6822   27.9474 H         1 UNK         0.0000 
     68 H68         4.0164   55.2967   27.9097 H         1 UNK         0.0000 
     69 H69         0.2818   47.7376   26.3617 H         1 UNK         0.0000 
@<TRIPOS>BOND
     1    1    2 1    
     2    1   35 1    
     3    1   36 1    
     4    1   37 1    
     5    2    7 ar   
     6    2    3 ar   
     7    3    4 ar   
     8    3   38 1    
     9    4    5 ar   
    10    4   39 1    
    11    5    6 ar   
    12    5    9 1    
    13    6    7 ar   
    14    6    8 1    
    15    7   40 1    
    16    8   41 1    
    17    8   42 1    
    18    8   43 1    
    19    9   10 2    
    20    9   11 am   BACKBONE|DICT|INTERRES
    21   11   16 1    
    22   11   12 1    
    23   12   13 1    
    24   12   44 1    
    25   12   45 1    
    26   13   14 1    
    27   13   15 1    
    28   13   22 1    
    29   15   21 1    
    30   15   16 1    
    31   15   17 1    
    32   16   46 1    
    33   16   47 1    
    34   17   18 1    
    35   17   48 1    
    36   17   49 1    
    37   18   19 1    
    38   18   50 1    
    39   18   51 1    
    40   19   20 1    
    41   19   52 1    
    42   19   69 1    
    43   20   21 1    
    44   20   53 1    
    45   20   54 1    
    46   21   55 1    
    47   21   56 1    
    48   22   23 2    
    49   22   24 am   BACKBONE|DICT|INTERRES
    50   24   25 1    
    51   24   57 1    
    52   25   26 1    
    53   25   58 1    
    54   25   59 1    
    55   26   27 1    
    56   26   60 1    
    57   26   61 1    
    58   27   32 ar   
    59   27   28 ar   
    60   28   29 ar   
    61   28   62 1    
    62   29   30 ar   
    63   29   63 1    
    64   30   31 ar   
    65   30   64 1    
    66   31   32 ar   
    67   31   65 1    
    68   32   33 1    
    69   33   34 1    
    70   34   66 1    
    71   34   67 1    
    72   34   68 1    
@<TRIPOS>SUBSTRUCTURE
     1 UNK         1 GROUP             0       ****    0 ROOT    
