ZINC39741613_3177
                    3D
 Schrodinger Suite 2024-2.
 55 57  0  0  1  0            999 V2000
   -0.1748   59.4932   15.6746 C   0  0  0  0  0  0
   -1.0980   58.3112   15.9276 C   0  0  0  0  0  0
   -0.5678   57.1078   16.4066 C   0  0  0  0  0  0
   -1.3912   55.9992   16.6284 C   0  0  0  0  0  0
   -2.7617   56.1028   16.3467 C   0  0  0  0  0  0
   -3.2970   57.3041   15.8857 C   0  0  0  0  0  0
   -2.4740   58.4100   15.6819 C   0  0  0  0  0  0
   -3.2632   60.0397   15.0826 Br  0  0  0  0  0  0
   -0.7677   54.8182   17.0704 N   0  0  0  0  0  0
   -1.3239   53.7507   17.6816 C   0  0  0  0  0  0
   -2.4955   53.6958   18.0555 O   0  0  0  0  0  0
   -0.3653   52.5820   17.9427 C   0  0  0  0  0  0
   -1.1484   51.0972   18.6695 S   0  0  0  0  0  0
   -0.6580   51.3633   20.3403 C   0  0  0  0  0  0
   -1.4938   51.7375   21.2750 N   0  0  0  0  0  0
   -0.7802   51.8077   22.4619 N   0  0  0  0  0  0
    0.4578   51.4496   22.2059 C   0  0  0  0  0  0
    0.6059   51.1486   20.8607 N   0  0  0  0  0  0
    1.7909   50.6638   20.1248 C   0  0  0  0  0  0
    3.0179   51.5796   20.3076 C   0  0  0  0  0  0
    2.0762   49.1842   20.4475 C   0  0  0  0  0  0
    1.5692   51.3646   23.2479 C   0  0  0  0  0  0
    1.1027   51.5142   24.6293 N   0  0  0  0  0  0
    1.1929   52.6402   25.3591 C   0  0  0  0  0  0
    1.6293   53.6989   24.9024 O   0  0  0  0  0  0
    0.7447   52.5331   26.7979 C   0  0  0  0  0  0
   -0.3875   51.7780   27.1450 C   0  0  0  0  0  0
   -0.8062   51.6947   28.4738 C   0  0  0  0  0  0
   -0.0961   52.3500   29.4763 C   0  0  0  0  0  0
    1.0295   53.0994   29.1470 C   0  0  0  0  0  0
    1.4518   53.1942   27.8206 C   0  0  0  0  0  0
    2.5572   53.9269   27.5517 F   0  0  0  0  0  0
    0.8647   59.2700   15.9205 H   0  0  0  0  0  0
   -0.4908   60.3488   16.2713 H   0  0  0  0  0  0
   -0.2206   59.7873   14.6246 H   0  0  0  0  0  0
    0.4922   57.0414   16.6019 H   0  0  0  0  0  0
   -3.4283   55.2637   16.4690 H   0  0  0  0  0  0
   -4.3564   57.3750   15.6890 H   0  0  0  0  0  0
    0.2334   54.7951   16.9452 H   0  0  0  0  0  0
    0.0629   52.2767   16.9872 H   0  0  0  0  0  0
    0.4626   52.9260   18.5647 H   0  0  0  0  0  0
    1.5501   50.7009   19.0611 H   0  0  0  0  0  0
    3.7693   51.3619   19.5473 H   0  0  0  0  0  0
    2.7526   52.6353   20.2105 H   0  0  0  0  0  0
    3.5077   51.4374   21.2680 H   0  0  0  0  0  0
    2.8058   48.7774   19.7468 H   0  0  0  0  0  0
    2.4780   49.0431   21.4507 H   0  0  0  0  0  0
    1.1763   48.5734   20.3595 H   0  0  0  0  0  0
    2.0516   50.3889   23.1981 H   0  0  0  0  0  0
    2.3533   52.0919   23.0363 H   0  0  0  0  0  0
    0.7093   50.6950   25.0673 H   0  0  0  0  0  0
   -0.9598   51.2511   26.3943 H   0  0  0  0  0  0
   -1.6664   51.0940   28.7298 H   0  0  0  0  0  0
   -0.4162   52.2693   30.5064 H   0  0  0  0  0  0
    1.5813   53.6090   29.9225 H   0  0  0  0  0  0
  1  2  1  0  0  0
  1 33  1  0  0  0
  1 34  1  0  0  0
  1 35  1  0  0  0
  2  7  2  0  0  0
  2  3  1  0  0  0
  3  4  2  0  0  0
  3 36  1  0  0  0
  4  5  1  0  0  0
  4  9  1  0  0  0
  5  6  2  0  0  0
  5 37  1  0  0  0
  6  7  1  0  0  0
  6 38  1  0  0  0
  7  8  1  0  0  0
  9 10  1  0  0  0
  9 39  1  0  0  0
 10 11  2  0  0  0
 10 12  1  0  0  0
 12 13  1  0  0  0
 12 40  1  0  0  0
 12 41  1  0  0  0
 13 14  1  0  0  0
 14 18  1  0  0  0
 14 15  2  0  0  0
 15 16  1  0  0  0
 16 17  2  0  0  0
 17 18  1  0  0  0
 17 22  1  0  0  0
 18 19  1  0  0  0
 19 20  1  0  0  0
 19 21  1  0  0  0
 19 42  1  0  0  0
 20 43  1  0  0  0
 20 44  1  0  0  0
 20 45  1  0  0  0
 21 46  1  0  0  0
 21 47  1  0  0  0
 21 48  1  0  0  0
 22 23  1  0  0  0
 22 49  1  0  0  0
 22 50  1  0  0  0
 23 24  1  0  0  0
 23 51  1  0  0  0
 24 25  2  0  0  0
 24 26  1  0  0  0
 26 31  2  0  0  0
 26 27  1  0  0  0
 27 28  2  0  0  0
 27 52  1  0  0  0
 28 29  1  0  0  0
 28 53  1  0  0  0
 29 30  2  0  0  0
 29 54  1  0  0  0
 30 31  1  0  0  0
 30 55  1  0  0  0
 31 32  1  0  0  0
M  END
> <i_i_glide_confnum>
20

> <i_i_glide_lignum>
3178

> <i_i_glide_posenum>
220

> <i_i_glide_rotatable_bonds>
10

> <i_m_Source_File_Index>
3533

> <b_m_subgroup_collapsed>
0

> <r_i_docking_score>
-3.68257

> <r_i_glide_ecoul>
-8.79701

> <r_i_glide_eff_state_penalty>
0

> <r_i_glide_einternal>
3.30128

> <r_i_glide_emodel>
-54.1541

> <r_i_glide_energy>
-43.4875

> <r_i_glide_erotb>
0.607041

> <r_i_glide_esite>
-0.0669338

> <r_i_glide_evdw>
-34.6905

> <r_i_glide_gscore>
-3.68257

> <r_i_glide_hbond>
-0.0996003

> <r_i_glide_ligand_efficiency>
-0.11508

> <r_i_glide_ligand_efficiency_ln>
-0.824627

> <r_i_glide_ligand_efficiency_sa>
-0.365357

> <r_i_glide_lipo>
-0.563104

> <r_i_glide_metal>
0

> <r_i_glide_rewards>
-0.505895

> <s_i_glide_gridfile>
wee1_glide-grid

> <s_m_Source_File>
wee1_decoys_glide_SP.sdf

> <s_m_Source_Path>
/Users/zhangxujun/Desktop

> <s_m_entry_id>
3808

> <s_m_entry_name>
wee1_decoys_glide_SP.3533

> <s_m_subgroup_title>
wee1_decoys_glide_SP

> <s_m_subgroupid>
wee1_decoys_glide_SP


$$$$
