@<TRIPOS>MOLECULE
ZINC08739042_5277
44   47    1
SMALL
USER_CHARGES


@<TRIPOS>ATOM
      1 C1          7.1042   55.4326   24.3848 C.3       1 UNK         0.0000 
      2 C2          6.0815   54.9273   25.3836 C.ar      1 UNK         0.0000 
      3 C3          6.4264   54.8965   26.7363 C.ar      1 UNK         0.0000 
      4 C4          5.5183   54.4453   27.6815 C.ar      1 UNK         0.0000 
      5 C5          4.2435   54.0356   27.2857 C.ar      1 UNK         0.0000 
      6 C6          3.8907   54.0840   25.9341 C.ar      1 UNK         0.0000 
      7 C7          4.8109   54.4968   24.9638 C.ar      1 UNK         0.0000 
      8 N8          4.5798   54.4882   23.5697 N.pl3     1 UNK         0.0000 
      9 C9          3.6209   54.0029   22.7166 C.2       1 UNK         0.0000 
     10 S10         2.1647   53.2995   23.1138 S.2       1 UNK         0.0000 
     11 N11         3.9032   54.0484   21.3770 N.am      1 UNK         0.0000 
     12 C12         4.9932   54.4963   20.7022 C.2       1 UNK         0.0000 
     13 O13         5.9054   55.1596   21.2088 O.2       1 UNK         0.0000 
     14 C14         5.0693   54.0982   19.2435 C.ar      1 UNK         0.0000 
     15 C15         3.9301   53.7086   18.5127 C.ar      1 UNK         0.0000 
     16 C16         4.0436   53.3118   17.1789 C.ar      1 UNK         0.0000 
     17 C17         5.2888   53.2987   16.5540 C.ar      1 UNK         0.0000 
     18 C18         6.4235   53.6890   17.2615 C.ar      1 UNK         0.0000 
     19 C19         6.3120   54.0952   18.5904 C.ar      1 UNK         0.0000 
     20 I20         8.3005   53.6460   16.3426 I         1 UNK         0.0000 
     21 C21         3.2723   53.5294   28.2868 C.2       1 UNK         0.0000 
     22 N22         3.5085   53.2979   29.5628 N.2       1 UNK         0.0000 
     23 C23         2.3071   52.8574   30.0286 C.ar      1 UNK         0.0000 
     24 C24         1.3714   52.8401   28.9815 C.ar      1 UNK         0.0000 
     25 O25         1.9977   53.2640   27.8587 O.3       1 UNK         0.0000 
     26 C26         0.0465   52.4449   29.1709 C.ar      1 UNK         0.0000 
     27 C27        -0.2792   52.0971   30.4817 C.ar      1 UNK         0.0000 
     28 C28         0.7045   52.1548   31.4835 C.ar      1 UNK         0.0000 
     29 N29         2.0018   52.4966   31.2739 N.ar      1 UNK         0.0000 
     30 H30         7.9043   55.9952   24.8618 H         1 UNK         0.0000 
     31 H31         7.5042   54.5905   23.8221 H         1 UNK         0.0000 
     32 H32         6.6478   56.1070   23.6650 H         1 UNK         0.0000 
     33 H33         7.4002   55.2120   27.0751 H         1 UNK         0.0000 
     34 H34         5.8154   54.4224   28.7197 H         1 UNK         0.0000 
     35 H35         2.9001   53.7641   25.6688 H         1 UNK         0.0000 
     36 H36         5.3694   54.8824   23.0761 H         1 UNK         0.0000 
     37 H37         3.2139   53.5907   20.7995 H         1 UNK         0.0000 
     38 H38         2.9461   53.6999   18.9593 H         1 UNK         0.0000 
     39 H39         3.1658   52.9983   16.6330 H         1 UNK         0.0000 
     40 H40         5.3782   52.9722   15.5281 H         1 UNK         0.0000 
     41 H41         7.2112   54.3887   19.1140 H         1 UNK         0.0000 
     42 H42        -0.6717   52.4133   28.3652 H         1 UNK         0.0000 
     43 H43        -1.2797   51.7672   30.7338 H         1 UNK         0.0000 
     44 H44         0.4469   51.8892   32.4973 H         1 UNK         0.0000 
@<TRIPOS>BOND
     1    1    2 1    
     2    1   30 1    
     3    1   31 1    
     4    1   32 1    
     5    2    7 ar   
     6    2    3 ar   
     7    3    4 ar   
     8    3   33 1    
     9    4    5 ar   
    10    4   34 1    
    11    5    6 ar   
    12    5   21 1    
    13    6    7 ar   
    14    6   35 1    
    15    7    8 1    
    16    8    9 1    
    17    8   36 1    
    18    9   10 2    
    19    9   11 am   BACKBONE|DICT|INTERRES
    20   11   12 am   BACKBONE|DICT|INTERRES
    21   11   37 1    
    22   12   13 2    
    23   12   14 1    
    24   14   19 ar   
    25   14   15 ar   
    26   15   16 ar   
    27   15   38 1    
    28   16   17 ar   
    29   16   39 1    
    30   17   18 ar   
    31   17   40 1    
    32   18   19 ar   
    33   18   20 1    
    34   19   41 1    
    35   21   25 1    
    36   21   22 2    
    37   22   23 1    
    38   23   29 ar   
    39   23   24 ar   
    40   24   25 1    
    41   24   26 ar   
    42   26   27 ar   
    43   26   42 1    
    44   27   28 ar   
    45   27   43 1    
    46   28   29 ar   
    47   28   44 1    
@<TRIPOS>SUBSTRUCTURE
     1 UNK         1 GROUP             0       ****    0 ROOT    
