@<TRIPOS>MOLECULE
ZINC39684462_2160
68   70    1
SMALL
USER_CHARGES


@<TRIPOS>ATOM
      1 C1          5.0654   53.8943   26.8564 C.3       1 UNK         0.0000 
      2 C2          3.5701   53.5555   26.6756 C.3       1 UNK         0.0000 
      3 H3          3.4980   52.4967   26.8811 H         1 UNK         0.0000 
      4 C4          3.0490   53.7881   25.2282 C.2       1 UNK         0.0000 
      5 O5          3.7124   54.4967   24.4671 O.2       1 UNK         0.0000 
      6 N6          1.9212   53.1656   24.7908 N.am      1 UNK         0.0000 
      7 C7          1.4768   53.2774   23.4013 C.3       1 UNK         0.0000 
      8 C8          0.0454   52.6948   23.4312 C.3       1 UNK         0.0000 
      9 H9         -0.6067   53.5527   23.6048 H         1 UNK         0.0000 
     10 C10         0.0057   51.7063   24.6246 C.3       1 UNK         0.0000 
     11 C11         0.9984   52.3733   25.6077 C.3       1 UNK         0.0000 
     12 C12        -1.4420   51.5571   25.1557 C.3       1 UNK         0.0000 
     13 C13        -1.5056   50.7018   26.4288 C.3       1 UNK         0.0000 
     14 N14        -0.9746   49.2967   26.0817 N.4       1 UNK         0.0000 
     15 C15         0.4525   49.2952   25.4947 C.3       1 UNK         0.0000 
     16 C16         0.4867   50.2548   24.2786 C.3       1 UNK         0.0000 
     17 C17        -0.3426   52.0967   22.0513 C.2       1 UNK         0.0000 
     18 O18        -1.5262   52.0965   21.7138 O.2       1 UNK         0.0000 
     19 N19         0.6279   51.5707   21.2878 N.am      1 UNK         0.0000 
     20 C20         0.4956   50.9354   19.9762 C.3       1 UNK         0.0000 
     21 H21        -0.3975   50.3054   20.0069 H         1 UNK         0.0000 
     22 C22         0.2491   52.0063   18.8878 C.3       1 UNK         0.0000 
     23 C23         1.7129   49.9812   19.7011 C.3       1 UNK         0.0000 
     24 C24         1.5646   49.2595   18.3385 C.3       1 UNK         0.0000 
     25 C25         1.7909   48.8853   20.7974 C.3       1 UNK         0.0000 
     26 C26         3.0489   50.7678   19.7138 C.3       1 UNK         0.0000 
     27 O27         2.8526   54.3908   27.5945 O.3       1 UNK         0.0000 
     28 C28         2.0208   53.8681   28.5700 C.ar      1 UNK         0.0000 
     29 C29         1.7102   52.5072   28.7288 C.ar      1 UNK         0.0000 
     30 C30         0.7676   52.1021   29.6614 C.ar      1 UNK         0.0000 
     31 C31         0.2111   53.0355   30.5294 C.ar      1 UNK         0.0000 
     32 C32         0.5593   54.3809   30.4342 C.ar      1 UNK         0.0000 
     33 C33         1.4446   54.7951   29.4407 C.ar      1 UNK         0.0000 
     34 H34         5.6924   53.3234   26.1700 H         1 UNK         0.0000 
     35 H35         5.2604   54.9542   26.6862 H         1 UNK         0.0000 
     36 H36         5.3956   53.6600   27.8689 H         1 UNK         0.0000 
     37 H37         2.1722   52.6511   22.8423 H         1 UNK         0.0000 
     38 H38         1.4810   54.3057   23.0327 H         1 UNK         0.0000 
     39 H39         0.4454   53.0818   26.2253 H         1 UNK         0.0000 
     40 H40         1.4657   51.6509   26.2621 H         1 UNK         0.0000 
     41 H41        -2.1074   51.1671   24.3829 H         1 UNK         0.0000 
     42 H42        -1.8400   52.5426   25.4039 H         1 UNK         0.0000 
     43 H43        -2.5240   50.5547   26.7929 H         1 UNK         0.0000 
     44 H44        -0.8918   51.0798   27.2481 H         1 UNK         0.0000 
     45 H45        -1.6131   48.8416   25.4457 H         1 UNK         0.0000 
     46 H46         0.6757   48.2609   25.2240 H         1 UNK         0.0000 
     47 H47         1.1044   49.5763   26.3193 H         1 UNK         0.0000 
     48 H48         1.5067   50.2871   23.8929 H         1 UNK         0.0000 
     49 H49        -0.1085   49.8176   23.4756 H         1 UNK         0.0000 
     50 H50         1.5680   51.5835   21.6486 H         1 UNK         0.0000 
     51 H51         0.1655   51.5639   17.8965 H         1 UNK         0.0000 
     52 H52        -0.6848   52.5405   19.0611 H         1 UNK         0.0000 
     53 H53         1.0621   52.7322   18.8426 H         1 UNK         0.0000 
     54 H54         1.6751   49.9428   17.4960 H         1 UNK         0.0000 
     55 H55         2.3314   48.4949   18.2039 H         1 UNK         0.0000 
     56 H56         0.5959   48.7678   18.2433 H         1 UNK         0.0000 
     57 H57         2.0172   49.3002   21.7791 H         1 UNK         0.0000 
     58 H58         0.8502   48.3400   20.8805 H         1 UNK         0.0000 
     59 H59         2.5718   48.1538   20.5828 H         1 UNK         0.0000 
     60 H60         3.1731   51.3741   20.6106 H         1 UNK         0.0000 
     61 H61         3.9041   50.0969   19.6817 H         1 UNK         0.0000 
     62 H62         3.1340   51.4356   18.8556 H         1 UNK         0.0000 
     63 H63         2.1488   51.7240   28.1400 H         1 UNK         0.0000 
     64 H64         0.4729   51.0652   29.6817 H         1 UNK         0.0000 
     65 H65        -0.4966   52.7106   31.2805 H         1 UNK         0.0000 
     66 H66         0.1267   55.1027   31.1112 H         1 UNK         0.0000 
     67 H67         1.6866   55.8435   29.3420 H         1 UNK         0.0000 
     68 H68        -1.0173   48.7587   26.9636 H         1 UNK         0.0000 
@<TRIPOS>BOND
     1    1    2 1    
     2    1   34 1    
     3    1   35 1    
     4    1   36 1    
     5    2    3 1    
     6    2    4 1    
     7    2   27 1    
     8    4    5 2    
     9    4    6 am   BACKBONE|DICT|INTERRES
    10    6   11 1    
    11    6    7 1    
    12    7    8 1    
    13    7   37 1    
    14    7   38 1    
    15    8    9 1    
    16    8   10 1    
    17    8   17 1    
    18   10   16 1    
    19   10   11 1    
    20   10   12 1    
    21   11   39 1    
    22   11   40 1    
    23   12   13 1    
    24   12   41 1    
    25   12   42 1    
    26   13   14 1    
    27   13   43 1    
    28   13   44 1    
    29   14   15 1    
    30   14   45 1    
    31   14   68 1    
    32   15   16 1    
    33   15   46 1    
    34   15   47 1    
    35   16   48 1    
    36   16   49 1    
    37   17   18 2    
    38   17   19 am   BACKBONE|DICT|INTERRES
    39   19   20 1    
    40   19   50 1    
    41   20   21 1    
    42   20   22 1    
    43   20   23 1    
    44   22   51 1    
    45   22   52 1    
    46   22   53 1    
    47   23   24 1    
    48   23   25 1    
    49   23   26 1    
    50   24   54 1    
    51   24   55 1    
    52   24   56 1    
    53   25   57 1    
    54   25   58 1    
    55   25   59 1    
    56   26   60 1    
    57   26   61 1    
    58   26   62 1    
    59   27   28 1    
    60   28   33 ar   
    61   28   29 ar   
    62   29   30 ar   
    63   29   63 1    
    64   30   31 ar   
    65   30   64 1    
    66   31   32 ar   
    67   31   65 1    
    68   32   33 ar   
    69   32   66 1    
    70   33   67 1    
@<TRIPOS>SUBSTRUCTURE
     1 UNK         1 GROUP             0       ****    0 ROOT    
