@<TRIPOS>MOLECULE
ZINC65074659_303
67   70    1
SMALL
USER_CHARGES


@<TRIPOS>ATOM
      1 C1          2.8752   52.6669   29.5060 C.3       1 UNK         0.0000 
      2 C2          2.7080   52.8970   28.0155 C.ar      1 UNK         0.0000 
      3 C3          1.5449   52.5025   27.3645 C.ar      1 UNK         0.0000 
      4 C4          1.3832   52.7030   25.9903 C.ar      1 UNK         0.0000 
      5 C5          2.4056   53.3274   25.2314 C.ar      1 UNK         0.0000 
      6 C6          3.5903   53.7180   25.9077 C.ar      1 UNK         0.0000 
      7 C7          3.7171   53.5122   27.2851 C.ar      1 UNK         0.0000 
      8 C8          4.7560   54.4288   25.2313 C.3       1 UNK         0.0000 
      9 S9          2.2121   53.5518   23.4202 S.o2      1 UNK         0.0000 
     10 O10         1.1044   54.4967   23.2817 O.2       1 UNK         0.0000 
     11 O11         3.5167   53.8370   22.8124 O.2       1 UNK         0.0000 
     12 N12         1.6789   51.9886   22.7312 N.pl3     1 UNK         0.0000 
     13 C13         0.3118   51.8562   22.1544 C.3       1 UNK         0.0000 
     14 C14         0.3219   51.9245   20.6106 C.3       1 UNK         0.0000 
     15 C15         1.3190   50.9252   19.9519 C.3       1 UNK         0.0000 
     16 C16         2.7097   51.1880   20.5836 C.3       1 UNK         0.0000 
     17 C17         2.7044   51.1038   22.1224 C.3       1 UNK         0.0000 
     18 C18         1.3980   51.0787   18.4196 C.2       1 UNK         0.0000 
     19 N19         1.5044   50.0329   17.5873 N.pl3     1 UNK         0.0000 
     20 C20         1.4605   48.6296   17.9789 C.3       1 UNK         0.0000 
     21 C21         1.6060   48.5328   19.4984 C.3       1 UNK         0.0000 
     22 N22         0.8089   49.5582   20.1663 N.3       1 UNK         0.0000 
     23 N23         1.4089   52.3312   17.9386 N.pl3     1 UNK         0.0000 
     24 C24         1.5688   52.7515   16.5367 C.3       1 UNK         0.0000 
     25 C25         0.4202   53.7198   16.1663 C.3       1 UNK         0.0000 
     26 C26         0.5104   55.0828   16.8882 C.3       1 UNK         0.0000 
     27 C27         1.8945   55.7370   16.7059 C.3       1 UNK         0.0000 
     28 C28         3.0442   54.7920   17.1106 C.3       1 UNK         0.0000 
     29 C29         2.9486   53.4316   16.3830 C.3       1 UNK         0.0000 
     30 C30         0.0482   52.2677   25.4038 C.3       1 UNK         0.0000 
     31 H31         1.9101   52.5775   30.0087 H         1 UNK         0.0000 
     32 H32         3.3979   53.5062   29.9671 H         1 UNK         0.0000 
     33 H33         3.4580   51.7622   29.6847 H         1 UNK         0.0000 
     34 H34         0.7595   52.0274   27.9368 H         1 UNK         0.0000 
     35 H35         4.6175   53.8223   27.7962 H         1 UNK         0.0000 
     36 H36         5.2968   53.7425   24.5780 H         1 UNK         0.0000 
     37 H37         4.3997   55.2717   24.6398 H         1 UNK         0.0000 
     38 H38         5.4662   54.8415   25.9476 H         1 UNK         0.0000 
     39 H39        -0.1174   50.9163   22.5025 H         1 UNK         0.0000 
     40 H40        -0.3259   52.6446   22.5485 H         1 UNK         0.0000 
     41 H41        -0.6843   51.7607   20.2231 H         1 UNK         0.0000 
     42 H42         0.5802   52.9444   20.3343 H         1 UNK         0.0000 
     43 H43         3.0484   52.1847   20.2954 H         1 UNK         0.0000 
     44 H44         3.4657   50.5221   20.1706 H         1 UNK         0.0000 
     45 H45         3.6781   51.4423   22.4514 H         1 UNK         0.0000 
     46 H46         2.5703   50.0872   22.4957 H         1 UNK         0.0000 
     47 H47         0.5033   48.2296   17.6441 H         1 UNK         0.0000 
     48 H48         2.2637   48.0984   17.4648 H         1 UNK         0.0000 
     49 H49         1.2798   47.5495   19.8400 H         1 UNK         0.0000 
     50 H50         2.6541   48.5907   19.7936 H         1 UNK         0.0000 
     51 H51         0.7988   49.3896   21.1624 H         1 UNK         0.0000 
     52 H52         1.3620   53.0774   18.6196 H         1 UNK         0.0000 
     53 H53         1.5187   51.8728   15.8944 H         1 UNK         0.0000 
     54 H54         0.4588   53.8988   15.0904 H         1 UNK         0.0000 
     55 H55        -0.5494   53.2482   16.3373 H         1 UNK         0.0000 
     56 H56        -0.2667   55.7510   16.5137 H         1 UNK         0.0000 
     57 H57         0.3036   54.9480   17.9507 H         1 UNK         0.0000 
     58 H58         2.0195   56.0260   15.6603 H         1 UNK         0.0000 
     59 H59         1.9502   56.6615   17.2815 H         1 UNK         0.0000 
     60 H60         4.0032   55.2624   16.8924 H         1 UNK         0.0000 
     61 H61         3.0281   54.6351   18.1911 H         1 UNK         0.0000 
     62 H62         3.7480   52.7589   16.7063 H         1 UNK         0.0000 
     63 H63         3.1353   53.5971   15.3200 H         1 UNK         0.0000 
     64 H64         0.1483   51.3193   24.8778 H         1 UNK         0.0000 
     65 H65        -0.7108   52.1411   26.1779 H         1 UNK         0.0000 
     66 H66        -0.3507   53.0222   24.7301 H         1 UNK         0.0000 
     67 H67         1.6258   50.2442   16.6080 H         1 UNK         0.0000 
@<TRIPOS>BOND
     1    1    2 1    
     2    1   31 1    
     3    1   32 1    
     4    1   33 1    
     5    2    7 ar   
     6    2    3 ar   
     7    3    4 ar   
     8    3   34 1    
     9    4    5 ar   
    10    4   30 1    
    11    5    6 ar   
    12    5    9 1    
    13    6    7 ar   
    14    6    8 1    
    15    7   35 1    
    16    8   36 1    
    17    8   37 1    
    18    8   38 1    
    19    9   10 2    
    20    9   11 2    
    21    9   12 1    
    22   12   17 1    
    23   12   13 1    
    24   13   14 1    
    25   13   39 1    
    26   13   40 1    
    27   14   15 1    
    28   14   41 1    
    29   14   42 1    
    30   15   22 1    
    31   15   16 1    
    32   15   18 1    
    33   16   17 1    
    34   16   43 1    
    35   16   44 1    
    36   17   45 1    
    37   17   46 1    
    38   18   19 2    
    39   18   23 1    
    40   19   20 1    
    41   19   67 1    
    42   20   21 1    
    43   20   47 1    
    44   20   48 1    
    45   21   22 1    
    46   21   49 1    
    47   21   50 1    
    48   22   51 1    
    49   23   24 1    
    50   23   52 1    
    51   24   29 1    
    52   24   25 1    
    53   24   53 1    
    54   25   26 1    
    55   25   54 1    
    56   25   55 1    
    57   26   27 1    
    58   26   56 1    
    59   26   57 1    
    60   27   28 1    
    61   27   58 1    
    62   27   59 1    
    63   28   29 1    
    64   28   60 1    
    65   28   61 1    
    66   29   62 1    
    67   29   63 1    
    68   30   64 1    
    69   30   65 1    
    70   30   66 1    
@<TRIPOS>SUBSTRUCTURE
     1 UNK         1 GROUP             0       ****    0 ROOT    
