@<TRIPOS>MOLECULE
ZINC03273524_5029
63   66    1
SMALL
USER_CHARGES


@<TRIPOS>ATOM
      1 C1         -2.3751   51.1616   24.5671 C.3       1 UNK         0.0000 
      2 C2         -1.0171   51.8052   24.7783 C.ar      1 UNK         0.0000 
      3 C3         -0.2877   51.5111   25.9277 C.ar      1 UNK         0.0000 
      4 C4          0.9576   52.0966   26.1252 C.ar      1 UNK         0.0000 
      5 C5          1.5038   52.9949   25.1949 C.ar      1 UNK         0.0000 
      6 C6          0.7545   53.2672   24.0379 C.ar      1 UNK         0.0000 
      7 C7         -0.4911   52.6788   23.8296 C.ar      1 UNK         0.0000 
      8 C8          2.8659   53.6073   25.3936 C.ar      1 UNK         0.0000 
      9 C9          3.4797   53.9010   26.6367 C.ar      1 UNK         0.0000 
     10 N10         4.7668   54.3588   26.6688 N.ar      1 UNK         0.0000 
     11 N11         5.4602   54.5238   25.5302 N.ar      1 UNK         0.0000 
     12 C12         4.8478   54.2332   24.3558 C.ar      1 UNK         0.0000 
     13 N13         3.5663   53.8091   24.2405 N.ar      1 UNK         0.0000 
     14 S14         5.8273   54.3943   22.8881 S.3       1 UNK         0.0000 
     15 C15         4.8501   53.8612   21.4282 C.3       1 UNK         0.0000 
     16 H16         3.8262   54.1835   21.6245 H         1 UNK         0.0000 
     17 C17         4.8534   52.3347   21.2255 C.3       1 UNK         0.0000 
     18 C18         5.2895   54.5953   20.1435 C.2       1 UNK         0.0000 
     19 O19         6.4723   54.8973   19.9781 O.2       1 UNK         0.0000 
     20 N20         4.3051   54.8965   19.2680 N.am      1 UNK         0.0000 
     21 C21         4.3344   55.8165   18.2028 C.ar      1 UNK         0.0000 
     22 C22         5.2643   56.8652   18.1119 C.ar      1 UNK         0.0000 
     23 C23         5.1011   57.8633   17.1578 C.ar      1 UNK         0.0000 
     24 C24         4.0229   57.8146   16.2754 C.ar      1 UNK         0.0000 
     25 C25         3.1230   56.7399   16.3256 C.ar      1 UNK         0.0000 
     26 C26         3.2821   55.7461   17.2868 C.ar      1 UNK         0.0000 
     27 N27         3.8571   58.9220   15.4325 N.am      1 UNK         0.0000 
     28 C28         3.2335   58.9813   14.2414 C.2       1 UNK         0.0000 
     29 O29         2.7465   58.0215   13.6446 O.2       1 UNK         0.0000 
     30 C30         3.1695   60.3661   13.6110 C.3       1 UNK         0.0000 
     31 C31         2.8467   53.7297   27.9769 C.ar      1 UNK         0.0000 
     32 C32         3.4631   52.9361   28.9520 C.ar      1 UNK         0.0000 
     33 C33         2.8187   52.6707   30.1589 C.ar      1 UNK         0.0000 
     34 C34         1.5506   53.1997   30.4030 C.ar      1 UNK         0.0000 
     35 C35         0.9536   54.0386   29.4629 C.ar      1 UNK         0.0000 
     36 C36         1.6018   54.3050   28.2612 C.ar      1 UNK         0.0000 
     37 C37         0.8144   52.8730   31.6889 C.3       1 UNK         0.0000 
     38 H38        -2.2735   50.0762   24.5272 H         1 UNK         0.0000 
     39 H39        -3.0330   51.3955   25.4048 H         1 UNK         0.0000 
     40 H40        -2.8584   51.5001   23.6501 H         1 UNK         0.0000 
     41 H41        -0.6752   50.8141   26.6588 H         1 UNK         0.0000 
     42 H42         1.5073   51.8004   27.0044 H         1 UNK         0.0000 
     43 H43         1.1366   53.9427   23.2878 H         1 UNK         0.0000 
     44 H44        -1.0444   52.8968   22.9293 H         1 UNK         0.0000 
     45 H45         4.2816   52.0355   20.3464 H         1 UNK         0.0000 
     46 H46         5.8667   51.9524   21.1033 H         1 UNK         0.0000 
     47 H47         4.4109   51.8275   22.0807 H         1 UNK         0.0000 
     48 H48         3.3999   54.4739   19.4290 H         1 UNK         0.0000 
     49 H49         6.0760   56.9688   18.8156 H         1 UNK         0.0000 
     50 H50         5.7912   58.6956   17.1374 H         1 UNK         0.0000 
     51 H51         2.2701   56.6936   15.6671 H         1 UNK         0.0000 
     52 H52         2.5495   54.9543   17.3521 H         1 UNK         0.0000 
     53 H53         4.2448   59.7969   15.7780 H         1 UNK         0.0000 
     54 H54         4.1262   60.6096   13.1449 H         1 UNK         0.0000 
     55 H55         2.9492   61.1254   14.3651 H         1 UNK         0.0000 
     56 H56         2.3937   60.4041   12.8436 H         1 UNK         0.0000 
     57 H57         4.4277   52.4880   28.7556 H         1 UNK         0.0000 
     58 H58         3.3009   52.0431   30.8940 H         1 UNK         0.0000 
     59 H59        -0.0208   54.4617   29.6511 H         1 UNK         0.0000 
     60 H60         1.1080   54.9218   27.5278 H         1 UNK         0.0000 
     61 H61         1.4826   52.4866   32.4600 H         1 UNK         0.0000 
     62 H62         0.3358   53.7633   32.0983 H         1 UNK         0.0000 
     63 H63         0.0344   52.1353   31.4993 H         1 UNK         0.0000 
@<TRIPOS>BOND
     1    1    2 1    
     2    1   38 1    
     3    1   39 1    
     4    1   40 1    
     5    2    7 ar   
     6    2    3 ar   
     7    3    4 ar   
     8    3   41 1    
     9    4    5 ar   
    10    4   42 1    
    11    5    6 ar   
    12    5    8 1    
    13    6    7 ar   
    14    6   43 1    
    15    7   44 1    
    16    8   13 ar   
    17    8    9 ar   
    18    9   10 ar   
    19    9   31 1    
    20   10   11 ar   
    21   11   12 ar   
    22   12   13 ar   
    23   12   14 1    
    24   14   15 1    
    25   15   16 1    
    26   15   17 1    
    27   15   18 1    
    28   17   45 1    
    29   17   46 1    
    30   17   47 1    
    31   18   19 2    
    32   18   20 am   BACKBONE|DICT|INTERRES
    33   20   21 1    
    34   20   48 1    
    35   21   26 ar   
    36   21   22 ar   
    37   22   23 ar   
    38   22   49 1    
    39   23   24 ar   
    40   23   50 1    
    41   24   25 ar   
    42   24   27 1    
    43   25   26 ar   
    44   25   51 1    
    45   26   52 1    
    46   27   28 am   BACKBONE|DICT|INTERRES
    47   27   53 1    
    48   28   29 2    
    49   28   30 1    
    50   30   54 1    
    51   30   55 1    
    52   30   56 1    
    53   31   36 ar   
    54   31   32 ar   
    55   32   33 ar   
    56   32   57 1    
    57   33   34 ar   
    58   33   58 1    
    59   34   35 ar   
    60   34   37 1    
    61   35   36 ar   
    62   35   59 1    
    63   36   60 1    
    64   37   61 1    
    65   37   62 1    
    66   37   63 1    
@<TRIPOS>SUBSTRUCTURE
     1 UNK         1 GROUP             0       ****    0 ROOT    
