@<TRIPOS>MOLECULE
ZINC01326746_886
55   60    1
SMALL
USER_CHARGES


@<TRIPOS>ATOM
      1 C1          1.6974   54.1260   29.8190 C.3       1 UNK         0.0000 
      2 O2          3.1085   54.2661   29.6613 O.3       1 UNK         0.0000 
      3 C3          3.6510   54.2443   28.3888 C.ar      1 UNK         0.0000 
      4 C4          5.0386   54.3896   28.3039 C.ar      1 UNK         0.0000 
      5 C5          5.7140   54.3917   27.0807 C.ar      1 UNK         0.0000 
      6 C6          4.9650   54.2493   25.9036 C.ar      1 UNK         0.0000 
      7 C7          3.5551   54.0977   25.9797 C.ar      1 UNK         0.0000 
      8 C8          2.8920   54.0905   27.2150 C.ar      1 UNK         0.0000 
      9 S9          2.9061   53.9455   24.3490 S.3       1 UNK         0.0000 
     10 C10         4.5376   54.1073   23.7428 C.2       1 UNK         0.0000 
     11 N11         5.4789   54.2466   24.6438 N.2       1 UNK         0.0000 
     12 N12         4.7038   54.0958   22.3615 N.am      1 UNK         0.0000 
     13 C13         5.7219   54.6777   21.6822 C.2       1 UNK         0.0000 
     14 O14         6.6455   55.2988   22.2135 O.2       1 UNK         0.0000 
     15 C15         5.6900   54.4963   20.2433 C.ar      1 UNK         0.0000 
     16 C16         5.1594   53.4774   19.5407 C.ar      1 UNK         0.0000 
     17 C17         5.4335   53.6570   18.2026 C.ar      1 UNK         0.0000 
     18 N18         5.2972   52.8967   17.1145 N.pl3     1 UNK         0.0000 
     19 C19         5.9793   53.1332   15.8357 C.3       1 UNK         0.0000 
     20 H20         5.2840   52.7872   15.0693 H         1 UNK         0.0000 
     21 C21         6.1984   54.6574   15.6864 C.3       1 UNK         0.0000 
     22 C22         6.7718   55.3677   16.9420 C.3       1 UNK         0.0000 
     23 H23         7.7983   55.0269   17.0939 H         1 UNK         0.0000 
     24 N24         6.0024   54.8664   18.0991 N.pl3     1 UNK         0.0000 
     25 N25         6.3151   55.3381   19.3489 N.pl3     1 UNK         0.0000 
     26 C26         6.7789   56.9105   16.7971 C.3       1 UNK         0.0000 
     27 F27         5.5413   57.3995   16.7095 F         1 UNK         0.0000 
     28 F28         7.3703   57.5015   17.8370 F         1 UNK         0.0000 
     29 F29         7.4393   57.2880   15.7012 F         1 UNK         0.0000 
     30 C30         7.2589   52.3124   15.6549 C.ar      1 UNK         0.0000 
     31 C31         8.1417   52.1196   16.7388 C.ar      1 UNK         0.0000 
     32 C32         9.2815   51.3168   16.6207 C.ar      1 UNK         0.0000 
     33 C33         9.5325   50.7429   15.3843 C.ar      1 UNK         0.0000 
     34 C34         8.6968   50.9337   14.3190 C.ar      1 UNK         0.0000 
     35 C35         7.5420   51.7065   14.4165 C.ar      1 UNK         0.0000 
     36 O36         9.1577   50.2190   13.2596 O.3       1 UNK         0.0000 
     37 C37        10.4478   49.8099   13.6303 C.3       1 UNK         0.0000 
     38 O38        10.5428   49.9094   15.0252 O.3       1 UNK         0.0000 
     39 H39         1.3417   53.1731   29.4218 H         1 UNK         0.0000 
     40 H40         1.4444   54.1495   30.8783 H         1 UNK         0.0000 
     41 H41         1.1556   54.9405   29.3366 H         1 UNK         0.0000 
     42 H42         5.6074   54.5146   29.2156 H         1 UNK         0.0000 
     43 H43         6.7856   54.5033   27.0497 H         1 UNK         0.0000 
     44 H44         1.8192   53.9754   27.2453 H         1 UNK         0.0000 
     45 H45         3.8941   53.8192   21.8262 H         1 UNK         0.0000 
     46 H46         4.6710   52.6002   19.9460 H         1 UNK         0.0000 
     47 H47         6.8332   54.8534   14.8198 H         1 UNK         0.0000 
     48 H48         5.2341   55.1094   15.4392 H         1 UNK         0.0000 
     49 H49         6.4462   56.3353   19.4378 H         1 UNK         0.0000 
     50 H50         7.9290   52.5845   17.6862 H         1 UNK         0.0000 
     51 H51         9.9293   51.1513   17.4675 H         1 UNK         0.0000 
     52 H52         6.8784   51.8237   13.5720 H         1 UNK         0.0000 
     53 H53        10.6572   48.7958   13.2931 H         1 UNK         0.0000 
     54 H54        11.1824   50.4720   13.1624 H         1 UNK         0.0000 
     55 H55         5.0216   51.9314   17.2927 H         1 UNK         0.0000 
@<TRIPOS>BOND
     1    1    2 1    
     2    1   39 1    
     3    1   40 1    
     4    1   41 1    
     5    2    3 1    
     6    3    8 ar   
     7    3    4 ar   
     8    4    5 ar   
     9    4   42 1    
    10    5    6 ar   
    11    5   43 1    
    12    6   11 1    
    13    6    7 ar   
    14    7    8 ar   
    15    7    9 1    
    16    8   44 1    
    17    9   10 1    
    18   10   11 2    
    19   10   12 am   BACKBONE|DICT|INTERRES
    20   12   13 am   BACKBONE|DICT|INTERRES
    21   12   45 1    
    22   13   14 2    
    23   13   15 1    
    24   15   25 ar   
    25   15   16 ar   
    26   16   17 ar   
    27   16   46 1    
    28   17   24 ar   
    29   17   18 2    
    30   18   19 1    
    31   18   55 1    
    32   19   20 1    
    33   19   21 1    
    34   19   30 1    
    35   21   22 1    
    36   21   47 1    
    37   21   48 1    
    38   22   23 1    
    39   22   24 1    
    40   22   26 1    
    41   24   25 1    
    42   25   49 1    
    43   26   27 1    
    44   26   28 1    
    45   26   29 1    
    46   30   35 ar   
    47   30   31 ar   
    48   31   32 ar   
    49   31   50 1    
    50   32   33 ar   
    51   32   51 1    
    52   33   38 1    
    53   33   34 ar   
    54   34   35 ar   
    55   34   36 1    
    56   35   52 1    
    57   36   37 1    
    58   37   38 1    
    59   37   53 1    
    60   37   54 1    
@<TRIPOS>SUBSTRUCTURE
     1 UNK         1 GROUP             0       ****    0 ROOT    
