@<TRIPOS>MOLECULE
ZINC12453050_4823
74   78    1
SMALL
USER_CHARGES


@<TRIPOS>ATOM
      1 C1         -2.1392   47.0864   22.0775 C.3       1 UNK         0.0000 
      2 C2         -1.6762   48.4812   22.4551 C.ar      1 UNK         0.0000 
      3 C3         -2.0644   49.5825   21.6880 C.ar      1 UNK         0.0000 
      4 C4         -1.6240   50.8585   22.0304 C.ar      1 UNK         0.0000 
      5 C5         -0.7765   51.0373   23.1297 C.ar      1 UNK         0.0000 
      6 C6         -0.4114   49.9299   23.9110 C.ar      1 UNK         0.0000 
      7 C7         -0.8564   48.6560   23.5706 C.ar      1 UNK         0.0000 
      8 C8         -0.3120   52.4241   23.5000 C.2       1 UNK         0.0000 
      9 O9         -1.1671   53.2956   23.6820 O.2       1 UNK         0.0000 
     10 N10         1.0194   52.6477   23.6900 N.am      1 UNK         0.0000 
     11 C11         1.4703   53.7361   24.5756 C.3       1 UNK         0.0000 
     12 C12         1.8321   53.2934   25.9927 C.ar      1 UNK         0.0000 
     13 C13         3.0408   53.6972   26.5643 C.ar      1 UNK         0.0000 
     14 C14         3.3601   53.3123   27.8648 C.ar      1 UNK         0.0000 
     15 C15         2.4733   52.5179   28.6095 C.ar      1 UNK         0.0000 
     16 C16         1.2720   52.1138   28.0290 C.ar      1 UNK         0.0000 
     17 C17         0.9503   52.4979   26.7312 C.ar      1 UNK         0.0000 
     18 O18         2.6984   52.0950   29.9062 O.3       1 UNK         0.0000 
     19 C19         3.9051   52.4678   30.5592 C.3       1 UNK         0.0000 
     20 C20         2.0881   51.7694   23.1820 C.3       1 UNK         0.0000 
     21 C21         2.9820   52.3617   22.0825 C.ar      1 UNK         0.0000 
     22 C22         3.9982   53.2454   22.4754 C.ar      1 UNK         0.0000 
     23 C23         4.8226   53.8815   21.5172 C.ar      1 UNK         0.0000 
     24 C24         5.9043   54.7252   21.8767 C.ar      1 UNK         0.0000 
     25 C25         6.7013   55.3021   20.8885 C.ar      1 UNK         0.0000 
     26 C26         6.4409   55.0799   19.5390 C.ar      1 UNK         0.0000 
     27 C27         5.3834   54.2624   19.1377 C.ar      1 UNK         0.0000 
     28 C28         4.5713   53.6561   20.1354 C.ar      1 UNK         0.0000 
     29 C29         2.7600   52.1446   20.7049 C.ar      1 UNK         0.0000 
     30 N30         1.7983   51.2275   20.1541 N.pl3     1 UNK         0.0000 
     31 C31         1.6928   49.8148   20.6139 C.3       1 UNK         0.0000 
     32 C32         2.0344   48.7906   19.5053 C.3       1 UNK         0.0000 
     33 C33         1.3496   49.0840   18.1687 C.3       1 UNK         0.0000 
     34 C34         1.6347   50.5330   17.7657 C.3       1 UNK         0.0000 
     35 H35         2.7094   50.6854   17.6817 H         1 UNK         0.0000 
     36 C36         1.1293   51.4954   18.8522 C.3       1 UNK         0.0000 
     37 O37         1.0953   50.8372   16.5010 O.3       1 UNK         0.0000 
     38 C38         5.1162   53.9972   17.6620 C.3       1 UNK         0.0000 
     39 H39        -1.2936   46.3961   22.0712 H         1 UNK         0.0000 
     40 H40        -2.8606   46.7183   22.8095 H         1 UNK         0.0000 
     41 H41        -2.5950   47.0604   21.0874 H         1 UNK         0.0000 
     42 H42        -2.7022   49.4529   20.8253 H         1 UNK         0.0000 
     43 H43        -1.9301   51.7008   21.4264 H         1 UNK         0.0000 
     44 H44         0.2099   50.0489   24.7878 H         1 UNK         0.0000 
     45 H45        -0.5599   47.8111   24.1799 H         1 UNK         0.0000 
     46 H46         0.7044   54.4985   24.6664 H         1 UNK         0.0000 
     47 H47         2.3051   54.2675   24.1226 H         1 UNK         0.0000 
     48 H48         3.7297   54.3174   26.0105 H         1 UNK         0.0000 
     49 H49         4.3011   53.6382   28.2789 H         1 UNK         0.0000 
     50 H50         0.5804   51.5025   28.5915 H         1 UNK         0.0000 
     51 H51         0.0042   52.1846   26.3140 H         1 UNK         0.0000 
     52 H52         3.9021   52.0847   31.5803 H         1 UNK         0.0000 
     53 H53         4.0161   53.5517   30.6122 H         1 UNK         0.0000 
     54 H54         4.7726   52.0477   30.0495 H         1 UNK         0.0000 
     55 H55         2.7036   51.4920   24.0334 H         1 UNK         0.0000 
     56 H56         1.6814   50.8303   22.8375 H         1 UNK         0.0000 
     57 H57         4.1994   53.4239   23.5209 H         1 UNK         0.0000 
     58 H58         6.1226   54.9070   22.9187 H         1 UNK         0.0000 
     59 H59         7.5375   55.9253   21.1717 H         1 UNK         0.0000 
     60 H60         7.0796   55.5374   18.7972 H         1 UNK         0.0000 
     61 H61         2.4346   49.6462   21.3936 H         1 UNK         0.0000 
     62 H62         0.7095   49.6630   21.0547 H         1 UNK         0.0000 
     63 H63         3.1099   48.7969   19.3370 H         1 UNK         0.0000 
     64 H64         1.7946   47.7813   19.8431 H         1 UNK         0.0000 
     65 H65         1.6981   48.3941   17.3978 H         1 UNK         0.0000 
     66 H66         0.2737   48.9288   18.2744 H         1 UNK         0.0000 
     67 H67         0.0515   51.4268   19.0035 H         1 UNK         0.0000 
     68 H68         1.3348   52.5236   18.5507 H         1 UNK         0.0000 
     69 H69         1.6172   50.3635   15.8453 H         1 UNK         0.0000 
     70 H70         5.8253   54.5211   17.0174 H         1 UNK         0.0000 
     71 H71         5.1977   52.9305   17.4431 H         1 UNK         0.0000 
     72 H72         4.1131   54.3248   17.3877 H         1 UNK         0.0000 
     73 N73         3.5357   52.8080   19.8218 N.pl3     1 UNK         0.0000 
     74 H74         3.3866   52.6129   18.8438 H         1 UNK         0.0000 
@<TRIPOS>BOND
     1    1    2 1    
     2    1   39 1    
     3    1   40 1    
     4    1   41 1    
     5    2    7 ar   
     6    2    3 ar   
     7    3    4 ar   
     8    3   42 1    
     9    4    5 ar   
    10    4   43 1    
    11    5    6 ar   
    12    5    8 1    
    13    6    7 ar   
    14    6   44 1    
    15    7   45 1    
    16    8    9 2    
    17    8   10 am   BACKBONE|DICT|INTERRES
    18   10   11 1    
    19   10   20 1    
    20   11   12 1    
    21   11   46 1    
    22   11   47 1    
    23   12   17 ar   
    24   12   13 ar   
    25   13   14 ar   
    26   13   48 1    
    27   14   15 ar   
    28   14   49 1    
    29   15   16 ar   
    30   15   18 1    
    31   16   17 ar   
    32   16   50 1    
    33   17   51 1    
    34   18   19 1    
    35   19   52 1    
    36   19   53 1    
    37   19   54 1    
    38   20   21 1    
    39   20   55 1    
    40   20   56 1    
    41   21   29 ar   
    42   21   22 ar   
    43   22   23 ar   
    44   22   57 1    
    45   23   28 ar   
    46   23   24 ar   
    47   24   25 ar   
    48   24   58 1    
    49   25   26 ar   
    50   25   59 1    
    51   26   27 ar   
    52   26   60 1    
    53   27   28 ar   
    54   27   38 1    
    55   28   73 ar   
    56   29   30 1    
    57   29   73 ar   
    58   30   36 1    
    59   30   31 1    
    60   31   32 1    
    61   31   61 1    
    62   31   62 1    
    63   32   33 1    
    64   32   63 1    
    65   32   64 1    
    66   33   34 1    
    67   33   65 1    
    68   33   66 1    
    69   34   35 1    
    70   34   36 1    
    71   34   37 1    
    72   36   67 1    
    73   36   68 1    
    74   37   69 1    
    75   38   70 1    
    76   38   71 1    
    77   38   72 1    
    78   73   74 1    
@<TRIPOS>SUBSTRUCTURE
     1 UNK         1 GROUP             0       ****    0 ROOT    
