ZINC27531053_2053
                    3D
 Schrodinger Suite 2024-2.
 61 65  0  0  1  0            999 V2000
    0.5063   53.2292   14.0114 C   0  0  0  0  0  0
    1.7108   53.2980   14.9315 C   0  0  0  0  0  0
    2.8206   52.4876   14.6900 C   0  0  0  0  0  0
    3.9209   52.5433   15.5408 C   0  0  0  0  0  0
    3.9121   53.3947   16.6527 C   0  0  0  0  0  0
    2.7964   54.2122   16.8828 C   0  0  0  0  0  0
    1.6981   54.1579   16.0299 C   0  0  0  0  0  0
    5.1206   53.4724   17.5394 C   0  0  0  0  0  0
    6.2451   53.2968   17.0642 O   0  0  0  0  0  0
    4.9798   53.6985   19.0089 C   0  0  0  0  0  0
    4.0177   53.0949   19.7616 C   0  0  0  0  0  0
    3.9178   53.3101   21.1528 N   0  0  0  0  0  0
    4.8602   54.1130   21.8353 C   0  0  0  0  0  0
    5.8973   54.7168   21.1683 C   0  0  0  0  0  0
    6.0618   54.6156   19.6223 C   0  0  2  0  0  0
    7.0058   54.0976   19.4358 H   0  0  0  0  0  0
    6.3335   55.9432   18.8624 C   0  0  0  0  0  0
    5.2701   56.7045   18.3665 C   0  0  0  0  0  0
    5.5044   57.8961   17.6816 C   0  0  0  0  0  0
    6.8027   58.3723   17.5278 C   0  0  0  0  0  0
    7.8916   57.6350   18.0099 C   0  0  0  0  0  0
    7.6416   56.4029   18.6337 C   0  0  0  0  0  0
    9.2738   58.1537   17.8796 N   0  3  0  0  0  0
   10.2094   57.3844   18.0736 O   0  0  0  0  0  0
    9.4314   59.3396   17.5989 O   0  5  0  0  0  0
    7.0025   55.3846   21.9106 C   0  0  0  0  0  0
    8.0609   55.6968   21.3751 O   0  0  0  0  0  0
    6.8567   55.5707   23.4262 C   0  0  0  0  0  0
    6.1405   54.3721   24.0432 C   0  0  0  0  0  0
    4.7694   54.1791   23.3833 C   0  0  0  0  0  0
    2.8625   52.7028   21.8993 C   0  0  0  0  0  0
    2.8001   51.3084   22.0386 C   0  0  0  0  0  0
    1.7992   50.7127   22.8010 C   0  0  0  0  0  0
    0.8464   51.5117   23.4264 C   0  0  0  0  0  0
    0.8846   52.8968   23.2897 C   0  0  0  0  0  0
    1.8874   53.4884   22.5251 C   0  0  0  0  0  0
    3.1045   52.1966   19.2383 N   0  0  0  0  0  0
    0.5729   53.9925   13.2350 H   0  0  0  0  0  0
    0.4267   52.2487   13.5386 H   0  0  0  0  0  0
   -0.4169   53.3823   14.5711 H   0  0  0  0  0  0
    2.8358   51.8129   13.8460 H   0  0  0  0  0  0
    4.7706   51.9040   15.3415 H   0  0  0  0  0  0
    2.7607   54.8809   17.7309 H   0  0  0  0  0  0
    0.8404   54.7849   16.2248 H   0  0  0  0  0  0
    4.2536   56.3742   18.5140 H   0  0  0  0  0  0
    4.6767   58.4750   17.2960 H   0  0  0  0  0  0
    6.9511   59.3229   17.0325 H   0  0  0  0  0  0
    8.4788   55.8109   18.9767 H   0  0  0  0  0  0
    6.3044   56.4846   23.6078 H   0  0  0  0  0  0
    7.8260   55.7597   23.8788 H   0  0  0  0  0  0
    6.0254   54.5111   25.1191 H   0  0  0  0  0  0
    6.7511   53.4748   23.9164 H   0  0  0  0  0  0
    4.0202   54.8966   23.7156 H   0  0  0  0  0  0
    4.4590   53.2229   23.7920 H   0  0  0  0  0  0
    3.5462   50.6847   21.5671 H   0  0  0  0  0  0
    1.7699   49.6382   22.9162 H   0  0  0  0  0  0
    0.0726   51.0524   24.0248 H   0  0  0  0  0  0
    0.1426   53.5107   23.7784 H   0  0  0  0  0  0
    1.9151   54.5632   22.4249 H   0  0  0  0  0  0
    3.2485   51.8046   18.3166 H   0  0  0  0  0  0
    2.3937   51.7800   19.8199 H   0  0  0  0  0  0
  1  2  1  0  0  0
  1 38  1  0  0  0
  1 39  1  0  0  0
  1 40  1  0  0  0
  2  7  2  0  0  0
  2  3  1  0  0  0
  3  4  2  0  0  0
  3 41  1  0  0  0
  4  5  1  0  0  0
  4 42  1  0  0  0
  5  6  2  0  0  0
  5  8  1  0  0  0
  6  7  1  0  0  0
  6 43  1  0  0  0
  7 44  1  0  0  0
  8  9  2  0  0  0
  8 10  1  0  0  0
 10 15  1  0  0  0
 10 11  2  0  0  0
 11 12  1  0  0  0
 11 37  1  0  0  0
 12 13  1  0  0  0
 12 31  1  0  0  0
 13 30  1  0  0  0
 13 14  2  0  0  0
 14 15  1  0  0  0
 14 26  1  0  0  0
 15 16  1  0  0  0
 15 17  1  0  0  0
 17 22  2  0  0  0
 17 18  1  0  0  0
 18 19  2  0  0  0
 18 45  1  0  0  0
 19 20  1  0  0  0
 19 46  1  0  0  0
 20 21  2  0  0  0
 20 47  1  0  0  0
 21 22  1  0  0  0
 21 23  1  0  0  0
 22 48  1  0  0  0
 23 24  2  0  0  0
 23 25  1  0  0  0
 26 27  2  0  0  0
 26 28  1  0  0  0
 28 29  1  0  0  0
 28 49  1  0  0  0
 28 50  1  0  0  0
 29 30  1  0  0  0
 29 51  1  0  0  0
 29 52  1  0  0  0
 30 53  1  0  0  0
 30 54  1  0  0  0
 31 36  2  0  0  0
 31 32  1  0  0  0
 32 33  2  0  0  0
 32 55  1  0  0  0
 33 34  1  0  0  0
 33 56  1  0  0  0
 34 35  2  0  0  0
 34 57  1  0  0  0
 35 36  1  0  0  0
 35 58  1  0  0  0
 36 59  1  0  0  0
 37 60  1  0  0  0
 37 61  1  0  0  0
M  CHG  2  23   1  25  -1
M  END
> <i_i_glide_confnum>
30

> <i_i_glide_lignum>
2054

> <i_i_glide_posenum>
367

> <i_i_glide_rotatable_bonds>
5

> <i_m_Source_File_Index>
3705

> <b_m_subgroup_collapsed>
0

> <r_i_docking_score>
-3.74914

> <r_i_glide_ecoul>
-1.15021

> <r_i_glide_eff_state_penalty>
0

> <r_i_glide_einternal>
5.34935

> <r_i_glide_emodel>
-40.8114

> <r_i_glide_energy>
-35.3987

> <r_i_glide_erotb>
0.352647

> <r_i_glide_esite>
-0.15414

> <r_i_glide_evdw>
-34.2485

> <r_i_glide_gscore>
-3.74914

> <r_i_glide_hbond>
0

> <r_i_glide_ligand_efficiency>
-0.104143

> <r_i_glide_ligand_efficiency_ln>
-0.817961

> <r_i_glide_ligand_efficiency_sa>
-0.343872

> <r_i_glide_lipo>
-1.61697

> <r_i_glide_metal>
0

> <r_i_glide_rewards>
-0.445715

> <s_i_glide_gridfile>
wee1_glide-grid

> <s_m_Source_File>
wee1_decoys_glide_SP.sdf

> <s_m_Source_Path>
/Users/zhangxujun/Desktop

> <s_m_entry_id>
3980

> <s_m_entry_name>
wee1_decoys_glide_SP.3705

> <s_m_subgroup_title>
wee1_decoys_glide_SP

> <s_m_subgroupid>
wee1_decoys_glide_SP


$$$$
