@<TRIPOS>MOLECULE
ZINC03770997_5424
47   49    1
SMALL
USER_CHARGES


@<TRIPOS>ATOM
      1 C1         -4.8858   47.2733   29.5947 C.ar      1 UNK         0.0000 
      2 C2         -3.9262   46.4959   28.9560 C.ar      1 UNK         0.0000 
      3 C3         -3.7362   46.5885   27.5791 C.ar      1 UNK         0.0000 
      4 C4         -4.5471   47.4529   26.8257 C.ar      1 UNK         0.0000 
      5 C5         -5.5324   48.2101   27.4715 C.ar      1 UNK         0.0000 
      6 C6         -5.6953   48.1419   28.8601 C.ar      1 UNK         0.0000 
      7 C7         -6.7107   49.0393   29.5699 C.3       1 UNK         0.0000 
      8 F8         -7.1348   48.4917   30.7116 F         1 UNK         0.0000 
      9 F9         -6.1294   50.2056   29.8540 F         1 UNK         0.0000 
     10 F10        -7.7724   49.2708   28.7963 F         1 UNK         0.0000 
     11 S11        -4.2865   47.6950   25.0678 S.o2      1 UNK         0.0000 
     12 O12        -5.3994   48.5122   24.5659 O.2       1 UNK         0.0000 
     13 O13        -4.0085   46.3816   24.4705 O.2       1 UNK         0.0000 
     14 N14        -2.8040   48.6477   25.0000 N.am      1 UNK         0.0000 
     15 C15        -2.5521   49.7298   24.1231 C.2       1 UNK         0.0000 
     16 O16        -3.3860   50.0507   23.2734 O.2       1 UNK         0.0000 
     17 N17        -1.3722   50.3967   24.2753 N.am      1 UNK         0.0000 
     18 C18        -1.0759   51.5561   23.4021 C.3       1 UNK         0.0000 
     19 C19        -0.6267   52.7387   24.2867 C.3       1 UNK         0.0000 
     20 N20         0.5384   52.3452   25.0957 N.pl3     1 UNK         0.0000 
     21 C21         0.2019   51.2172   25.9956 C.3       1 UNK         0.0000 
     22 C22        -0.2819   49.9816   25.1918 C.3       1 UNK         0.0000 
     23 C23         1.7603   53.0941   25.1612 C.ar      1 UNK         0.0000 
     24 C24         2.5020   53.4705   24.0226 C.ar      1 UNK         0.0000 
     25 C25         3.7603   54.0838   24.1869 C.ar      1 UNK         0.0000 
     26 C26         4.2600   54.3062   25.4870 C.ar      1 UNK         0.0000 
     27 C27         3.4745   53.9388   26.5963 C.ar      1 UNK         0.0000 
     28 Cl28        3.9717   54.1916   28.2387 Cl        1 UNK         0.0000 
     29 C29         5.6000   54.8616   25.6887 C.1       1 UNK         0.0000 
     30 N30         6.6620   55.2964   25.8484 N.1       1 UNK         0.0000 
     31 Cl31        4.6970   54.4943   22.7790 Cl        1 UNK         0.0000 
     32 Cl32        1.9185   53.1326   22.4225 Cl        1 UNK         0.0000 
     33 Cl33       -2.4300   45.6965   26.8812 Cl        1 UNK         0.0000 
     34 H34        -4.9697   47.2250   30.6722 H         1 UNK         0.0000 
     35 H35        -3.2709   45.8685   29.5391 H         1 UNK         0.0000 
     36 H36        -6.1477   48.8959   26.9017 H         1 UNK         0.0000 
     37 H37        -2.0949   48.3667   25.6805 H         1 UNK         0.0000 
     38 H38        -1.8963   51.8511   22.7451 H         1 UNK         0.0000 
     39 H39        -0.2411   51.2532   22.7675 H         1 UNK         0.0000 
     40 H40        -1.4227   53.0432   24.9686 H         1 UNK         0.0000 
     41 H41        -0.4007   53.6223   23.6898 H         1 UNK         0.0000 
     42 H42         1.0736   50.9565   26.5934 H         1 UNK         0.0000 
     43 H43        -0.5690   51.5472   26.6935 H         1 UNK         0.0000 
     44 H44         0.5354   49.6151   24.5679 H         1 UNK         0.0000 
     45 H45        -0.5680   49.1891   25.8846 H         1 UNK         0.0000 
     46 N46         2.2851   53.3453   26.3774 N.pl3     1 UNK         0.0000 
     47 H47         1.7536   53.0564   27.1854 H         1 UNK         0.0000 
@<TRIPOS>BOND
     1    1    6 ar   
     2    1    2 ar   
     3    1   34 1    
     4    2    3 ar   
     5    2   35 1    
     6    3    4 ar   
     7    3   33 1    
     8    4    5 ar   
     9    4   11 1    
    10    5    6 ar   
    11    5   36 1    
    12    6    7 1    
    13    7    8 1    
    14    7    9 1    
    15    7   10 1    
    16   11   12 2    
    17   11   13 2    
    18   11   14 1    
    19   14   15 am   BACKBONE|DICT|INTERRES
    20   14   37 1    
    21   15   16 2    
    22   15   17 am   BACKBONE|DICT|INTERRES
    23   17   22 1    
    24   17   18 1    
    25   18   19 1    
    26   18   38 1    
    27   18   39 1    
    28   19   20 1    
    29   19   40 1    
    30   19   41 1    
    31   20   21 1    
    32   20   23 1    
    33   21   22 1    
    34   21   42 1    
    35   21   43 1    
    36   22   44 1    
    37   22   45 1    
    38   23   24 ar   
    39   23   46 ar   
    40   24   25 ar   
    41   24   32 1    
    42   25   26 ar   
    43   25   31 1    
    44   26   27 ar   
    45   26   29 1    
    46   27   28 1    
    47   27   46 ar   
    48   29   30 3    
    49   46   47 1    
@<TRIPOS>SUBSTRUCTURE
     1 UNK         1 GROUP             0       ****    0 ROOT    
