@<TRIPOS>MOLECULE
ZINC08445652_5209
51   54    1
SMALL
USER_CHARGES


@<TRIPOS>ATOM
      1 C1         -1.3035   47.4214   21.0534 C.3       1 UNK         0.0000 
      2 O2         -0.2838   47.6765   20.0917 O.3       1 UNK         0.0000 
      3 C3          0.6041   48.7111   20.3145 C.ar      1 UNK         0.0000 
      4 C4          1.5033   48.9936   19.2872 C.ar      1 UNK         0.0000 
      5 C5          2.4220   50.0318   19.4139 C.ar      1 UNK         0.0000 
      6 C6          2.4683   50.7961   20.5791 C.ar      1 UNK         0.0000 
      7 C7          1.5791   50.5068   21.6260 C.ar      1 UNK         0.0000 
      8 C8          0.6507   49.4766   21.4900 C.ar      1 UNK         0.0000 
      9 N9          3.4432   51.8123   20.6112 N.am      1 UNK         0.0000 
     10 C10         3.6698   52.7715   21.5352 C.2       1 UNK         0.0000 
     11 O11         3.0192   52.9011   22.5734 O.2       1 UNK         0.0000 
     12 C12         4.8048   53.6580   21.2600 C.2       1 UNK         0.0000 
     13 C13         5.2687   54.0613   19.9653 C.2       1 UNK         0.0000 
     14 C14         6.3256   54.9869   20.0506 C.2       1 UNK         0.0000 
     15 S15         6.7736   55.3455   21.6729 S.3       1 UNK         0.0000 
     16 C16         5.4986   54.3381   22.2890 C.2       1 UNK         0.0000 
     17 N17         5.2412   54.2236   23.6541 N.am      1 UNK         0.0000 
     18 C18         5.7898   54.8652   24.7116 C.2       1 UNK         0.0000 
     19 O19         6.7043   55.6881   24.6595 O.2       1 UNK         0.0000 
     20 C20         5.2047   54.4746   26.0439 C.ar      1 UNK         0.0000 
     21 C21         3.8565   54.0942   26.1554 C.ar      1 UNK         0.0000 
     22 C22         3.3489   53.6655   27.3751 C.ar      1 UNK         0.0000 
     23 C23         4.1789   53.6137   28.4881 C.ar      1 UNK         0.0000 
     24 C24         5.4995   54.0491   28.4083 C.ar      1 UNK         0.0000 
     25 C25         6.0119   54.4765   27.1870 C.ar      1 UNK         0.0000 
     26 Br26        3.5007   52.8977   30.1138 Br        1 UNK         0.0000 
     27 C27         7.0772   55.5882   18.8722 C.3       1 UNK         0.0000 
     28 C28         6.2135   55.4494   17.6061 C.3       1 UNK         0.0000 
     29 C29         5.6888   54.0154   17.4476 C.3       1 UNK         0.0000 
     30 C30         4.7441   53.5967   18.5963 C.3       1 UNK         0.0000 
     31 H31        -1.9304   46.6012   20.7068 H         1 UNK         0.0000 
     32 H32        -1.9481   48.2903   21.1896 H         1 UNK         0.0000 
     33 H33        -0.8964   47.1292   22.0213 H         1 UNK         0.0000 
     34 H34         1.4856   48.4071   18.3783 H         1 UNK         0.0000 
     35 H35         3.1038   50.2220   18.5947 H         1 UNK         0.0000 
     36 H36         1.5860   51.0513   22.5564 H         1 UNK         0.0000 
     37 H37        -0.0177   49.2876   22.3142 H         1 UNK         0.0000 
     38 H38         4.0549   51.8155   19.8050 H         1 UNK         0.0000 
     39 H39         4.4846   53.5880   23.8664 H         1 UNK         0.0000 
     40 H40         3.1948   54.1010   25.3004 H         1 UNK         0.0000 
     41 H41         2.3210   53.3411   27.4496 H         1 UNK         0.0000 
     42 H42         6.1372   54.0394   29.2786 H         1 UNK         0.0000 
     43 H43         7.0482   54.7837   27.1373 H         1 UNK         0.0000 
     44 H44         7.3249   56.6367   19.0494 H         1 UNK         0.0000 
     45 H45         8.0242   55.0611   18.7346 H         1 UNK         0.0000 
     46 H46         5.3733   56.1478   17.6462 H         1 UNK         0.0000 
     47 H47         6.8019   55.7298   16.7299 H         1 UNK         0.0000 
     48 H48         5.1675   53.9115   16.4957 H         1 UNK         0.0000 
     49 H49         6.5323   53.3247   17.4022 H         1 UNK         0.0000 
     50 H50         4.6428   52.5130   18.5218 H         1 UNK         0.0000 
     51 H51         3.7500   54.0189   18.4271 H         1 UNK         0.0000 
@<TRIPOS>BOND
     1    1    2 1    
     2    1   31 1    
     3    1   32 1    
     4    1   33 1    
     5    2    3 1    
     6    3    8 ar   
     7    3    4 ar   
     8    4    5 ar   
     9    4   34 1    
    10    5    6 ar   
    11    5   35 1    
    12    6    7 ar   
    13    6    9 1    
    14    7    8 ar   
    15    7   36 1    
    16    8   37 1    
    17    9   10 am   BACKBONE|DICT|INTERRES
    18    9   38 1    
    19   10   11 2    
    20   10   12 1    
    21   12   16 2    
    22   12   13 1    
    23   13   30 1    
    24   13   14 2    
    25   14   15 1    
    26   14   27 1    
    27   15   16 1    
    28   16   17 am   BACKBONE|DICT|INTERRES
    29   17   18 am   BACKBONE|DICT|INTERRES
    30   17   39 1    
    31   18   19 2    
    32   18   20 1    
    33   20   25 ar   
    34   20   21 ar   
    35   21   22 ar   
    36   21   40 1    
    37   22   23 ar   
    38   22   41 1    
    39   23   24 ar   
    40   23   26 1    
    41   24   25 ar   
    42   24   42 1    
    43   25   43 1    
    44   27   28 1    
    45   27   44 1    
    46   27   45 1    
    47   28   29 1    
    48   28   46 1    
    49   28   47 1    
    50   29   30 1    
    51   29   48 1    
    52   29   49 1    
    53   30   50 1    
    54   30   51 1    
@<TRIPOS>SUBSTRUCTURE
     1 UNK         1 GROUP             0       ****    0 ROOT    
