ZINC34791854_2820
                    3D
 Schrodinger Suite 2024-2.
 57 60  0  0  1  0            999 V2000
   -2.5204   52.1442   23.1283 C   0  0  0  0  0  0
   -2.7889   50.6628   23.5018 C   0  0  0  0  0  0
   -2.1958   49.7459   22.4006 C   0  0  0  0  0  0
   -2.4849   50.2859   25.0255 C   0  0  2  0  0  0
   -3.7920   50.4808   25.8988 C   0  0  1  0  0  0
   -4.5079   49.7476   25.5263 H   0  0  0  0  0  0
   -3.5603   50.1450   27.4088 C   0  0  1  0  0  0
   -3.2958   49.0903   27.4806 H   0  0  0  0  0  0
   -2.3675   50.8998   27.8185 N   0  0  0  0  0  0
   -1.2991   51.2889   27.0639 C   0  0  0  0  0  0
   -0.0630   52.0220   27.9232 S   0  0  0  0  0  0
   -1.3145   50.9704   25.7086 N   0  0  0  0  0  0
   -0.1618   51.1358   24.8842 C   0  0  0  0  0  0
    0.5111   50.0131   24.3750 C   0  0  0  0  0  0
    1.5273   50.1632   23.4298 C   0  0  0  0  0  0
    1.9036   51.4375   23.0126 C   0  0  0  0  0  0
    1.3019   52.5698   23.5856 C   0  0  0  0  0  0
    0.2698   52.4192   24.5089 C   0  0  0  0  0  0
    1.6361   53.8530   23.2011 O   0  0  0  0  0  0
    2.9004   53.9414   22.5323 C   0  0  0  0  0  0
    3.0290   52.8234   21.4687 C   0  0  0  0  0  0
    2.9199   51.5338   22.0814 O   0  0  0  0  0  0
   -4.7890   50.2338   28.3364 C   0  0  0  0  0  0
   -6.0817   49.9751   27.8522 C   0  0  0  0  0  0
   -7.1889   50.0263   28.6983 C   0  0  0  0  0  0
   -7.0175   50.3187   30.0487 C   0  0  0  0  0  0
   -5.7396   50.5447   30.5530 C   0  0  0  0  0  0
   -4.6313   50.4919   29.7066 C   0  0  0  0  0  0
   -5.5813   50.8190   31.8651 F   0  0  0  0  0  0
   -4.5228   51.8356   25.6836 C   0  0  0  0  0  0
   -5.6010   51.8790   25.0884 O   0  0  0  0  0  0
   -3.8695   52.8968   26.1875 O   0  0  0  0  0  0
   -4.4060   54.2001   26.0551 C   0  0  0  0  0  0
   -2.2848   48.8761   25.0849 O   0  0  0  0  0  0
   -1.5785   52.2711   22.5939 H   0  0  0  0  0  0
   -3.2956   52.5305   22.4813 H   0  0  0  0  0  0
   -2.4943   52.8066   23.9908 H   0  0  0  0  0  0
   -3.8613   50.5089   23.3666 H   0  0  0  0  0  0
   -1.1131   49.8180   22.3352 H   0  0  0  0  0  0
   -2.4524   48.6976   22.5557 H   0  0  0  0  0  0
   -2.5866   50.0171   21.4195 H   0  0  0  0  0  0
   -2.1187   50.8427   28.7962 H   0  0  0  0  0  0
    0.2254   49.0150   24.6746 H   0  0  0  0  0  0
    2.0237   49.2945   23.0237 H   0  0  0  0  0  0
   -0.2278   53.2965   24.8913 H   0  0  0  0  0  0
    3.0104   54.9242   22.0776 H   0  0  0  0  0  0
    3.7016   53.8291   23.2653 H   0  0  0  0  0  0
    2.2338   52.9343   20.7292 H   0  0  0  0  0  0
    3.9817   52.8966   20.9438 H   0  0  0  0  0  0
   -6.2465   49.7301   26.8139 H   0  0  0  0  0  0
   -8.1777   49.8342   28.3077 H   0  0  0  0  0  0
   -7.8706   50.3571   30.7097 H   0  0  0  0  0  0
   -3.6494   50.6378   30.1333 H   0  0  0  0  0  0
   -3.6989   54.9061   26.4812 H   0  0  0  0  0  0
   -4.5618   54.4618   25.0072 H   0  0  0  0  0  0
   -5.3538   54.2930   26.5875 H   0  0  0  0  0  0
   -2.0873   48.6347   25.9975 H   0  0  0  0  0  0
  1  2  1  0  0  0
  1 35  1  0  0  0
  1 36  1  0  0  0
  1 37  1  0  0  0
  2  3  1  0  0  0
  2  4  1  0  0  0
  2 38  1  0  0  0
  3 39  1  0  0  0
  3 40  1  0  0  0
  3 41  1  0  0  0
  4 12  1  0  0  0
  4  5  1  0  0  0
  4 34  1  0  0  0
  5  6  1  0  0  0
  5  7  1  0  0  0
  5 30  1  0  0  0
  7  8  1  0  0  0
  7  9  1  0  0  0
  7 23  1  0  0  0
  9 10  1  0  0  0
  9 42  1  0  0  0
 10 11  2  0  0  0
 10 12  1  0  0  0
 12 13  1  0  0  0
 13 18  2  0  0  0
 13 14  1  0  0  0
 14 15  2  0  0  0
 14 43  1  0  0  0
 15 16  1  0  0  0
 15 44  1  0  0  0
 16 22  1  0  0  0
 16 17  2  0  0  0
 17 18  1  0  0  0
 17 19  1  0  0  0
 18 45  1  0  0  0
 19 20  1  0  0  0
 20 21  1  0  0  0
 20 46  1  0  0  0
 20 47  1  0  0  0
 21 22  1  0  0  0
 21 48  1  0  0  0
 21 49  1  0  0  0
 23 28  2  0  0  0
 23 24  1  0  0  0
 24 25  2  0  0  0
 24 50  1  0  0  0
 25 26  1  0  0  0
 25 51  1  0  0  0
 26 27  2  0  0  0
 26 52  1  0  0  0
 27 28  1  0  0  0
 27 29  1  0  0  0
 28 53  1  0  0  0
 30 31  2  0  0  0
 30 32  1  0  0  0
 32 33  1  0  0  0
 33 54  1  0  0  0
 33 55  1  0  0  0
 33 56  1  0  0  0
 34 57  1  0  0  0
M  END
> <i_i_glide_confnum>
16

> <i_i_glide_lignum>
2821

> <i_i_glide_posenum>
304

> <i_i_glide_rotatable_bonds>
6

> <i_m_Source_File_Index>
5690

> <b_m_subgroup_collapsed>
0

> <r_i_docking_score>
-3.26705

> <r_i_glide_ecoul>
-4.02098

> <r_i_glide_eff_state_penalty>
0

> <r_i_glide_einternal>
3.32664

> <r_i_glide_emodel>
-34.2789

> <r_i_glide_energy>
-35.7

> <r_i_glide_erotb>
0.28474

> <r_i_glide_esite>
-0.313393

> <r_i_glide_evdw>
-31.6791

> <r_i_glide_gscore>
-3.26705

> <r_i_glide_hbond>
0

> <r_i_glide_ligand_efficiency>
-0.102095

> <r_i_glide_ligand_efficiency_ln>
-0.731582

> <r_i_glide_ligand_efficiency_sa>
-0.324133

> <r_i_glide_lipo>
-0.782112

> <r_i_glide_metal>
0

> <r_i_glide_rewards>
-0.269186

> <s_i_glide_gridfile>
wee1_glide-grid

> <s_m_Source_File>
wee1_decoys_glide_SP.sdf

> <s_m_Source_Path>
/Users/zhangxujun/Desktop

> <s_m_entry_id>
5965

> <s_m_entry_name>
wee1_decoys_glide_SP.5690

> <s_m_subgroup_title>
wee1_decoys_glide_SP

> <s_m_subgroupid>
wee1_decoys_glide_SP


$$$$
