ZINC66037983_247
                    3D
 Schrodinger Suite 2024-2.
 67 70  0  0  1  0            999 V2000
   -0.3906   59.7339   15.3975 C   0  0  0  0  0  0
   -0.2836   58.2886   14.8644 C   0  0  0  0  0  0
    1.0618   57.6423   15.2550 C   0  0  0  0  0  0
    2.2522   58.4885   14.7461 C   0  0  0  0  0  0
    2.1646   59.8856   15.3980 C   0  0  0  0  0  0
    0.8417   60.5935   15.0359 C   0  0  0  0  0  0
    3.6572   57.8481   14.9136 C   0  0  0  0  0  0
    4.0113   57.4380   16.3745 N   0  3  2  0  0  0
    5.5280   57.6676   16.6144 C   0  0  0  0  0  0
    5.9394   57.2083   18.0302 C   0  0  0  0  0  0
    5.5026   55.7607   18.3630 C   0  0  2  0  0  0
    4.0120   55.5457   18.0480 C   0  0  0  0  0  0
    3.6445   55.9516   16.6140 C   0  0  0  0  0  0
    5.8994   55.1629   19.6427 N   0  0  0  0  0  0
    6.2985   55.7322   20.7982 C   0  0  0  0  0  0
    6.6973   56.8964   20.8750 O   0  0  0  0  0  0
    6.3038   54.8743   21.8531 N   0  0  0  0  0  0
    5.3365   53.7536   21.9986 C   0  0  0  0  0  0
    4.4624   54.0141   23.2457 C   0  0  0  0  0  0
    5.3590   54.1992   24.4927 C   0  0  0  0  0  0
    6.3865   55.3329   24.3069 C   0  0  0  0  0  0
    7.1884   55.1265   23.0047 C   0  0  0  0  0  0
    4.5725   54.3836   25.8069 C   0  0  0  0  0  0
    3.3481   54.4846   25.7846 O   0  0  0  0  0  0
    5.2983   54.3302   26.9432 N   0  0  0  0  0  0
    4.8643   54.3824   28.3452 C   0  0  0  0  0  0
    3.5053   54.9156   28.7616 C   0  0  0  0  0  0
    3.7881   53.4331   28.8270 C   0  0  0  0  0  0
   -1.3002   60.2061   15.0227 H   0  0  0  0  0  0
   -0.4966   59.7006   16.4805 H   0  0  0  0  0  0
   -0.3865   58.2898   13.7778 H   0  0  0  0  0  0
   -1.1108   57.6899   15.2473 H   0  0  0  0  0  0
    1.1132   56.6422   14.8227 H   0  0  0  0  0  0
    1.1211   57.4990   16.3352 H   0  0  0  0  0  0
    2.1106   58.6330   13.6729 H   0  0  0  0  0  0
    2.3113   59.8334   16.4785 H   0  0  0  0  0  0
    2.9925   60.4958   15.0326 H   0  0  0  0  0  0
    0.8303   60.8117   13.9665 H   0  0  0  0  0  0
    0.7904   61.5588   15.5419 H   0  0  0  0  0  0
    4.4082   58.5752   14.5945 H   0  0  0  0  0  0
    3.7942   56.9696   14.2787 H   0  0  0  0  0  0
    6.0695   57.1239   15.8368 H   0  0  0  0  0  0
    5.7043   58.7413   16.5060 H   0  0  0  0  0  0
    5.5045   57.8967   18.7537 H   0  0  0  0  0  0
    7.0215   57.3008   18.1308 H   0  0  0  0  0  0
    6.0345   55.1282   17.6481 H   0  0  0  0  0  0
    3.7516   54.4944   18.1858 H   0  0  0  0  0  0
    3.3988   56.0972   18.7567 H   0  0  0  0  0  0
    4.1805   55.3498   15.8754 H   0  0  0  0  0  0
    2.5739   55.8296   16.4649 H   0  0  0  0  0  0
    6.2230   54.2108   19.5574 H   0  0  0  0  0  0
    5.9048   52.8350   22.1478 H   0  0  0  0  0  0
    4.7168   53.5929   21.1159 H   0  0  0  0  0  0
    3.8202   53.1388   23.3488 H   0  0  0  0  0  0
    3.8544   54.8957   23.0394 H   0  0  0  0  0  0
    5.9458   53.2969   24.6720 H   0  0  0  0  0  0
    5.9057   56.3045   24.2354 H   0  0  0  0  0  0
    7.1259   55.3487   25.1077 H   0  0  0  0  0  0
    7.7829   54.2175   23.1102 H   0  0  0  0  0  0
    7.8974   55.9387   22.8249 H   0  0  0  0  0  0
    6.2937   54.2281   26.8236 H   0  0  0  0  0  0
    5.6960   54.5877   29.0237 H   0  0  0  0  0  0
    2.8045   55.2966   28.0187 H   0  0  0  0  0  0
    3.4490   55.4926   29.6814 H   0  0  0  0  0  0
    3.9207   52.9548   29.7985 H   0  0  0  0  0  0
    3.3164   52.7694   28.1006 H   0  0  0  0  0  0
    3.4965   58.0274   17.0168 H   0  0  0  0  0  0
  1  6  1  0  0  0
  1  2  1  0  0  0
  1 29  1  0  0  0
  1 30  1  0  0  0
  2  3  1  0  0  0
  2 31  1  0  0  0
  2 32  1  0  0  0
  3  4  1  0  0  0
  3 33  1  0  0  0
  3 34  1  0  0  0
  4  5  1  0  0  0
  4  7  1  0  0  0
  4 35  1  0  0  0
  5  6  1  0  0  0
  5 36  1  0  0  0
  5 37  1  0  0  0
  6 38  1  0  0  0
  6 39  1  0  0  0
  7  8  1  0  0  0
  7 40  1  0  0  0
  7 41  1  0  0  0
  8 13  1  0  0  0
  8  9  1  0  0  0
  8 67  1  0  0  0
  9 10  1  0  0  0
  9 42  1  0  0  0
  9 43  1  0  0  0
 10 11  1  0  0  0
 10 44  1  0  0  0
 10 45  1  0  0  0
 11 12  1  0  0  0
 11 14  1  0  0  0
 11 46  1  0  0  0
 12 13  1  0  0  0
 12 47  1  0  0  0
 12 48  1  0  0  0
 13 49  1  0  0  0
 13 50  1  0  0  0
 14 15  1  0  0  0
 14 51  1  0  0  0
 15 16  2  0  0  0
 15 17  1  0  0  0
 17 22  1  0  0  0
 17 18  1  0  0  0
 18 19  1  0  0  0
 18 52  1  0  0  0
 18 53  1  0  0  0
 19 20  1  0  0  0
 19 54  1  0  0  0
 19 55  1  0  0  0
 20 21  1  0  0  0
 20 23  1  0  0  0
 20 56  1  0  0  0
 21 22  1  0  0  0
 21 57  1  0  0  0
 21 58  1  0  0  0
 22 59  1  0  0  0
 22 60  1  0  0  0
 23 24  2  0  0  0
 23 25  1  0  0  0
 25 26  1  0  0  0
 25 61  1  0  0  0
 26 28  1  0  0  0
 26 27  1  0  0  0
 26 62  1  0  0  0
 27 28  1  0  0  0
 27 63  1  0  0  0
 27 64  1  0  0  0
 28 65  1  0  0  0
 28 66  1  0  0  0
M  CHG  1   8   1
M  END
> <i_i_glide_confnum>
34

> <i_i_glide_lignum>
248

> <i_i_glide_posenum>
185

> <i_i_glide_rotatable_bonds>
8

> <i_m_Source_File_Index>
3042

> <b_m_subgroup_collapsed>
0

> <r_i_docking_score>
-5.48474

> <r_i_glide_ecoul>
-6.11661

> <r_i_glide_eff_state_penalty>
0

> <r_i_glide_einternal>
21.246

> <r_i_glide_emodel>
-39.3045

> <r_i_glide_energy>
-35.9704

> <r_i_glide_erotb>
1.01826

> <r_i_glide_esite>
-0.0128355

> <r_i_glide_evdw>
-29.8538

> <r_i_glide_gscore>
-5.48474

> <r_i_glide_hbond>
-0.32

> <r_i_glide_ligand_efficiency>
-0.195883

> <r_i_glide_ligand_efficiency_ln>
-1.26604

> <r_i_glide_ligand_efficiency_sa>
-0.594818

> <r_i_glide_lipo>
-2.03544

> <r_i_glide_metal>
0

> <r_i_glide_rewards>
-1.72455

> <s_i_glide_gridfile>
wee1_glide-grid

> <s_m_Source_File>
wee1_decoys_glide_SP.sdf

> <s_m_Source_Path>
/Users/zhangxujun/Desktop

> <s_m_entry_id>
3317

> <s_m_entry_name>
wee1_decoys_glide_SP.3042

> <s_m_subgroup_title>
wee1_decoys_glide_SP

> <s_m_subgroupid>
wee1_decoys_glide_SP


$$$$
