@<TRIPOS>MOLECULE
ZINC35361523_5397
81   85    1
SMALL
USER_CHARGES


@<TRIPOS>ATOM
      1 C1          2.5700   55.1338   28.3912 C.3       1 UNK         0.0000 
      2 C2          3.6172   54.0963   27.8822 C.3       1 UNK         0.0000 
      3 C3          4.0867   54.4301   26.4249 C.3       1 UNK         0.0000 
      4 C4          3.0767   54.1118   25.2850 C.3       1 UNK         0.0000 
      5 C5          2.2859   52.7834   25.4116 C.3       1 UNK         0.0000 
      6 H6          3.0952   52.1001   25.1758 H         1 UNK         0.0000 
      7 C7          1.9200   52.3588   26.8693 C.3       1 UNK         0.0000 
      8 H8          1.8845   51.2868   26.8818 H         1 UNK         0.0000 
      9 C9          3.0625   52.6671   27.8468 C.3       1 UNK         0.0000 
     10 H10         3.8922   52.0968   27.4444 H         1 UNK         0.0000 
     11 C11         2.9642   52.1788   29.2825 C.3       1 UNK         0.0000 
     12 C12         4.1957   52.8049   29.9414 C.3       1 UNK         0.0000 
     13 C13         4.7542   53.8805   28.9589 C.3       1 UNK         0.0000 
     14 C14         6.1360   53.4564   28.3861 C.3       1 UNK         0.0000 
     15 O15         5.1044   55.0327   29.6817 O.3       1 UNK         0.0000 
     16 C16         0.4804   52.7305   27.2309 C.3       1 UNK         0.0000 
     17 C17        -0.5647   52.1015   26.2747 C.3       1 UNK         0.0000 
     18 C18         0.0477   51.5972   24.9581 C.2       1 UNK         0.0000 
     19 C19        -0.3787   50.4493   24.3743 C.2       1 UNK         0.0000 
     20 C20         0.1029   49.9105   23.1316 C.2       1 UNK         0.0000 
     21 N21        -0.5112   48.9429   22.5701 N.2       1 UNK         0.0000 
     22 O22        -0.0114   48.6819   21.2716 O.3       1 UNK         0.0000 
     23 C23        -1.0805   48.5443   20.3322 C.3       1 UNK         0.0000 
     24 C24        -1.6062   49.9156   19.8540 C.2       1 UNK         0.0000 
     25 O25        -1.5035   50.9268   20.5503 O.2       1 UNK         0.0000 
     26 N26        -2.1989   49.9336   18.6424 N.am      1 UNK         0.0000 
     27 C27        -2.8995   51.0655   17.9853 C.3       1 UNK         0.0000 
     28 H28        -3.0953   50.7473   16.9607 H         1 UNK         0.0000 
     29 C29        -4.2750   51.3197   18.6676 C.3       1 UNK         0.0000 
     30 C30        -5.2018   50.1183   18.7579 C.ar      1 UNK         0.0000 
     31 C31        -5.2163   49.3135   19.9170 C.ar      1 UNK         0.0000 
     32 C32        -6.0016   48.1698   19.9593 C.ar      1 UNK         0.0000 
     33 C33        -6.7568   47.7992   18.8537 C.ar      1 UNK         0.0000 
     34 C34        -6.7215   48.5598   17.6918 C.ar      1 UNK         0.0000 
     35 C35        -5.9433   49.7084   17.6296 C.ar      1 UNK         0.0000 
     36 C36        -2.0373   52.3353   17.9076 C.2       1 UNK         0.0000 
     37 O37        -2.4957   53.4695   18.0815 O.2       1 UNK         0.0000 
     38 O38        -0.7470   52.0745   17.5918 O.3       1 UNK         0.0000 
     39 C39         0.2074   53.1233   17.5156 C.3       1 UNK         0.0000 
     40 C40         1.2578   50.6028   22.6053 C.2       1 UNK         0.0000 
     41 C41         1.7682   51.7333   23.1271 C.2       1 UNK         0.0000 
     42 C42         1.1755   52.4819   24.3335 C.3       1 UNK         0.0000 
     43 C43         0.5140   53.7419   23.7394 C.3       1 UNK         0.0000 
     44 H44         2.0947   54.8187   29.3203 H         1 UNK         0.0000 
     45 H45         3.0298   56.0966   28.6008 H         1 UNK         0.0000 
     46 H46         1.7757   55.3297   27.6815 H         1 UNK         0.0000 
     47 H47         4.9393   53.8028   26.1697 H         1 UNK         0.0000 
     48 H48         4.4630   55.4498   26.3574 H         1 UNK         0.0000 
     49 H49         3.5751   54.1630   24.3154 H         1 UNK         0.0000 
     50 H50         2.3505   54.8966   25.2448 H         1 UNK         0.0000 
     51 H51         2.0546   52.5515   29.7557 H         1 UNK         0.0000 
     52 H52         2.9197   51.0918   29.3280 H         1 UNK         0.0000 
     53 H53         3.9052   53.2330   30.9008 H         1 UNK         0.0000 
     54 H54         4.9307   52.0257   30.1442 H         1 UNK         0.0000 
     55 H55         6.0730   52.5233   27.8262 H         1 UNK         0.0000 
     56 H56         6.5523   54.2121   27.7181 H         1 UNK         0.0000 
     57 H57         6.8852   53.2973   29.1605 H         1 UNK         0.0000 
     58 H58         5.9971   55.3027   29.4277 H         1 UNK         0.0000 
     59 H59         0.3685   53.7945   27.3058 H         1 UNK         0.0000 
     60 H60         0.2612   52.3746   28.2374 H         1 UNK         0.0000 
     61 H61        -1.3584   52.8192   26.0663 H         1 UNK         0.0000 
     62 H62        -1.0417   51.2566   26.7763 H         1 UNK         0.0000 
     63 H63        -1.1601   49.9065   24.8866 H         1 UNK         0.0000 
     64 H64        -1.9016   47.9539   20.7436 H         1 UNK         0.0000 
     65 H65        -0.6904   47.9908   19.4781 H         1 UNK         0.0000 
     66 H66        -2.3384   49.0433   18.1891 H         1 UNK         0.0000 
     67 H67        -4.8166   52.0964   18.1278 H         1 UNK         0.0000 
     68 H68        -4.1252   51.6969   19.6811 H         1 UNK         0.0000 
     69 H69        -4.6196   49.5850   20.7752 H         1 UNK         0.0000 
     70 H70        -6.0247   47.5668   20.8552 H         1 UNK         0.0000 
     71 H71        -7.3667   46.9081   18.8934 H         1 UNK         0.0000 
     72 H72        -7.3005   48.2566   16.8324 H         1 UNK         0.0000 
     73 H73        -5.9104   50.2850   16.7164 H         1 UNK         0.0000 
     74 H74         1.1838   52.7155   17.2509 H         1 UNK         0.0000 
     75 H75        -0.0723   53.8574   16.7578 H         1 UNK         0.0000 
     76 H76         0.3027   53.6356   18.4752 H         1 UNK         0.0000 
     77 H77         1.7743   50.1987   21.7471 H         1 UNK         0.0000 
     78 H78         2.6338   52.1561   22.6367 H         1 UNK         0.0000 
     79 H79        -0.4382   53.4798   23.2817 H         1 UNK         0.0000 
     80 H80         0.3045   54.4964   24.4817 H         1 UNK         0.0000 
     81 H81         1.1358   54.2256   22.9831 H         1 UNK         0.0000 
@<TRIPOS>BOND
     1    1    2 1    
     2    1   44 1    
     3    1   45 1    
     4    1   46 1    
     5    2    9 1    
     6    2   13 1    
     7    2    3 1    
     8    3    4 1    
     9    3   47 1    
    10    3   48 1    
    11    4    5 1    
    12    4   49 1    
    13    4   50 1    
    14    5    6 1    
    15    5   42 1    
    16    5    7 1    
    17    7    8 1    
    18    7    9 1    
    19    7   16 1    
    20    9   10 1    
    21    9   11 1    
    22   11   12 1    
    23   11   51 1    
    24   11   52 1    
    25   12   13 1    
    26   12   53 1    
    27   12   54 1    
    28   13   14 1    
    29   13   15 1    
    30   14   55 1    
    31   14   56 1    
    32   14   57 1    
    33   15   58 1    
    34   16   17 1    
    35   16   59 1    
    36   16   60 1    
    37   17   18 1    
    38   17   61 1    
    39   17   62 1    
    40   18   42 1    
    41   18   19 2    
    42   19   20 1    
    43   19   63 1    
    44   20   21 2    
    45   20   40 1    
    46   21   22 1    
    47   22   23 1    
    48   23   24 1    
    49   23   64 1    
    50   23   65 1    
    51   24   25 2    
    52   24   26 am   BACKBONE|DICT|INTERRES
    53   26   27 1    
    54   26   66 1    
    55   27   28 1    
    56   27   29 1    
    57   27   36 1    
    58   29   30 1    
    59   29   67 1    
    60   29   68 1    
    61   30   35 ar   
    62   30   31 ar   
    63   31   32 ar   
    64   31   69 1    
    65   32   33 ar   
    66   32   70 1    
    67   33   34 ar   
    68   33   71 1    
    69   34   35 ar   
    70   34   72 1    
    71   35   73 1    
    72   36   37 2    
    73   36   38 1    
    74   38   39 1    
    75   39   74 1    
    76   39   75 1    
    77   39   76 1    
    78   40   41 2    
    79   40   77 1    
    80   41   42 1    
    81   41   78 1    
    82   42   43 1    
    83   43   79 1    
    84   43   80 1    
    85   43   81 1    
@<TRIPOS>SUBSTRUCTURE
     1 UNK         1 GROUP             0       ****    0 ROOT    
