@<TRIPOS>MOLECULE
ZINC13247345_3301
55   57    1
SMALL
USER_CHARGES


@<TRIPOS>ATOM
      1 C1         -4.5697   51.6897   24.0842 C.3       1 UNK         0.0000 
      2 N2         -3.5540   50.7911   24.6264 N.pl3     1 UNK         0.0000 
      3 C3         -3.9531   49.8837   25.7016 C.3       1 UNK         0.0000 
      4 C4         -2.2924   50.6409   23.9894 C.ar      1 UNK         0.0000 
      5 C5         -2.2188   50.8198   22.5978 C.ar      1 UNK         0.0000 
      6 C6         -1.0277   50.6382   21.9037 C.ar      1 UNK         0.0000 
      7 C7          0.1270   50.2667   22.5871 C.ar      1 UNK         0.0000 
      8 C8          0.0822   50.0653   23.9692 C.ar      1 UNK         0.0000 
      9 C9         -1.1008   50.2890   24.6811 C.ar      1 UNK         0.0000 
     10 N10        -1.0192   50.2314   26.0812 N.pl3     1 UNK         0.0000 
     11 S11        -1.1367   51.6998   27.0624 S.o2      1 UNK         0.0000 
     12 O12        -1.5027   51.2968   28.4230 O.2       1 UNK         0.0000 
     13 O13        -1.9467   52.6748   26.3265 O.2       1 UNK         0.0000 
     14 C14         0.5323   52.3417   27.1231 C.ar      1 UNK         0.0000 
     15 C15         1.1042   52.8965   25.9764 C.ar      1 UNK         0.0000 
     16 C16         2.3806   53.4532   26.0363 C.ar      1 UNK         0.0000 
     17 C17         3.0921   53.4615   27.2372 C.ar      1 UNK         0.0000 
     18 C18         2.5271   52.8980   28.3937 C.ar      1 UNK         0.0000 
     19 C19         1.2534   52.3171   28.3197 C.ar      1 UNK         0.0000 
     20 C20         3.2630   52.8964   29.6855 C.2       1 UNK         0.0000 
     21 O21         3.7147   53.9931   30.0817 O.co2     1 UNK         0.0000 
     22 F22         4.3310   54.0098   27.2495 F         1 UNK         0.0000 
     23 S23         1.6592   50.1246   21.6747 S.o2      1 UNK         0.0000 
     24 O24         2.7005   49.6974   22.6111 O.2       1 UNK         0.0000 
     25 O25         1.3651   49.3296   20.4767 O.2       1 UNK         0.0000 
     26 N26         2.0312   51.7878   21.1799 N.pl3     1 UNK         0.0000 
     27 C27         2.3520   52.8184   22.1959 C.3       1 UNK         0.0000 
     28 C28         3.8174   53.2859   22.0775 C.3       1 UNK         0.0000 
     29 C29         4.1923   53.6624   20.6273 C.3       1 UNK         0.0000 
     30 C30         3.8032   52.5628   19.6139 C.3       1 UNK         0.0000 
     31 C31         2.3325   52.1240   19.7685 C.3       1 UNK         0.0000 
     32 H32        -4.1134   52.5946   23.6816 H         1 UNK         0.0000 
     33 H33        -5.1274   51.2010   23.2839 H         1 UNK         0.0000 
     34 H34        -5.2745   51.9892   24.8605 H         1 UNK         0.0000 
     35 H35        -3.3560   48.9716   25.7183 H         1 UNK         0.0000 
     36 H36        -3.8380   50.3784   26.6662 H         1 UNK         0.0000 
     37 H37        -5.0008   49.5953   25.5977 H         1 UNK         0.0000 
     38 H38        -3.0983   51.0830   22.0295 H         1 UNK         0.0000 
     39 H39        -1.0005   50.7876   20.8338 H         1 UNK         0.0000 
     40 H40         0.9862   49.7976   24.5004 H         1 UNK         0.0000 
     41 H41        -0.7076   49.3938   26.5610 H         1 UNK         0.0000 
     42 H42         0.5511   52.9145   25.0477 H         1 UNK         0.0000 
     43 H43         2.8237   53.8855   25.1521 H         1 UNK         0.0000 
     44 H44         0.8100   51.8768   29.2030 H         1 UNK         0.0000 
     45 H45         1.6509   53.6462   22.0790 H         1 UNK         0.0000 
     46 H46         2.1771   52.3983   23.1861 H         1 UNK         0.0000 
     47 H47         3.9914   54.1338   22.7404 H         1 UNK         0.0000 
     48 H48         4.4811   52.4965   22.4288 H         1 UNK         0.0000 
     49 H49         5.2603   53.8710   20.5605 H         1 UNK         0.0000 
     50 H50         3.6859   54.5873   20.3550 H         1 UNK         0.0000 
     51 H51         4.4512   51.6970   19.7444 H         1 UNK         0.0000 
     52 H52         3.9834   52.9084   18.5951 H         1 UNK         0.0000 
     53 H53         2.1448   51.2502   19.1427 H         1 UNK         0.0000 
     54 H54         1.6375   52.8965   19.4394 H         1 UNK         0.0000 
     55 O55         3.3237   51.8128   30.3135 O.co2     1 UNK         0.0000 
@<TRIPOS>BOND
     1    1    2 1    
     2    1   32 1    
     3    1   33 1    
     4    1   34 1    
     5    2    3 1    
     6    2    4 1    
     7    3   35 1    
     8    3   36 1    
     9    3   37 1    
    10    4    9 ar   
    11    4    5 ar   
    12    5    6 ar   
    13    5   38 1    
    14    6    7 ar   
    15    6   39 1    
    16    7    8 ar   
    17    7   23 1    
    18    8    9 ar   
    19    8   40 1    
    20    9   10 1    
    21   10   11 1    
    22   10   41 1    
    23   11   12 2    
    24   11   13 2    
    25   11   14 1    
    26   14   19 ar   
    27   14   15 ar   
    28   15   16 ar   
    29   15   42 1    
    30   16   17 ar   
    31   16   43 1    
    32   17   18 ar   
    33   17   22 1    
    34   18   19 ar   
    35   18   20 1    
    36   19   44 1    
    37   20   21 2    
    38   20   55 1    
    39   23   24 2    
    40   23   25 2    
    41   23   26 1    
    42   26   31 1    
    43   26   27 1    
    44   27   28 1    
    45   27   45 1    
    46   27   46 1    
    47   28   29 1    
    48   28   47 1    
    49   28   48 1    
    50   29   30 1    
    51   29   49 1    
    52   29   50 1    
    53   30   31 1    
    54   30   51 1    
    55   30   52 1    
    56   31   53 1    
    57   31   54 1    
@<TRIPOS>SUBSTRUCTURE
     1 UNK         1 GROUP             0       ****    0 ROOT    
