@<TRIPOS>MOLECULE
ZINC33010946_4440
51   55    1
SMALL
USER_CHARGES


@<TRIPOS>ATOM
      1 C1          7.0205   55.4876   22.2260 C.ar      1 UNK         0.0000 
      2 C2          6.7210   55.6933   20.8806 C.ar      1 UNK         0.0000 
      3 C3          5.7546   54.9020   20.2609 C.ar      1 UNK         0.0000 
      4 C4          5.1045   53.8913   20.9665 C.ar      1 UNK         0.0000 
      5 C5          5.4206   53.6768   22.3061 C.ar      1 UNK         0.0000 
      6 C6          6.3512   54.4967   22.9436 C.ar      1 UNK         0.0000 
      7 S7          6.7025   54.2720   24.6667 S.3       1 UNK         0.0000 
      8 C8          5.4441   55.1792   25.6328 C.3       1 UNK         0.0000 
      9 C9          4.0612   54.5317   25.6039 C.ar      1 UNK         0.0000 
     10 N10         3.5545   54.1024   26.7811 N.ar      1 UNK         0.0000 
     11 C11         2.3177   53.5216   26.7820 C.ar      1 UNK         0.0000 
     12 C12         1.6684   53.2193   25.5426 C.ar      1 UNK         0.0000 
     13 C13         0.4957   52.4858   25.1254 C.2       1 UNK         0.0000 
     14 C14         0.3120   52.5268   23.7629 C.2       1 UNK         0.0000 
     15 S15         1.5071   53.4174   22.8819 S.3       1 UNK         0.0000 
     16 C16         2.3257   53.7587   24.3871 C.ar      1 UNK         0.0000 
     17 N17         3.4600   54.4509   24.3994 N.ar      1 UNK         0.0000 
     18 C18        -0.9124   51.7940   23.2935 C.3       1 UNK         0.0000 
     19 C19        -1.3120   51.0067   24.5443 C.3       1 UNK         0.0000 
     20 C20        -0.5998   51.6427   25.7466 C.3       1 UNK         0.0000 
     21 N21         1.7878   53.2487   28.0621 N.pl3     1 UNK         0.0000 
     22 C22         0.3816   52.9483   28.3481 C.3       1 UNK         0.0000 
     23 C23         0.0212   53.2923   29.8001 C.3       1 UNK         0.0000 
     24 H24        -0.8958   53.8677   29.8510 H         1 UNK         0.0000 
     25 C25         1.1909   54.1549   30.2194 C.3       1 UNK         0.0000 
     26 C26         2.3653   53.6946   29.3447 C.3       1 UNK         0.0000 
     27 H27         3.0560   54.5276   29.2083 H         1 UNK         0.0000 
     28 C28         3.2515   52.5870   29.9736 C.2       1 UNK         0.0000 
     29 O29         3.0248   52.0973   31.0768 O.2       1 UNK         0.0000 
     30 N30         4.3224   52.2098   29.2820 N.am      1 UNK         0.0000 
     31 O31        -0.0859   52.0967   30.5465 O.3       1 UNK         0.0000 
     32 Cl32        5.3624   55.1760   18.6047 Cl        1 UNK         0.0000 
     33 H33         7.7681   56.0962   22.7117 H         1 UNK         0.0000 
     34 H34         7.2314   56.4599   20.3173 H         1 UNK         0.0000 
     35 H35         4.3642   53.2744   20.4766 H         1 UNK         0.0000 
     36 H36         4.9218   52.8961   22.8565 H         1 UNK         0.0000 
     37 H37         5.3879   56.2072   25.2805 H         1 UNK         0.0000 
     38 H38         5.7989   55.2389   26.6630 H         1 UNK         0.0000 
     39 H39        -1.7006   52.4793   22.9797 H         1 UNK         0.0000 
     40 H40        -0.7136   51.1181   22.4603 H         1 UNK         0.0000 
     41 H41        -2.3954   50.9757   24.6770 H         1 UNK         0.0000 
     42 H42        -0.9832   49.9700   24.4397 H         1 UNK         0.0000 
     43 H43        -0.2170   50.8449   26.3851 H         1 UNK         0.0000 
     44 H44        -1.3045   52.2320   26.3318 H         1 UNK         0.0000 
     45 H45         0.1569   51.8967   28.1796 H         1 UNK         0.0000 
     46 H46        -0.2340   53.6056   27.7331 H         1 UNK         0.0000 
     47 H47         1.3666   54.0802   31.2851 H         1 UNK         0.0000 
     48 H48         0.9952   55.2106   30.0233 H         1 UNK         0.0000 
     49 H49         4.9508   51.5247   29.6668 H         1 UNK         0.0000 
     50 H50         4.4707   52.5676   28.3493 H         1 UNK         0.0000 
     51 H51        -0.3702   52.2730   31.4536 H         1 UNK         0.0000 
@<TRIPOS>BOND
     1    1    6 ar   
     2    1    2 ar   
     3    1   33 1    
     4    2    3 ar   
     5    2   34 1    
     6    3    4 ar   
     7    3   32 1    
     8    4    5 ar   
     9    4   35 1    
    10    5    6 ar   
    11    5   36 1    
    12    6    7 1    
    13    7    8 1    
    14    8    9 1    
    15    8   37 1    
    16    8   38 1    
    17    9   17 ar   
    18    9   10 ar   
    19   10   11 ar   
    20   11   12 ar   
    21   11   21 1    
    22   12   16 ar   
    23   12   13 1    
    24   13   20 1    
    25   13   14 2    
    26   14   15 1    
    27   14   18 1    
    28   15   16 1    
    29   16   17 ar   
    30   18   19 1    
    31   18   39 1    
    32   18   40 1    
    33   19   20 1    
    34   19   41 1    
    35   19   42 1    
    36   20   43 1    
    37   20   44 1    
    38   21   26 1    
    39   21   22 1    
    40   22   23 1    
    41   22   45 1    
    42   22   46 1    
    43   23   24 1    
    44   23   25 1    
    45   23   31 1    
    46   25   26 1    
    47   25   47 1    
    48   25   48 1    
    49   26   27 1    
    50   26   28 1    
    51   28   29 2    
    52   28   30 am   BACKBONE|DICT|INTERRES
    53   30   49 1    
    54   30   50 1    
    55   31   51 1    
@<TRIPOS>SUBSTRUCTURE
     1 UNK         1 GROUP             0       ****    0 ROOT    
