@<TRIPOS>MOLECULE
ZINC38547548_2199
58   61    1
SMALL
USER_CHARGES


@<TRIPOS>ATOM
      1 C1          5.5820   54.5249   18.6809 C.3       1 UNK         0.0000 
      2 C2          4.7965   53.8426   19.7816 C.ar      1 UNK         0.0000 
      3 C3          4.8626   54.2418   21.1182 C.ar      1 UNK         0.0000 
      4 C4          4.1140   53.5523   22.0752 C.ar      1 UNK         0.0000 
      5 C5          3.3189   52.4718   21.6821 C.ar      1 UNK         0.0000 
      6 C6          3.2735   52.0991   20.3326 C.ar      1 UNK         0.0000 
      7 N7          4.0109   52.7987   19.4473 N.pl3     1 UNK         0.0000 
      8 N8          2.5042   51.0138   19.8322 N.pl3     1 UNK         0.0000 
      9 C9          1.7809   50.0170   20.6509 C.3       1 UNK         0.0000 
     10 H10         2.5512   49.6815   21.3454 H         1 UNK         0.0000 
     11 C11         1.3949   48.7806   19.8059 C.ar      1 UNK         0.0000 
     12 C12         2.2065   48.3807   18.7395 C.ar      1 UNK         0.0000 
     13 C13         1.8684   47.2965   17.9411 C.ar      1 UNK         0.0000 
     14 C14         0.7141   46.5524   18.2144 C.ar      1 UNK         0.0000 
     15 C15        -0.0856   46.9226   19.2938 C.ar      1 UNK         0.0000 
     16 C16         0.2464   48.0230   20.0819 C.ar      1 UNK         0.0000 
     17 O17         0.3004   45.4573   17.4807 O.3       1 UNK         0.0000 
     18 C18         1.0337   45.0895   16.3163 C.3       1 UNK         0.0000 
     19 C19         0.5904   50.5973   21.4317 C.2       1 UNK         0.0000 
     20 C20         0.4167   50.4763   22.8346 C.2       1 UNK         0.0000 
     21 C21        -0.7807   51.0313   23.3018 C.2       1 UNK         0.0000 
     22 S22        -1.6955   51.7044   21.9997 S.3       1 UNK         0.0000 
     23 C23        -0.4753   51.2759   20.8413 C.2       1 UNK         0.0000 
     24 N24        -0.5744   51.5391   19.4790 N.am      1 UNK         0.0000 
     25 C25        -1.5938   52.0962   18.7967 C.2       1 UNK         0.0000 
     26 O26        -2.6535   52.4966   19.2809 O.2       1 UNK         0.0000 
     27 C27        -1.3218   52.2293   17.3916 C.2       1 UNK         0.0000 
     28 C28        -0.4606   51.5421   16.5357 C.2       1 UNK         0.0000 
     29 C29        -0.6698   52.0533   15.2553 C.2       1 UNK         0.0000 
     30 C30        -1.6721   53.0002   15.3728 C.2       1 UNK         0.0000 
     31 O31        -2.0820   53.0910   16.6645 O.3       1 UNK         0.0000 
     32 C32        -1.3310   51.0866   24.7109 C.3       1 UNK         0.0000 
     33 C33         1.3761   49.7337   23.7389 C.3       1 UNK         0.0000 
     34 H34         6.1996   55.3344   19.0722 H         1 UNK         0.0000 
     35 H35         6.2409   53.8102   18.1845 H         1 UNK         0.0000 
     36 H36         4.9054   54.9466   17.9355 H         1 UNK         0.0000 
     37 H37         5.4848   55.0724   21.4181 H         1 UNK         0.0000 
     38 H38         4.1505   53.8516   23.1111 H         1 UNK         0.0000 
     39 H39         2.7410   51.9454   22.4236 H         1 UNK         0.0000 
     40 H40         2.4869   50.8678   18.8323 H         1 UNK         0.0000 
     41 H41         3.1044   48.9218   18.4899 H         1 UNK         0.0000 
     42 H42         2.5238   47.0556   17.1179 H         1 UNK         0.0000 
     43 H43        -0.9780   46.3568   19.5143 H         1 UNK         0.0000 
     44 H44        -0.4067   48.2759   20.9040 H         1 UNK         0.0000 
     45 H45         0.5555   44.2308   15.8458 H         1 UNK         0.0000 
     46 H46         1.0540   45.8966   15.5813 H         1 UNK         0.0000 
     47 H47         2.0579   44.8035   16.5575 H         1 UNK         0.0000 
     48 H48         0.2206   51.2474   18.9306 H         1 UNK         0.0000 
     49 H49         0.2383   50.7641   16.8040 H         1 UNK         0.0000 
     50 H50        -0.1620   51.7580   14.3490 H         1 UNK         0.0000 
     51 H51        -2.1720   53.6449   14.6661 H         1 UNK         0.0000 
     52 H52        -0.5489   50.9990   25.4672 H         1 UNK         0.0000 
     53 H53        -1.8533   52.0253   24.9103 H         1 UNK         0.0000 
     54 H54        -2.0412   50.2790   24.8971 H         1 UNK         0.0000 
     55 H55         1.8323   48.8965   23.2210 H         1 UNK         0.0000 
     56 H56         2.1871   50.3716   24.0808 H         1 UNK         0.0000 
     57 H57         0.8915   49.2982   24.6134 H         1 UNK         0.0000 
     58 H58         4.0228   52.4840   18.4870 H         1 UNK         0.0000 
@<TRIPOS>BOND
     1    1    2 1    
     2    1   34 1    
     3    1   35 1    
     4    1   36 1    
     5    2    7 ar   
     6    2    3 ar   
     7    3    4 ar   
     8    3   37 1    
     9    4    5 ar   
    10    4   38 1    
    11    5    6 ar   
    12    5   39 1    
    13    6    7 ar   
    14    6    8 1    
    15    7   58 1    
    16    8    9 1    
    17    8   40 1    
    18    9   10 1    
    19    9   11 1    
    20    9   19 1    
    21   11   16 ar   
    22   11   12 ar   
    23   12   13 ar   
    24   12   41 1    
    25   13   14 ar   
    26   13   42 1    
    27   14   15 ar   
    28   14   17 1    
    29   15   16 ar   
    30   15   43 1    
    31   16   44 1    
    32   17   18 1    
    33   18   45 1    
    34   18   46 1    
    35   18   47 1    
    36   19   23 2    
    37   19   20 1    
    38   20   21 2    
    39   20   33 1    
    40   21   22 1    
    41   21   32 1    
    42   22   23 1    
    43   23   24 am   BACKBONE|DICT|INTERRES
    44   24   25 am   BACKBONE|DICT|INTERRES
    45   24   48 1    
    46   25   26 2    
    47   25   27 1    
    48   27   31 1    
    49   27   28 2    
    50   28   29 1    
    51   28   49 1    
    52   29   30 2    
    53   29   50 1    
    54   30   31 1    
    55   30   51 1    
    56   32   52 1    
    57   32   53 1    
    58   32   54 1    
    59   33   55 1    
    60   33   56 1    
    61   33   57 1    
@<TRIPOS>SUBSTRUCTURE
     1 UNK         1 GROUP             0       ****    0 ROOT    
