@<TRIPOS>MOLECULE
ZINC63515228_6070
54   56    1
SMALL
USER_CHARGES


@<TRIPOS>ATOM
      1 C1          3.0851   54.2774   23.6263 C.3       1 UNK         0.0000 
      2 C2          3.4647   54.1481   25.0951 C.ar      1 UNK         0.0000 
      3 C3          2.5029   53.6960   25.9929 C.ar      1 UNK         0.0000 
      4 C4          2.7758   53.5595   27.3552 C.ar      1 UNK         0.0000 
      5 C5          4.0406   53.9562   27.8457 C.ar      1 UNK         0.0000 
      6 C6          5.0235   54.4105   26.9369 C.ar      1 UNK         0.0000 
      7 C7          4.7371   54.4932   25.5643 C.ar      1 UNK         0.0000 
      8 O8          5.6872   54.9696   24.6898 O.3       1 UNK         0.0000 
      9 C9          6.4525   53.9631   24.0385 C.3       1 UNK         0.0000 
     10 C10         6.4075   54.8274   27.4294 C.3       1 UNK         0.0000 
     11 C11         4.3345   53.9509   29.3452 C.3       1 UNK         0.0000 
     12 S12         1.4289   52.8687   28.3622 S.o2      1 UNK         0.0000 
     13 O13         0.2336   53.6684   28.0816 O.2       1 UNK         0.0000 
     14 O14         1.8827   52.6656   29.7401 O.2       1 UNK         0.0000 
     15 N15         1.1436   51.2557   27.7199 N.pl3     1 UNK         0.0000 
     16 C16         0.3112   50.9863   26.5305 C.3       1 UNK         0.0000 
     17 C17         0.3840   49.5049   26.1272 C.3       1 UNK         0.0000 
     18 C18        -0.2432   49.2147   24.7774 C.2       1 UNK         0.0000 
     19 C19         0.2415   49.4118   23.5376 C.2       1 UNK         0.0000 
     20 C20         1.5146   49.9896   23.0822 C.2       1 UNK         0.0000 
     21 C21         1.8001   50.1114   21.7705 C.2       1 UNK         0.0000 
     22 C22         0.7956   49.6488   20.8213 C.2       1 UNK         0.0000 
     23 C23        -0.3919   49.1176   21.2195 C.2       1 UNK         0.0000 
     24 C24        -0.6882   48.9908   22.5844 C.2       1 UNK         0.0000 
     25 N25        -1.7606   48.5140   23.1709 N.pl3     1 UNK         0.0000 
     26 C26        -1.6152   48.5752   24.6386 C.3       1 UNK         0.0000 
     27 H27        -2.3990   49.2348   25.0164 H         1 UNK         0.0000 
     28 C28        -1.7247   47.1783   25.2817 C.3       1 UNK         0.0000 
     29 Br29        3.5028   50.8967   21.1563 Br        1 UNK         0.0000 
     30 H30         3.7848   54.8956   23.0653 H         1 UNK         0.0000 
     31 H31         3.0291   53.2952   23.1581 H         1 UNK         0.0000 
     32 H32         2.1063   54.7475   23.5304 H         1 UNK         0.0000 
     33 H33         1.5199   53.4637   25.6180 H         1 UNK         0.0000 
     34 H34         7.1695   54.4342   23.3645 H         1 UNK         0.0000 
     35 H35         7.0189   53.3692   24.7573 H         1 UNK         0.0000 
     36 H36         5.8274   53.2946   23.4449 H         1 UNK         0.0000 
     37 H37         7.1039   55.0849   26.6344 H         1 UNK         0.0000 
     38 H38         6.3042   55.6969   28.0759 H         1 UNK         0.0000 
     39 H39         6.8646   54.0271   28.0117 H         1 UNK         0.0000 
     40 H40         5.2293   54.4969   29.6350 H         1 UNK         0.0000 
     41 H41         3.5262   54.4465   29.8807 H         1 UNK         0.0000 
     42 H42         4.4202   52.9271   29.7114 H         1 UNK         0.0000 
     43 H43         1.4094   50.4599   28.3094 H         1 UNK         0.0000 
     44 H44         0.6700   51.5954   25.7063 H         1 UNK         0.0000 
     45 H45        -0.7122   51.3008   26.7370 H         1 UNK         0.0000 
     46 H46        -0.0955   48.8847   26.8805 H         1 UNK         0.0000 
     47 H47         1.4170   49.1601   26.0889 H         1 UNK         0.0000 
     48 H48         2.2586   50.3262   23.7884 H         1 UNK         0.0000 
     49 H49         1.0108   49.7345   19.7636 H         1 UNK         0.0000 
     50 H50        -1.0939   48.7919   20.4636 H         1 UNK         0.0000 
     51 H51        -1.6452   47.2329   26.3689 H         1 UNK         0.0000 
     52 H52        -2.6841   46.7136   25.0587 H         1 UNK         0.0000 
     53 H53        -0.9356   46.5101   24.9336 H         1 UNK         0.0000 
     54 H54        -2.5841   48.1508   22.6961 H         1 UNK         0.0000 
@<TRIPOS>BOND
     1    1    2 1    
     2    1   30 1    
     3    1   31 1    
     4    1   32 1    
     5    2    7 ar   
     6    2    3 ar   
     7    3    4 ar   
     8    3   33 1    
     9    4    5 ar   
    10    4   12 1    
    11    5    6 ar   
    12    5   11 1    
    13    6    7 ar   
    14    6   10 1    
    15    7    8 1    
    16    8    9 1    
    17    9   34 1    
    18    9   35 1    
    19    9   36 1    
    20   10   37 1    
    21   10   38 1    
    22   10   39 1    
    23   11   40 1    
    24   11   41 1    
    25   11   42 1    
    26   12   13 2    
    27   12   14 2    
    28   12   15 1    
    29   15   16 1    
    30   15   43 1    
    31   16   17 1    
    32   16   44 1    
    33   16   45 1    
    34   17   18 1    
    35   17   46 1    
    36   17   47 1    
    37   18   26 1    
    38   18   19 2    
    39   19   24 1    
    40   19   20 1    
    41   20   21 2    
    42   20   48 1    
    43   21   22 1    
    44   21   29 1    
    45   22   23 2    
    46   22   49 1    
    47   23   24 1    
    48   23   50 1    
    49   24   25 2    
    50   25   26 1    
    51   25   54 1    
    52   26   27 1    
    53   26   28 1    
    54   28   51 1    
    55   28   52 1    
    56   28   53 1    
@<TRIPOS>SUBSTRUCTURE
     1 UNK         1 GROUP             0       ****    0 ROOT    
