ZINC38620632_4041
                    3D
 Schrodinger Suite 2024-2.
 62 66  0  0  1  0            999 V2000
    5.4621   54.0914   22.5023 C   0  0  0  0  0  0
    6.5037   54.5864   23.2788 C   0  0  0  0  0  0
    6.2919   54.8437   24.6279 C   0  0  0  0  0  0
    5.0439   54.6058   25.2082 C   0  0  0  0  0  0
    3.9701   54.0916   24.4426 C   0  0  0  0  0  0
    4.2151   53.8477   23.0776 C   0  0  0  0  0  0
    2.7040   53.8439   24.9962 N   0  0  0  0  0  0
    1.4521   53.7120   24.2326 C   0  0  0  0  0  0
    0.8471   52.3144   24.4356 C   0  0  0  0  0  0
    0.3257   52.2503   25.8023 N   0  0  0  0  0  0
    1.3523   52.5161   26.8176 C   0  0  0  0  0  0
    2.4738   53.5278   26.4246 C   0  0  0  0  0  0
   -0.5814   51.1299   26.1520 C   0  0  2  0  0  0
   -0.4348   50.9492   27.2194 H   0  0  0  0  0  0
   -0.2243   49.7846   25.4431 C   0  0  0  0  0  0
   -1.1741   48.6912   25.6816 N   0  0  0  0  0  0
   -1.8349   48.0183   24.7176 C   0  0  0  0  0  0
   -1.6472   48.2193   23.5145 O   0  0  0  0  0  0
   -2.8904   47.0299   25.1579 C   0  0  0  0  0  0
   -2.7952   46.3431   26.3756 C   0  0  0  0  0  0
   -3.7862   45.4396   26.7473 C   0  0  0  0  0  0
   -4.8781   45.1924   25.9157 C   0  0  0  0  0  0
   -4.9794   45.8779   24.7013 C   0  0  0  0  0  0
   -3.9913   46.7836   24.3260 C   0  0  0  0  0  0
   -5.9475   44.1884   26.3475 C   0  0  0  0  0  0
   -7.1129   44.4149   25.7398 F   0  0  0  0  0  0
   -5.5300   42.9635   26.0278 F   0  0  0  0  0  0
   -6.1503   44.2394   27.6664 F   0  0  0  0  0  0
   -2.0593   51.5497   26.0343 C   0  0  0  0  0  0
   -2.5061   52.4965   25.0823 C   0  0  0  0  0  0
   -3.8508   52.8872   25.0168 C   0  0  0  0  0  0
   -4.7329   52.3056   25.9192 C   0  0  0  0  0  0
   -4.3181   51.3871   26.8403 C   0  0  0  0  0  0
   -2.9899   50.9850   26.9284 C   0  0  0  0  0  0
   -5.3738   51.0196   27.6127 O   0  0  0  0  0  0
   -6.5036   51.5542   26.9782 C   0  0  0  0  0  0
   -6.0614   52.5398   26.0840 O   0  0  0  0  0  0
    4.9090   54.8969   26.5223 F   0  0  0  0  0  0
    5.6161   53.8875   21.4525 H   0  0  0  0  0  0
    7.4723   54.7753   22.8389 H   0  0  0  0  0  0
    7.0967   55.2359   25.2286 H   0  0  0  0  0  0
    3.4567   53.4370   22.4312 H   0  0  0  0  0  0
    0.7356   54.4964   24.4831 H   0  0  0  0  0  0
    1.6273   53.8542   23.1695 H   0  0  0  0  0  0
    1.6013   51.5513   24.2351 H   0  0  0  0  0  0
    0.0302   52.1808   23.7245 H   0  0  0  0  0  0
    0.9390   52.7452   27.8010 H   0  0  0  0  0  0
    1.9039   51.5819   26.8824 H   0  0  0  0  0  0
    2.1506   54.4912   26.8197 H   0  0  0  0  0  0
    3.3858   53.2697   26.9614 H   0  0  0  0  0  0
    0.7683   49.4571   25.7576 H   0  0  0  0  0  0
   -0.1229   49.9552   24.3712 H   0  0  0  0  0  0
   -1.3003   48.4281   26.6627 H   0  0  0  0  0  0
   -1.9555   46.4968   27.0433 H   0  0  0  0  0  0
   -3.6964   44.9066   27.6813 H   0  0  0  0  0  0
   -5.8195   45.7103   24.0434 H   0  0  0  0  0  0
   -4.0927   47.3042   23.3828 H   0  0  0  0  0  0
   -1.8098   52.9572   24.3996 H   0  0  0  0  0  0
   -4.1798   53.6204   24.2958 H   0  0  0  0  0  0
   -2.6796   50.2614   27.6688 H   0  0  0  0  0  0
   -7.1993   51.9717   27.7073 H   0  0  0  0  0  0
   -7.0092   50.7626   26.4204 H   0  0  0  0  0  0
  1  6  2  0  0  0
  1  2  1  0  0  0
  1 39  1  0  0  0
  2  3  2  0  0  0
  2 40  1  0  0  0
  3  4  1  0  0  0
  3 41  1  0  0  0
  4  5  2  0  0  0
  4 38  1  0  0  0
  5  6  1  0  0  0
  5  7  1  0  0  0
  6 42  1  0  0  0
  7 12  1  0  0  0
  7  8  1  0  0  0
  8  9  1  0  0  0
  8 43  1  0  0  0
  8 44  1  0  0  0
  9 10  1  0  0  0
  9 45  1  0  0  0
  9 46  1  0  0  0
 10 11  1  0  0  0
 10 13  1  0  0  0
 11 12  1  0  0  0
 11 47  1  0  0  0
 11 48  1  0  0  0
 12 49  1  0  0  0
 12 50  1  0  0  0
 13 14  1  0  0  0
 13 15  1  0  0  0
 13 29  1  0  0  0
 15 16  1  0  0  0
 15 51  1  0  0  0
 15 52  1  0  0  0
 16 17  1  0  0  0
 16 53  1  0  0  0
 17 18  2  0  0  0
 17 19  1  0  0  0
 19 24  2  0  0  0
 19 20  1  0  0  0
 20 21  2  0  0  0
 20 54  1  0  0  0
 21 22  1  0  0  0
 21 55  1  0  0  0
 22 23  2  0  0  0
 22 25  1  0  0  0
 23 24  1  0  0  0
 23 56  1  0  0  0
 24 57  1  0  0  0
 25 26  1  0  0  0
 25 27  1  0  0  0
 25 28  1  0  0  0
 29 34  2  0  0  0
 29 30  1  0  0  0
 30 31  2  0  0  0
 30 58  1  0  0  0
 31 32  1  0  0  0
 31 59  1  0  0  0
 32 37  1  0  0  0
 32 33  2  0  0  0
 33 34  1  0  0  0
 33 35  1  0  0  0
 34 60  1  0  0  0
 35 36  1  0  0  0
 36 37  1  0  0  0
 36 61  1  0  0  0
 36 62  1  0  0  0
M  END
> <i_i_glide_confnum>
204

> <i_i_glide_lignum>
4042

> <i_i_glide_posenum>
365

> <i_i_glide_rotatable_bonds>
8

> <i_m_Source_File_Index>
1037

> <b_m_subgroup_collapsed>
0

> <r_i_docking_score>
-6.19129

> <r_i_glide_ecoul>
-7.61949

> <r_i_glide_eff_state_penalty>
0

> <r_i_glide_einternal>
11.6437

> <r_i_glide_emodel>
-58.4183

> <r_i_glide_energy>
-45.2119

> <r_i_glide_erotb>
0.540516

> <r_i_glide_esite>
-0.213454

> <r_i_glide_evdw>
-37.5924

> <r_i_glide_gscore>
-6.19129

> <r_i_glide_hbond>
-0.16

> <r_i_glide_ligand_efficiency>
-0.167332

> <r_i_glide_ligand_efficiency_ln>
-1.34275

> <r_i_glide_ligand_efficiency_sa>
-0.557588

> <r_i_glide_lipo>
-2.52559

> <r_i_glide_metal>
0

> <r_i_glide_rewards>
-0.810215

> <s_i_glide_gridfile>
wee1_glide-grid

> <s_m_Source_File>
wee1_decoys_glide_SP.sdf

> <s_m_Source_Path>
/Users/zhangxujun/Desktop

> <s_m_entry_id>
1312

> <s_m_entry_name>
wee1_decoys_glide_SP.1037

> <s_m_subgroup_title>
wee1_decoys_glide_SP

> <s_m_subgroupid>
wee1_decoys_glide_SP


$$$$
