@<TRIPOS>MOLECULE
ZINC12715061_3131
59   62    1
SMALL
USER_CHARGES


@<TRIPOS>ATOM
      1 C1         -5.8779   53.1772   24.4842 C.3       1 UNK         0.0000 
      2 C2         -4.5437   52.8741   25.1113 C.2       1 UNK         0.0000 
      3 C3         -4.1450   52.6340   26.4091 C.2       1 UNK         0.0000 
      4 C4         -2.7720   52.4166   26.3716 C.2       1 UNK         0.0000 
      5 C5         -2.3732   52.4876   25.0371 C.2       1 UNK         0.0000 
      6 O6         -3.4681   52.7869   24.2825 O.3       1 UNK         0.0000 
      7 C7         -1.0965   52.2542   24.2678 C.3       1 UNK         0.0000 
      8 H8         -1.0273   53.0948   23.5764 H         1 UNK         0.0000 
      9 C9          0.1694   52.4384   25.1483 C.2       1 UNK         0.0000 
     10 O10         1.0580   53.1864   24.7392 O.2       1 UNK         0.0000 
     11 N11         0.2405   51.7892   26.3243 N.am      1 UNK         0.0000 
     12 C12         1.2969   51.9880   27.3220 C.3       1 UNK         0.0000 
     13 C13         1.3912   53.4251   27.8940 C.3       1 UNK         0.0000 
     14 H14         1.4192   54.1633   27.0914 H         1 UNK         0.0000 
     15 C15         0.4782   53.7583   29.0727 C.3       1 UNK         0.0000 
     16 C16         1.2419   54.7836   29.8853 C.3       1 UNK         0.0000 
     17 C17         2.6873   54.6258   29.4133 C.3       1 UNK         0.0000 
     18 O18         2.6674   53.5132   28.5239 O.3       1 UNK         0.0000 
     19 N19        -1.0378   51.0493   23.3703 N.am      1 UNK         0.0000 
     20 C20         0.0803   50.9718   22.4946 C.ar      1 UNK         0.0000 
     21 C21         0.1531   51.8164   21.3808 C.ar      1 UNK         0.0000 
     22 C22         1.2749   51.7862   20.5505 C.ar      1 UNK         0.0000 
     23 C23         2.3349   50.9229   20.8317 C.ar      1 UNK         0.0000 
     24 C24         2.2783   50.0893   21.9489 C.ar      1 UNK         0.0000 
     25 C25         1.1561   50.1120   22.7790 C.ar      1 UNK         0.0000 
     26 F26         1.1048   49.2980   23.8582 F         1 UNK         0.0000 
     27 C27        -1.8346   49.9362   23.5536 C.2       1 UNK         0.0000 
     28 O28        -2.5447   49.7555   24.5432 O.2       1 UNK         0.0000 
     29 C29        -1.8672   48.9083   22.5273 C.2       1 UNK         0.0000 
     30 C30        -1.8617   47.5186   22.6539 C.2       1 UNK         0.0000 
     31 C31        -2.0313   46.8762   21.3991 C.2       1 UNK         0.0000 
     32 N32        -2.1847   47.6835   20.3586 N.2       1 UNK         0.0000 
     33 S33        -2.1506   49.3100   20.8644 S.3       1 UNK         0.0000 
     34 C34        -2.0948   45.4271   21.1669 C.2       1 UNK         0.0000 
     35 O35        -2.0966   44.6032   22.0807 O.2       1 UNK         0.0000 
     36 N36        -2.1472   45.0115   19.8949 N.am      1 UNK         0.0000 
     37 N37        -1.6958   46.8784   23.8556 N.pl3     1 UNK         0.0000 
     38 H38        -6.6874   53.1025   25.2098 H         1 UNK         0.0000 
     39 H39        -5.9080   54.1884   24.0816 H         1 UNK         0.0000 
     40 H40        -6.1100   52.4776   23.6819 H         1 UNK         0.0000 
     41 H41        -4.7810   52.6101   27.2807 H         1 UNK         0.0000 
     42 H42        -2.1561   52.1809   27.2262 H         1 UNK         0.0000 
     43 H43        -0.4922   51.1320   26.5582 H         1 UNK         0.0000 
     44 H44         2.2548   51.7105   26.8900 H         1 UNK         0.0000 
     45 H45         1.1132   51.2788   28.1302 H         1 UNK         0.0000 
     46 H46         0.2833   52.8636   29.6667 H         1 UNK         0.0000 
     47 H47        -0.4967   54.0961   28.7302 H         1 UNK         0.0000 
     48 H48         1.1245   54.6048   30.9543 H         1 UNK         0.0000 
     49 H49         0.8863   55.7942   29.6798 H         1 UNK         0.0000 
     50 H50         3.3901   54.4370   30.2240 H         1 UNK         0.0000 
     51 H51         3.0426   55.5102   28.8814 H         1 UNK         0.0000 
     52 H52        -0.6546   52.4967   21.1576 H         1 UNK         0.0000 
     53 H53         1.3293   52.4405   19.6920 H         1 UNK         0.0000 
     54 H54         3.2012   50.9027   20.1844 H         1 UNK         0.0000 
     55 H55         3.1040   49.4276   22.1716 H         1 UNK         0.0000 
     56 H56        -2.1435   45.6899   19.1470 H         1 UNK         0.0000 
     57 H57        -2.2048   44.0276   19.6888 H         1 UNK         0.0000 
     58 H58        -1.6025   45.8754   23.8957 H         1 UNK         0.0000 
     59 H59        -1.6214   47.3915   24.7271 H         1 UNK         0.0000 
@<TRIPOS>BOND
     1    1    2 1    
     2    1   38 1    
     3    1   39 1    
     4    1   40 1    
     5    2    6 1    
     6    2    3 2    
     7    3    4 1    
     8    3   41 1    
     9    4    5 2    
    10    4   42 1    
    11    5    6 1    
    12    5    7 1    
    13    7    8 1    
    14    7    9 1    
    15    7   19 1    
    16    9   10 2    
    17    9   11 am   BACKBONE|DICT|INTERRES
    18   11   12 1    
    19   11   43 1    
    20   12   13 1    
    21   12   44 1    
    22   12   45 1    
    23   13   14 1    
    24   13   18 1    
    25   13   15 1    
    26   15   16 1    
    27   15   46 1    
    28   15   47 1    
    29   16   17 1    
    30   16   48 1    
    31   16   49 1    
    32   17   18 1    
    33   17   50 1    
    34   17   51 1    
    35   19   20 1    
    36   19   27 am   BACKBONE|DICT|INTERRES
    37   20   25 ar   
    38   20   21 ar   
    39   21   22 ar   
    40   21   52 1    
    41   22   23 ar   
    42   22   53 1    
    43   23   24 ar   
    44   23   54 1    
    45   24   25 ar   
    46   24   55 1    
    47   25   26 1    
    48   27   28 2    
    49   27   29 1    
    50   29   33 1    
    51   29   30 2    
    52   30   31 1    
    53   30   37 1    
    54   31   32 2    
    55   31   34 1    
    56   32   33 1    
    57   34   35 2    
    58   34   36 am   BACKBONE|DICT|INTERRES
    59   36   56 1    
    60   36   57 1    
    61   37   58 1    
    62   37   59 1    
@<TRIPOS>SUBSTRUCTURE
     1 UNK         1 GROUP             0       ****    0 ROOT    
