@<TRIPOS>MOLECULE
ZINC63376149_655
63   68    1
SMALL
USER_CHARGES


@<TRIPOS>ATOM
      1 C1          1.9810   47.9378   19.9942 C.3       1 UNK         0.0000 
      2 C2          1.8721   49.1962   20.8424 C.3       1 UNK         0.0000 
      3 C3          0.7460   50.1505   20.3981 C.3       1 UNK         0.0000 
      4 H4         -0.1170   49.5213   20.1727 H         1 UNK         0.0000 
      5 C5          1.0747   50.9024   19.0880 C.3       1 UNK         0.0000 
      6 N6          0.3696   51.0493   21.5068 N.am      1 UNK         0.0000 
      7 C7          1.2152   51.9642   22.0497 C.2       1 UNK         0.0000 
      8 O8          2.3712   52.2354   21.7229 O.2       1 UNK         0.0000 
      9 C9          0.4682   52.6580   23.1663 C.3       1 UNK         0.0000 
     10 H10         0.3047   53.6966   22.9150 H         1 UNK         0.0000 
     11 C11         1.1536   52.5098   24.5305 C.3       1 UNK         0.0000 
     12 H12         1.7997   51.6270   24.5345 H         1 UNK         0.0000 
     13 N13         0.0427   52.2703   25.4402 N.3       1 UNK         0.0000 
     14 C14        -0.9394   51.4348   24.7461 C.3       1 UNK         0.0000 
     15 C15        -0.8540   51.9621   23.2715 C.3       1 UNK         0.0000 
     16 H16        -1.6511   52.6799   23.0712 H         1 UNK         0.0000 
     17 C17        -0.8365   50.9552   22.1249 C.2       1 UNK         0.0000 
     18 O18        -1.7824   50.2237   21.8327 O.2       1 UNK         0.0000 
     19 C19        -2.3103   51.4763   25.3595 C.ar      1 UNK         0.0000 
     20 C20        -3.2452   52.5105   25.4597 C.ar      1 UNK         0.0000 
     21 C21        -4.4636   52.2855   26.1128 C.ar      1 UNK         0.0000 
     22 C22        -4.7309   51.0285   26.6717 C.ar      1 UNK         0.0000 
     23 C23        -3.7931   49.9981   26.5724 C.ar      1 UNK         0.0000 
     24 C24        -2.5961   50.2389   25.9010 C.ar      1 UNK         0.0000 
     25 N25        -1.5349   49.3788   25.6817 N.am      1 UNK         0.0000 
     26 C26        -0.5355   49.9401   24.9848 C.2       1 UNK         0.0000 
     27 O27         0.5157   49.3982   24.6412 O.2       1 UNK         0.0000 
     28 C28        -5.4924   53.3949   26.2255 C.3       1 UNK         0.0000 
     29 C29         2.0262   53.7323   24.8546 C.3       1 UNK         0.0000 
     30 C30         2.8345   53.6966   26.1420 C.2       1 UNK         0.0000 
     31 C31         4.1297   53.9939   26.3553 C.2       1 UNK         0.0000 
     32 C32         5.1814   54.4286   25.4223 C.2       1 UNK         0.0000 
     33 C33         6.4334   54.6687   25.8584 C.2       1 UNK         0.0000 
     34 C34         6.7042   54.4966   27.2800 C.2       1 UNK         0.0000 
     35 C35         5.7439   54.1005   28.1546 C.2       1 UNK         0.0000 
     36 C36         4.4443   53.8404   27.7083 C.2       1 UNK         0.0000 
     37 N37         3.3920   53.4527   28.3859 N.pl3     1 UNK         0.0000 
     38 C38         2.2405   53.3036   27.4809 C.3       1 UNK         0.0000 
     39 H39         2.7044   47.2967   20.4811 H         1 UNK         0.0000 
     40 H40         1.0357   47.3965   19.9367 H         1 UNK         0.0000 
     41 H41         2.3349   48.1465   18.9827 H         1 UNK         0.0000 
     42 H42         2.8330   49.7136   20.8512 H         1 UNK         0.0000 
     43 H43         1.7008   48.8861   21.8755 H         1 UNK         0.0000 
     44 H44         1.3246   50.2032   18.2898 H         1 UNK         0.0000 
     45 H45         0.2293   51.4961   18.7411 H         1 UNK         0.0000 
     46 H46         1.9429   51.5534   19.1934 H         1 UNK         0.0000 
     47 H47         0.3281   51.8257   26.3011 H         1 UNK         0.0000 
     48 H48        -3.0321   53.4800   25.0346 H         1 UNK         0.0000 
     49 H49        -5.6656   50.8487   27.1853 H         1 UNK         0.0000 
     50 H50        -3.9979   49.0347   27.0174 H         1 UNK         0.0000 
     51 H51        -1.4384   48.4870   26.1511 H         1 UNK         0.0000 
     52 H52        -6.4309   53.0822   25.7625 H         1 UNK         0.0000 
     53 H53        -5.1619   54.3173   25.7432 H         1 UNK         0.0000 
     54 H54        -5.7015   53.6087   27.2745 H         1 UNK         0.0000 
     55 H55         2.7112   53.9097   24.0248 H         1 UNK         0.0000 
     56 H56         1.3698   54.5950   24.8812 H         1 UNK         0.0000 
     57 H57         4.9849   54.5506   24.3660 H         1 UNK         0.0000 
     58 H58         7.2077   54.9682   25.1654 H         1 UNK         0.0000 
     59 H59         7.6924   54.7065   27.6660 H         1 UNK         0.0000 
     60 H60         6.0084   54.0108   29.1980 H         1 UNK         0.0000 
     61 H61         1.4437   53.9673   27.8214 H         1 UNK         0.0000 
     62 H62         1.9157   52.2636   27.5302 H         1 UNK         0.0000 
     63 H63         3.3654   53.2706   29.3851 H         1 UNK         0.0000 
@<TRIPOS>BOND
     1    1    2 1    
     2    1   39 1    
     3    1   40 1    
     4    1   41 1    
     5    2    3 1    
     6    2   42 1    
     7    2   43 1    
     8    3    4 1    
     9    3    5 1    
    10    3    6 1    
    11    5   44 1    
    12    5   45 1    
    13    5   46 1    
    14    6   17 am   BACKBONE|DICT|INTERRES
    15    6    7 am   BACKBONE|DICT|INTERRES
    16    7    8 2    
    17    7    9 1    
    18    9   10 1    
    19    9   15 1    
    20    9   11 1    
    21   11   12 1    
    22   11   13 1    
    23   11   29 1    
    24   13   14 1    
    25   13   47 1    
    26   14   26 1    
    27   14   15 1    
    28   14   19 1    
    29   15   16 1    
    30   15   17 1    
    31   17   18 2    
    32   19   24 ar   
    33   19   20 ar   
    34   20   21 ar   
    35   20   48 1    
    36   21   22 ar   
    37   21   28 1    
    38   22   23 ar   
    39   22   49 1    
    40   23   24 ar   
    41   23   50 1    
    42   24   25 1    
    43   25   26 am   BACKBONE|DICT|INTERRES
    44   25   51 1    
    45   26   27 2    
    46   28   52 1    
    47   28   53 1    
    48   28   54 1    
    49   29   30 1    
    50   29   55 1    
    51   29   56 1    
    52   30   38 1    
    53   30   31 2    
    54   31   36 1    
    55   31   32 1    
    56   32   33 2    
    57   32   57 1    
    58   33   34 1    
    59   33   58 1    
    60   34   35 2    
    61   34   59 1    
    62   35   36 1    
    63   35   60 1    
    64   36   37 2    
    65   37   38 1    
    66   37   63 1    
    67   38   61 1    
    68   38   62 1    
@<TRIPOS>SUBSTRUCTURE
     1 UNK         1 GROUP             0       ****    0 ROOT    
