@<TRIPOS>MOLECULE
ZINC33939919_3391
67   71    1
SMALL
USER_CHARGES


@<TRIPOS>ATOM
      1 C1         -5.4514   44.2165   26.1601 C.3       1 UNK         0.0000 
      2 C2         -4.4958   45.2972   25.7229 C.2       1 UNK         0.0000 
      3 C3         -3.5942   46.1062   26.3706 C.2       1 UNK         0.0000 
      4 C4         -3.0520   46.9256   25.3844 C.2       1 UNK         0.0000 
      5 N5         -3.5155   46.6054   24.1890 N.2       1 UNK         0.0000 
      6 O6         -4.4376   45.5738   24.3965 O.3       1 UNK         0.0000 
      7 N7         -2.1721   47.9459   25.6818 N.am      1 UNK         0.0000 
      8 C8         -1.7786   48.9740   24.9050 C.2       1 UNK         0.0000 
      9 O9         -2.0329   49.0896   23.7049 O.2       1 UNK         0.0000 
     10 C10        -1.0165   50.0787   25.6855 C.3       1 UNK         0.0000 
     11 H11        -0.6905   49.6416   26.6321 H         1 UNK         0.0000 
     12 C12         0.1980   50.7753   25.0451 C.3       1 UNK         0.0000 
     13 H13         0.9771   50.6733   25.7991 H         1 UNK         0.0000 
     14 C14         0.9326   50.4474   23.7614 C.2       1 UNK         0.0000 
     15 O15         1.0549   49.3224   23.2799 O.2       1 UNK         0.0000 
     16 N16         1.4208   51.6660   23.3355 N.am      1 UNK         0.0000 
     17 C17         0.9957   52.7942   24.2485 C.3       1 UNK         0.0000 
     18 H18         0.7352   53.6722   23.6577 H         1 UNK         0.0000 
     19 C19        -0.2852   52.1865   24.8341 C.3       1 UNK         0.0000 
     20 C20        -1.5590   52.4066   24.0152 C.2       1 UNK         0.0000 
     21 C21        -2.5526   51.9026   24.7563 C.2       1 UNK         0.0000 
     22 C22        -1.8668   51.3581   25.9977 C.3       1 UNK         0.0000 
     23 O23        -0.8148   52.3273   26.1412 O.3       1 UNK         0.0000 
     24 C24        -2.7530   51.2961   27.2489 C.3       1 UNK         0.0000 
     25 C25         2.0139   53.3176   25.3188 C.2       1 UNK         0.0000 
     26 O26         2.8399   54.1628   24.9899 O.2       1 UNK         0.0000 
     27 N27         1.8897   52.9063   26.5981 N.am      1 UNK         0.0000 
     28 C28         2.5951   53.3211   27.8238 C.3       1 UNK         0.0000 
     29 C29         2.3052   52.2425   28.8877 C.3       1 UNK         0.0000 
     30 C30         2.0441   54.6695   28.3385 C.3       1 UNK         0.0000 
     31 C31         4.1303   53.4280   27.6527 C.3       1 UNK         0.0000 
     32 C32         2.1793   51.8269   22.1354 C.ar      1 UNK         0.0000 
     33 C33         1.9800   50.9747   21.0311 C.ar      1 UNK         0.0000 
     34 C34         2.7008   51.1353   19.8538 C.ar      1 UNK         0.0000 
     35 C35         3.6343   52.1565   19.7458 C.ar      1 UNK         0.0000 
     36 C36         3.8650   53.0280   20.8146 C.ar      1 UNK         0.0000 
     37 C37         3.1207   52.8617   21.9951 C.ar      1 UNK         0.0000 
     38 C38         4.9061   54.0991   20.7243 C.2       1 UNK         0.0000 
     39 O39         5.2813   54.7686   21.6848 O.2       1 UNK         0.0000 
     40 C40         5.5021   54.4141   19.3533 C.3       1 UNK         0.0000 
     41 H41        -5.3968   44.0402   27.2358 H         1 UNK         0.0000 
     42 H42        -6.4834   44.4849   25.9288 H         1 UNK         0.0000 
     43 H43        -5.2481   43.2630   25.6699 H         1 UNK         0.0000 
     44 H44        -3.3865   46.1368   27.4319 H         1 UNK         0.0000 
     45 H45        -1.9008   48.0001   26.6641 H         1 UNK         0.0000 
     46 H46        -1.5977   52.8374   23.0264 H         1 UNK         0.0000 
     47 H47        -3.6039   51.8063   24.5303 H         1 UNK         0.0000 
     48 H48        -3.5061   50.5115   27.1560 H         1 UNK         0.0000 
     49 H49        -2.1583   51.0766   28.1400 H         1 UNK         0.0000 
     50 H50        -3.2718   52.2388   27.4105 H         1 UNK         0.0000 
     51 H51         1.0773   52.3299   26.7764 H         1 UNK         0.0000 
     52 H52         2.7842   52.4765   29.8384 H         1 UNK         0.0000 
     53 H53         2.6730   51.2690   28.5703 H         1 UNK         0.0000 
     54 H54         1.2370   52.1372   29.0797 H         1 UNK         0.0000 
     55 H55         2.3028   55.4962   27.6816 H         1 UNK         0.0000 
     56 H56         0.9573   54.6507   28.4321 H         1 UNK         0.0000 
     57 H57         2.4491   54.9177   29.3195 H         1 UNK         0.0000 
     58 H58         4.4153   54.2198   26.9598 H         1 UNK         0.0000 
     59 H59         4.6245   53.6457   28.6014 H         1 UNK         0.0000 
     60 H60         4.5565   52.4980   27.2750 H         1 UNK         0.0000 
     61 H61         1.2480   50.1825   21.0485 H         1 UNK         0.0000 
     62 H62         2.5449   50.4656   19.0201 H         1 UNK         0.0000 
     63 H63         4.1863   52.2273   18.8186 H         1 UNK         0.0000 
     64 H64         3.3026   53.5429   22.8072 H         1 UNK         0.0000 
     65 H65         6.0737   53.5634   18.9819 H         1 UNK         0.0000 
     66 H66         4.7053   54.6249   18.6397 H         1 UNK         0.0000 
     67 H67         6.1559   55.2838   19.4039 H         1 UNK         0.0000 
@<TRIPOS>BOND
     1    1    2 1    
     2    1   41 1    
     3    1   42 1    
     4    1   43 1    
     5    2    6 1    
     6    2    3 2    
     7    3    4 1    
     8    3   44 1    
     9    4    5 2    
    10    4    7 1    
    11    5    6 1    
    12    7    8 am   BACKBONE|DICT|INTERRES
    13    7   45 1    
    14    8    9 2    
    15    8   10 1    
    16   10   11 1    
    17   10   22 1    
    18   10   12 1    
    19   12   13 1    
    20   12   19 1    
    21   12   14 1    
    22   14   15 2    
    23   14   16 am   BACKBONE|DICT|INTERRES
    24   16   17 1    
    25   16   32 1    
    26   17   18 1    
    27   17   19 1    
    28   17   25 1    
    29   19   23 1    
    30   19   20 1    
    31   20   21 2    
    32   20   46 1    
    33   21   22 1    
    34   21   47 1    
    35   22   23 1    
    36   22   24 1    
    37   24   48 1    
    38   24   49 1    
    39   24   50 1    
    40   25   26 2    
    41   25   27 am   BACKBONE|DICT|INTERRES
    42   27   28 1    
    43   27   51 1    
    44   28   29 1    
    45   28   30 1    
    46   28   31 1    
    47   29   52 1    
    48   29   53 1    
    49   29   54 1    
    50   30   55 1    
    51   30   56 1    
    52   30   57 1    
    53   31   58 1    
    54   31   59 1    
    55   31   60 1    
    56   32   37 ar   
    57   32   33 ar   
    58   33   34 ar   
    59   33   61 1    
    60   34   35 ar   
    61   34   62 1    
    62   35   36 ar   
    63   35   63 1    
    64   36   37 ar   
    65   36   38 1    
    66   37   64 1    
    67   38   39 2    
    68   38   40 1    
    69   40   65 1    
    70   40   66 1    
    71   40   67 1    
@<TRIPOS>SUBSTRUCTURE
     1 UNK         1 GROUP             0       ****    0 ROOT    
