ZINC31891318_1670
                    3D
 Schrodinger Suite 2024-2.
 31 34  0  0  1  0            999 V2000
    1.9649   53.6728   24.3741 C   0  0  0  0  0  0
    0.8373   53.2285   23.6936 C   0  0  0  0  0  0
   -0.1000   52.4318   24.3481 C   0  0  0  0  0  0
    0.0961   52.0519   25.6813 C   0  0  0  0  0  0
    1.2395   52.4987   26.3511 C   0  0  0  0  0  0
    2.1906   53.3036   25.7067 C   0  0  0  0  0  0
    3.4190   53.7486   26.4435 C   0  0  0  0  0  0
    3.5930   53.8743   27.8155 C   0  0  0  0  0  0
    5.1975   54.4160   28.3044 S   0  0  0  0  0  0
    5.6510   54.4844   26.6189 C   0  0  0  0  0  0
    4.6116   54.0998   25.8119 N   0  0  0  0  0  0
    5.0484   54.1412   24.5199 N   0  0  0  0  0  0
    6.2918   54.5356   24.6715 C   0  0  0  0  0  0
    6.7077   54.7785   25.9018 N   0  0  0  0  0  0
    7.1043   54.6730   23.5887 N   0  0  0  0  0  0
   -0.9443   51.1380   26.3162 C   0  0  0  0  0  0
   -2.3696   51.4123   25.7538 C   0  0  0  0  0  0
   -2.4098   51.5843   24.2114 C   0  0  0  0  0  0
   -3.4047   51.3814   23.5227 O   0  0  0  0  0  0
   -1.2624   52.0494   23.6797 N   0  0  0  0  0  0
    2.6509   54.3121   23.8417 H   0  0  0  0  0  0
    0.7050   53.5200   22.6636 H   0  0  0  0  0  0
    1.3956   52.1920   27.3750 H   0  0  0  0  0  0
    2.8562   53.6772   28.5793 H   0  0  0  0  0  0
    6.7638   54.5058   22.6555 H   0  0  0  0  0  0
    8.0986   54.8970   23.6788 H   0  0  0  0  0  0
   -0.6748   50.0980   26.1194 H   0  0  0  0  0  0
   -0.9449   51.2387   27.4049 H   0  0  0  0  0  0
   -2.7616   52.3342   26.1842 H   0  0  0  0  0  0
   -3.0458   50.6003   26.0267 H   0  0  0  0  0  0
   -1.3237   52.2142   22.6875 H   0  0  0  0  0  0
  1  6  2  0  0  0
  1  2  1  0  0  0
  1 21  1  0  0  0
  2  3  2  0  0  0
  2 22  1  0  0  0
  3 20  1  0  0  0
  3  4  1  0  0  0
  4  5  2  0  0  0
  4 16  1  0  0  0
  5  6  1  0  0  0
  5 23  1  0  0  0
  6  7  1  0  0  0
  7 11  1  0  0  0
  7  8  2  0  0  0
  8  9  1  0  0  0
  8 24  1  0  0  0
  9 10  1  0  0  0
 10 14  2  0  0  0
 10 11  1  0  0  0
 11 12  1  0  0  0
 12 13  2  0  0  0
 13 14  1  0  0  0
 13 15  1  0  0  0
 15 25  1  0  0  0
 15 26  1  0  0  0
 16 17  1  0  0  0
 16 27  1  0  0  0
 16 28  1  0  0  0
 17 18  1  0  0  0
 17 29  1  0  0  0
 17 30  1  0  0  0
 18 19  2  0  0  0
 18 20  1  0  0  0
 20 31  1  0  0  0
M  END
> <i_i_glide_confnum>
6

> <i_i_glide_lignum>
1671

> <i_i_glide_posenum>
288

> <i_i_glide_rotatable_bonds>
1

> <i_m_Source_File_Index>
4385

> <b_m_subgroup_collapsed>
0

> <r_i_docking_score>
-7.76862

> <r_i_glide_ecoul>
-5.6714

> <r_i_glide_eff_state_penalty>
0

> <r_i_glide_einternal>
0.501625

> <r_i_glide_emodel>
-56.1624

> <r_i_glide_energy>
-37.8777

> <r_i_glide_erotb>
0.15599

> <r_i_glide_esite>
-0.00265537

> <r_i_glide_evdw>
-32.2063

> <r_i_glide_gscore>
-7.76862

> <r_i_glide_hbond>
-0.506749

> <r_i_glide_ligand_efficiency>
-0.388431

> <r_i_glide_ligand_efficiency_ln>
-1.94423

> <r_i_glide_ligand_efficiency_sa>
-1.05436

> <r_i_glide_lipo>
-1.48116

> <r_i_glide_metal>
0

> <r_i_glide_rewards>
-3.47301

> <s_i_glide_gridfile>
wee1_glide-grid

> <s_m_Source_File>
wee1_decoys_glide_SP.sdf

> <s_m_Source_Path>
/Users/zhangxujun/Desktop

> <s_m_entry_id>
4660

> <s_m_entry_name>
wee1_decoys_glide_SP.4385

> <s_m_subgroup_title>
wee1_decoys_glide_SP

> <s_m_subgroupid>
wee1_decoys_glide_SP


$$$$
