ZINC39686367_180
                    3D
 Schrodinger Suite 2024-2.
 66 69  0  0  1  0            999 V2000
    1.0282   49.7040   20.3041 C   0  0  0  0  0  0
    1.6071   51.1357   20.2968 C   0  0  2  0  0  0
    1.0518   51.7273   19.5638 H   0  0  0  0  0  0
    3.0849   51.1165   19.8568 C   0  0  0  0  0  0
    3.6506   52.4882   19.4906 C   0  0  0  0  0  0
    3.5575   52.8989   18.1571 C   0  0  0  0  0  0
    4.1066   54.1114   17.7503 C   0  0  0  0  0  0
    4.7620   54.9170   18.6763 C   0  0  0  0  0  0
    4.8599   54.5127   20.0060 C   0  0  0  0  0  0
    4.2938   53.3018   20.4421 C   0  0  0  0  0  0
    4.3470   52.8724   21.7594 O   0  0  0  0  0  0
    4.9486   53.7240   22.7340 C   0  0  0  0  0  0
    1.4601   51.7771   21.6035 N   0  0  0  0  0  0
    0.3002   52.1680   22.1587 C   0  0  0  0  0  0
   -0.7757   52.0949   21.5616 O   0  0  0  0  0  0
    0.2810   52.6585   23.6273 C   0  0  2  0  0  0
   -0.4528   53.4645   23.6823 H   0  0  0  0  0  0
    1.6222   53.2981   24.0389 C   0  0  0  0  0  0
    1.6501   53.1166   25.4921 N   0  0  0  0  0  0
    0.5952   52.2020   25.9520 C   0  0  0  0  0  0
    0.0092   51.5464   24.6755 C   0  0  0  0  0  0
   -1.4971   51.1980   24.7648 C   0  0  0  0  0  0
   -1.7917   50.2328   25.9279 C   0  0  0  0  0  0
   -0.9993   48.9254   25.6940 N   0  3  0  0  0  0
    0.5140   49.1329   25.4726 C   0  0  0  0  0  0
    0.7145   50.1846   24.3555 C   0  0  0  0  0  0
    2.6359   53.6687   26.2547 C   0  0  0  0  0  0
    3.5049   54.3969   25.7723 O   0  0  0  0  0  0
    2.7291   53.2974   27.7199 C   0  0  0  0  0  0
    3.9687   52.9063   28.2411 C   0  0  0  0  0  0
    4.0756   52.4517   29.5530 C   0  0  0  0  0  0
    2.9546   52.4028   30.3750 C   0  0  0  0  0  0
    1.7236   52.8688   29.8958 C   0  0  0  0  0  0
    1.6180   53.3191   28.5776 C   0  0  0  0  0  0
    0.3124   52.8720   30.8923 Cl  0  0  0  0  0  0
    3.1231   51.7126   31.9528 Cl  0  0  0  0  0  0
    1.1683   49.2262   19.3347 H   0  0  0  0  0  0
    1.5315   49.0726   21.0382 H   0  0  0  0  0  0
   -0.0437   49.6966   20.5054 H   0  0  0  0  0  0
    3.1738   50.4768   18.9759 H   0  0  0  0  0  0
    3.7162   50.6424   20.6087 H   0  0  0  0  0  0
    3.0821   52.2633   17.4238 H   0  0  0  0  0  0
    4.0374   54.4176   16.7174 H   0  0  0  0  0  0
    5.1969   55.8549   18.3628 H   0  0  0  0  0  0
    5.3766   55.1699   20.6871 H   0  0  0  0  0  0
    4.8784   53.2839   23.7265 H   0  0  0  0  0  0
    6.0063   53.8848   22.5254 H   0  0  0  0  0  0
    4.4405   54.6876   22.7829 H   0  0  0  0  0  0
    2.3277   51.9940   22.0711 H   0  0  0  0  0  0
    2.4713   52.7209   23.6706 H   0  0  0  0  0  0
    1.7028   54.3420   23.7281 H   0  0  0  0  0  0
   -0.1973   52.8300   26.3611 H   0  0  0  0  0  0
    0.8804   51.4809   26.7153 H   0  0  0  0  0  0
   -2.0667   52.1100   24.9492 H   0  0  0  0  0  0
   -1.8765   50.8115   23.8174 H   0  0  0  0  0  0
   -1.4766   50.6074   26.9045 H   0  0  0  0  0  0
   -2.8422   49.9440   25.9864 H   0  0  0  0  0  0
   -1.1309   48.3660   26.5437 H   0  0  0  0  0  0
    0.9313   49.4129   26.4411 H   0  0  0  0  0  0
    0.9120   48.1525   25.2113 H   0  0  0  0  0  0
    0.3715   49.7667   23.4072 H   0  0  0  0  0  0
    1.7849   50.3411   24.2159 H   0  0  0  0  0  0
    4.8505   52.8962   27.6154 H   0  0  0  0  0  0
    5.0289   52.0966   29.9152 H   0  0  0  0  0  0
    0.6571   53.6686   28.2289 H   0  0  0  0  0  0
   -1.4022   48.4103   24.9242 H   0  0  0  0  0  0
  1  2  1  0  0  0
  1 37  1  0  0  0
  1 38  1  0  0  0
  1 39  1  0  0  0
  2  3  1  0  0  0
  2  4  1  0  0  0
  2 13  1  0  0  0
  4  5  1  0  0  0
  4 40  1  0  0  0
  4 41  1  0  0  0
  5 10  2  0  0  0
  5  6  1  0  0  0
  6  7  2  0  0  0
  6 42  1  0  0  0
  7  8  1  0  0  0
  7 43  1  0  0  0
  8  9  2  0  0  0
  8 44  1  0  0  0
  9 10  1  0  0  0
  9 45  1  0  0  0
 10 11  1  0  0  0
 11 12  1  0  0  0
 12 46  1  0  0  0
 12 47  1  0  0  0
 12 48  1  0  0  0
 13 14  1  0  0  0
 13 49  1  0  0  0
 14 15  2  0  0  0
 14 16  1  0  0  0
 16 17  1  0  0  0
 16 21  1  0  0  0
 16 18  1  0  0  0
 18 19  1  0  0  0
 18 50  1  0  0  0
 18 51  1  0  0  0
 19 20  1  0  0  0
 19 27  1  0  0  0
 20 21  1  0  0  0
 20 52  1  0  0  0
 20 53  1  0  0  0
 21 26  1  0  0  0
 21 22  1  0  0  0
 22 23  1  0  0  0
 22 54  1  0  0  0
 22 55  1  0  0  0
 23 24  1  0  0  0
 23 56  1  0  0  0
 23 57  1  0  0  0
 24 25  1  0  0  0
 24 58  1  0  0  0
 24 66  1  0  0  0
 25 26  1  0  0  0
 25 59  1  0  0  0
 25 60  1  0  0  0
 26 61  1  0  0  0
 26 62  1  0  0  0
 27 28  2  0  0  0
 27 29  1  0  0  0
 29 34  2  0  0  0
 29 30  1  0  0  0
 30 31  2  0  0  0
 30 63  1  0  0  0
 31 32  1  0  0  0
 31 64  1  0  0  0
 32 33  2  0  0  0
 32 36  1  0  0  0
 33 34  1  0  0  0
 33 35  1  0  0  0
 34 65  1  0  0  0
M  CHG  1  24   1
M  END
> <i_i_glide_confnum>
395

> <i_i_glide_lignum>
181

> <i_i_glide_posenum>
110

> <i_i_glide_rotatable_bonds>
8

> <i_m_Source_File_Index>
1818

> <b_m_subgroup_collapsed>
0

> <r_i_docking_score>
-4.85432

> <r_i_glide_ecoul>
-5.32142

> <r_i_glide_eff_state_penalty>
0

> <r_i_glide_einternal>
5.68529

> <r_i_glide_emodel>
-59.5715

> <r_i_glide_energy>
-46.947

> <r_i_glide_erotb>
0.5604

> <r_i_glide_esite>
-0.1

> <r_i_glide_evdw>
-41.6256

> <r_i_glide_gscore>
-4.85432

> <r_i_glide_hbond>
-0.193692

> <r_i_glide_ligand_efficiency>
-0.142774

> <r_i_glide_ligand_efficiency_ln>
-1.07245

> <r_i_glide_ligand_efficiency_sa>
-0.462532

> <r_i_glide_lipo>
-1.69133

> <r_i_glide_metal>
0

> <r_i_glide_rewards>
-0.550202

> <s_i_glide_gridfile>
wee1_glide-grid

> <s_m_Source_File>
wee1_decoys_glide_SP.sdf

> <s_m_Source_Path>
/Users/zhangxujun/Desktop

> <s_m_entry_id>
2093

> <s_m_entry_name>
wee1_decoys_glide_SP.1818

> <s_m_subgroup_title>
wee1_decoys_glide_SP

> <s_m_subgroupid>
wee1_decoys_glide_SP


$$$$
