ZINC21225245_3929
                    3D
 Schrodinger Suite 2024-2.
 59 63  0  0  1  0            999 V2000
    0.1372   49.6912   25.5120 C   0  0  0  0  0  0
    0.3026   51.1465   25.5858 N   0  0  0  0  0  0
    0.0935   51.7381   26.9087 C   0  0  0  0  0  0
    1.1014   51.8232   24.6187 C   0  0  0  0  0  0
    1.5333   53.1443   24.8237 C   0  0  0  0  0  0
    2.3251   53.7990   23.8837 C   0  0  0  0  0  0
    2.7058   53.1538   22.7054 C   0  0  0  0  0  0
    2.2764   51.8405   22.4834 C   0  0  0  0  0  0
    1.4872   51.1886   23.4271 C   0  0  0  0  0  0
    3.5733   53.9105   21.6898 C   0  0  2  0  0  0
    3.1043   54.8962   21.6527 H   0  0  0  0  0  0
    3.5502   53.3199   20.2596 C   0  0  0  0  0  0
    4.3793   54.2003   19.3294 C   0  0  0  0  0  0
    5.4550   54.9188   19.7504 C   0  0  0  0  0  0
    6.3198   55.7941   18.8288 C   0  0  2  0  0  0
    6.6916   56.6169   19.4409 H   0  0  0  0  0  0
    5.5948   56.5129   17.7794 N   0  0  0  0  0  0
    5.1060   55.8051   16.6690 C   0  0  0  0  0  0
    5.4497   56.2182   15.3766 C   0  0  0  0  0  0
    5.0546   55.5004   14.2523 C   0  0  0  0  0  0
    4.2952   54.3481   14.4056 C   0  0  0  0  0  0
    3.9155   53.9392   15.6801 C   0  0  0  0  0  0
    4.2843   54.6580   16.8237 C   0  0  0  0  0  0
    3.8004   54.2491   18.0778 N   0  0  0  0  0  0
    7.5485   55.0508   18.2553 C   0  0  0  0  0  0
    7.4055   53.7750   17.6815 C   0  0  0  0  0  0
    8.4977   53.1060   17.1334 C   0  0  0  0  0  0
    9.7572   53.6970   17.1572 C   0  0  0  0  0  0
    9.9213   54.9528   17.7353 C   0  0  0  0  0  0
    8.8311   55.6247   18.2916 C   0  0  0  0  0  0
    9.0557   56.8436   18.8740 O   0  0  0  0  0  0
    5.8935   54.8895   21.1710 C   0  0  0  0  0  0
    6.9559   55.3841   21.5488 O   0  0  0  0  0  0
    5.0294   54.0942   22.1722 C   0  0  0  0  0  0
    1.1023   49.1929   25.6078 H   0  0  0  0  0  0
   -0.2952   49.3871   24.5590 H   0  0  0  0  0  0
   -0.5077   49.3072   26.3044 H   0  0  0  0  0  0
    1.0410   51.8093   27.4447 H   0  0  0  0  0  0
   -0.3206   52.7433   26.8331 H   0  0  0  0  0  0
   -0.5909   51.1452   27.5180 H   0  0  0  0  0  0
    1.2733   53.6869   25.7181 H   0  0  0  0  0  0
    2.6426   54.8140   24.0749 H   0  0  0  0  0  0
    2.5487   51.3025   21.5887 H   0  0  0  0  0  0
    1.1902   50.1745   23.2112 H   0  0  0  0  0  0
    3.9692   52.3138   20.2055 H   0  0  0  0  0  0
    2.4955   53.2890   19.9774 H   0  0  0  0  0  0
    6.1111   57.3316   17.4905 H   0  0  0  0  0  0
    6.0619   57.0984   15.2425 H   0  0  0  0  0  0
    5.3481   55.8315   13.2667 H   0  0  0  0  0  0
    3.9912   53.7781   13.5398 H   0  0  0  0  0  0
    3.3070   53.0514   15.7789 H   0  0  0  0  0  0
    2.9841   53.6622   17.9957 H   0  0  0  0  0  0
    6.4448   53.2835   17.6564 H   0  0  0  0  0  0
    8.3662   52.1254   16.6993 H   0  0  0  0  0  0
   10.6065   53.1759   16.7402 H   0  0  0  0  0  0
   10.9067   55.3944   17.7651 H   0  0  0  0  0  0
    9.9929   56.9927   19.0190 H   0  0  0  0  0  0
    5.0821   54.5992   23.1363 H   0  0  0  0  0  0
    5.4855   53.1109   22.2878 H   0  0  0  0  0  0
  1  2  1  0  0  0
  1 35  1  0  0  0
  1 36  1  0  0  0
  1 37  1  0  0  0
  2  3  1  0  0  0
  2  4  1  0  0  0
  3 38  1  0  0  0
  3 39  1  0  0  0
  3 40  1  0  0  0
  4  9  2  0  0  0
  4  5  1  0  0  0
  5  6  2  0  0  0
  5 41  1  0  0  0
  6  7  1  0  0  0
  6 42  1  0  0  0
  7  8  2  0  0  0
  7 10  1  0  0  0
  8  9  1  0  0  0
  8 43  1  0  0  0
  9 44  1  0  0  0
 10 11  1  0  0  0
 10 34  1  0  0  0
 10 12  1  0  0  0
 12 13  1  0  0  0
 12 45  1  0  0  0
 12 46  1  0  0  0
 13 24  1  0  0  0
 13 14  2  0  0  0
 14 15  1  0  0  0
 14 32  1  0  0  0
 15 16  1  0  0  0
 15 17  1  0  0  0
 15 25  1  0  0  0
 17 18  1  0  0  0
 17 47  1  0  0  0
 18 23  2  0  0  0
 18 19  1  0  0  0
 19 20  2  0  0  0
 19 48  1  0  0  0
 20 21  1  0  0  0
 20 49  1  0  0  0
 21 22  2  0  0  0
 21 50  1  0  0  0
 22 23  1  0  0  0
 22 51  1  0  0  0
 23 24  1  0  0  0
 24 52  1  0  0  0
 25 30  2  0  0  0
 25 26  1  0  0  0
 26 27  2  0  0  0
 26 53  1  0  0  0
 27 28  1  0  0  0
 27 54  1  0  0  0
 28 29  2  0  0  0
 28 55  1  0  0  0
 29 30  1  0  0  0
 29 56  1  0  0  0
 30 31  1  0  0  0
 31 57  1  0  0  0
 32 33  2  0  0  0
 32 34  1  0  0  0
 34 58  1  0  0  0
 34 59  1  0  0  0
M  END
> <i_i_glide_confnum>
6

> <i_i_glide_lignum>
3930

> <i_i_glide_posenum>
295

> <i_i_glide_rotatable_bonds>
4

> <i_m_Source_File_Index>
194

> <b_m_subgroup_collapsed>
0

> <r_i_docking_score>
-4.37839

> <r_i_glide_ecoul>
-4.07434

> <r_i_glide_eff_state_penalty>
0

> <r_i_glide_einternal>
2.67546

> <r_i_glide_emodel>
-45.254

> <r_i_glide_energy>
-36.9696

> <r_i_glide_erotb>
0.21912

> <r_i_glide_esite>
-0.0116799

> <r_i_glide_evdw>
-32.8952

> <r_i_glide_gscore>
-4.37839

> <r_i_glide_hbond>
0

> <r_i_glide_ligand_efficiency>
-0.136825

> <r_i_glide_ligand_efficiency_ln>
-0.980441

> <r_i_glide_ligand_efficiency_sa>
-0.434391

> <r_i_glide_lipo>
-1.55669

> <r_i_glide_metal>
0

> <r_i_glide_rewards>
-0.773225

> <s_i_glide_gridfile>
wee1_glide-grid

> <s_m_Source_File>
wee1_decoys_glide_SP.sdf

> <s_m_Source_Path>
/Users/zhangxujun/Desktop

> <s_m_entry_id>
469

> <s_m_entry_name>
wee1_decoys_glide_SP.194

> <s_m_subgroup_title>
wee1_decoys_glide_SP

> <s_m_subgroupid>
wee1_decoys_glide_SP


$$$$
