ZINC59384736_4458
                    3D
 Schrodinger Suite 2024-2.
 51 53  0  0  1  0            999 V2000
    6.3666   53.5063   18.5593 C   0  0  0  0  0  0
    5.3528   53.5698   19.7008 C   0  0  0  0  0  0
    5.2569   54.5282   20.6701 C   0  0  0  0  0  0
    4.2071   54.3621   21.8242 C   0  0  1  0  0  0
    3.5867   55.2585   21.8075 H   0  0  0  0  0  0
    3.3025   53.2348   21.4928 N   0  0  0  0  0  0
    3.4906   52.2785   20.5425 C   0  0  0  0  0  0
    2.5208   50.9417   20.4630 S   0  0  0  0  0  0
    4.5226   52.4967   19.6841 N   0  0  0  0  0  0
    4.6706   54.2821   23.2875 C   0  0  0  0  0  0
    5.9974   54.0562   23.6595 C   0  0  0  0  0  0
    6.3661   54.0967   25.0024 C   0  0  0  0  0  0
    5.4180   54.3234   26.0141 C   0  0  0  0  0  0
    4.0826   54.5058   25.6267 C   0  0  0  0  0  0
    3.7169   54.4951   24.2856 C   0  0  0  0  0  0
    5.7964   54.3829   27.3847 N   0  0  0  0  0  0
    4.7824   54.4748   28.4364 C   0  0  0  0  0  0
    7.1042   53.8824   27.8011 C   0  0  0  0  0  0
    6.0901   55.7255   20.6794 C   0  0  0  0  0  0
    6.7045   56.0958   21.6816 O   0  0  0  0  0  0
    6.1570   56.3788   19.4993 N   0  0  0  0  0  0
    7.1054   57.3048   19.2575 N   0  0  0  0  0  0
    7.1160   57.7368   18.0612 C   0  0  0  0  0  0
    8.1769   58.6116   17.5463 C   0  0  0  0  0  0
    7.9031   59.4786   16.4828 C   0  0  0  0  0  0
    8.8925   60.3193   15.9791 C   0  0  0  0  0  0
   10.1699   60.2899   16.5298 C   0  0  0  0  0  0
   10.4657   59.4244   17.5783 C   0  0  0  0  0  0
    9.4739   58.5871   18.0822 C   0  0  0  0  0  0
   11.1290   61.1113   16.0474 F   0  0  0  0  0  0
    7.2620   54.0972   18.7531 H   0  0  0  0  0  0
    6.7042   52.4837   18.3879 H   0  0  0  0  0  0
    5.9123   53.8590   17.6327 H   0  0  0  0  0  0
    2.4837   53.0843   22.0622 H   0  0  0  0  0  0
    4.6565   51.7413   19.0141 H   0  0  0  0  0  0
    6.7572   53.8729   22.9145 H   0  0  0  0  0  0
    7.4076   53.9481   25.2308 H   0  0  0  0  0  0
    3.3034   54.6764   26.3517 H   0  0  0  0  0  0
    2.6839   54.6711   24.0224 H   0  0  0  0  0  0
    4.0790   55.2854   28.2460 H   0  0  0  0  0  0
    5.2297   54.6606   29.4138 H   0  0  0  0  0  0
    4.2123   53.5464   28.4924 H   0  0  0  0  0  0
    7.9039   54.4189   27.2932 H   0  0  0  0  0  0
    7.2650   53.9886   28.8749 H   0  0  0  0  0  0
    7.2016   52.8250   27.5545 H   0  0  0  0  0  0
    5.5844   56.1097   18.7131 H   0  0  0  0  0  0
    6.3515   57.4746   17.3305 H   0  0  0  0  0  0
    6.9091   59.5344   16.0583 H   0  0  0  0  0  0
    8.6650   60.9987   15.1711 H   0  0  0  0  0  0
   11.4613   59.4003   17.9957 H   0  0  0  0  0  0
    9.7206   57.9173   18.8952 H   0  0  0  0  0  0
  1  2  1  0  0  0
  1 31  1  0  0  0
  1 32  1  0  0  0
  1 33  1  0  0  0
  2  9  1  0  0  0
  2  3  2  0  0  0
  3  4  1  0  0  0
  3 19  1  0  0  0
  4  5  1  0  0  0
  4  6  1  0  0  0
  4 10  1  0  0  0
  6  7  1  0  0  0
  6 34  1  0  0  0
  7  8  2  0  0  0
  7  9  1  0  0  0
  9 35  1  0  0  0
 10 15  2  0  0  0
 10 11  1  0  0  0
 11 12  2  0  0  0
 11 36  1  0  0  0
 12 13  1  0  0  0
 12 37  1  0  0  0
 13 14  2  0  0  0
 13 16  1  0  0  0
 14 15  1  0  0  0
 14 38  1  0  0  0
 15 39  1  0  0  0
 16 17  1  0  0  0
 16 18  1  0  0  0
 17 40  1  0  0  0
 17 41  1  0  0  0
 17 42  1  0  0  0
 18 43  1  0  0  0
 18 44  1  0  0  0
 18 45  1  0  0  0
 19 20  2  0  0  0
 19 21  1  0  0  0
 21 22  1  0  0  0
 21 46  1  0  0  0
 22 23  2  0  0  0
 23 24  1  0  0  0
 23 47  1  0  0  0
 24 29  2  0  0  0
 24 25  1  0  0  0
 25 26  2  0  0  0
 25 48  1  0  0  0
 26 27  1  0  0  0
 26 49  1  0  0  0
 27 28  2  0  0  0
 27 30  1  0  0  0
 28 29  1  0  0  0
 28 50  1  0  0  0
 29 51  1  0  0  0
M  END
> <i_i_glide_confnum>
12

> <i_i_glide_lignum>
4459

> <i_i_glide_posenum>
396

> <i_i_glide_rotatable_bonds>
6

> <i_m_Source_File_Index>
3916

> <b_m_subgroup_collapsed>
0

> <r_i_docking_score>
-6.21796

> <r_i_glide_ecoul>
-5.93078

> <r_i_glide_eff_state_penalty>
0

> <r_i_glide_einternal>
5.72153

> <r_i_glide_emodel>
-59.1879

> <r_i_glide_energy>
-44.7578

> <r_i_glide_erotb>
0.465604

> <r_i_glide_esite>
-0.125089

> <r_i_glide_evdw>
-38.827

> <r_i_glide_gscore>
-6.21796

> <r_i_glide_hbond>
-0.301787

> <r_i_glide_ligand_efficiency>
-0.214412

> <r_i_glide_ligand_efficiency_ln>
-1.42376

> <r_i_glide_ligand_efficiency_sa>
-0.658743

> <r_i_glide_lipo>
-2.16503

> <r_i_glide_metal>
0

> <r_i_glide_rewards>
-1.26069

> <s_i_glide_gridfile>
wee1_glide-grid

> <s_m_Source_File>
wee1_decoys_glide_SP.sdf

> <s_m_Source_Path>
/Users/zhangxujun/Desktop

> <s_m_entry_id>
4191

> <s_m_entry_name>
wee1_decoys_glide_SP.3916

> <s_m_subgroup_title>
wee1_decoys_glide_SP

> <s_m_subgroupid>
wee1_decoys_glide_SP


$$$$
