@<TRIPOS>MOLECULE
ZINC08606761_542
53   56    1
SMALL
USER_CHARGES


@<TRIPOS>ATOM
      1 C1         -1.2592   51.3578   27.2066 C.3       1 UNK         0.0000 
      2 C2          0.0223   52.0011   27.7177 C.ar      1 UNK         0.0000 
      3 C3          0.2221   52.0926   29.0970 C.ar      1 UNK         0.0000 
      4 C4          1.3989   52.6270   29.6104 C.ar      1 UNK         0.0000 
      5 C5          2.4011   53.0882   28.7490 C.ar      1 UNK         0.0000 
      6 C6          3.6796   53.6298   29.2792 C.2       1 UNK         0.0000 
      7 O7          3.9043   53.6966   30.4817 O.2       1 UNK         0.0000 
      8 C8          4.6170   54.0542   28.2577 C.2       1 UNK         0.0000 
      9 C9          4.3408   53.9673   26.9358 C.2       1 UNK         0.0000 
     10 O10         3.1451   53.4801   26.4776 O.3       1 UNK         0.0000 
     11 C11         2.1902   53.0225   27.3666 C.ar      1 UNK         0.0000 
     12 C12         1.0082   52.4803   26.8357 C.ar      1 UNK         0.0000 
     13 C13         0.7967   52.4019   25.3235 C.3       1 UNK         0.0000 
     14 C14         5.3019   54.3859   25.9178 C.2       1 UNK         0.0000 
     15 O15         6.3803   54.9264   26.1873 O.2       1 UNK         0.0000 
     16 N16         4.8714   54.1144   24.6666 N.am      1 UNK         0.0000 
     17 C17         5.4391   54.3959   23.4162 C.ar      1 UNK         0.0000 
     18 C18         6.7025   54.9700   23.2203 C.ar      1 UNK         0.0000 
     19 C19         7.1149   55.2967   21.9337 C.ar      1 UNK         0.0000 
     20 C20         6.2933   55.0408   20.8353 C.ar      1 UNK         0.0000 
     21 C21         5.0577   54.4120   21.0294 C.ar      1 UNK         0.0000 
     22 C22         4.6339   54.0968   22.3157 C.ar      1 UNK         0.0000 
     23 S23         6.9073   55.5256   19.2078 S.o2      1 UNK         0.0000 
     24 O24         7.3925   56.8924   19.4402 O.2       1 UNK         0.0000 
     25 O25         7.9022   54.4995   18.8817 O.2       1 UNK         0.0000 
     26 N26         5.6169   55.4060   18.3326 N.2       1 UNK         0.0000 
     27 C27         5.0005   56.4269   17.7217 C.2       1 UNK         0.0000 
     28 C28         3.7550   56.5200   17.1112 C.2       1 UNK         0.0000 
     29 C29         3.7192   57.8229   16.5974 C.2       1 UNK         0.0000 
     30 N30         4.8062   58.4967   16.8756 N.2       1 UNK         0.0000 
     31 O31         5.6160   57.6294   17.5935 O.3       1 UNK         0.0000 
     32 C32         2.6242   58.5040   15.8116 C.3       1 UNK         0.0000 
     33 C33         2.7180   55.4263   16.9389 C.3       1 UNK         0.0000 
     34 H34        -1.8564   52.0798   26.6483 H         1 UNK         0.0000 
     35 H35        -1.0230   50.5299   26.5350 H         1 UNK         0.0000 
     36 H36        -1.8665   50.9485   28.0166 H         1 UNK         0.0000 
     37 H37        -0.5275   51.7216   29.7828 H         1 UNK         0.0000 
     38 H38         1.5251   52.6640   30.6847 H         1 UNK         0.0000 
     39 H39         5.5715   54.4446   28.5842 H         1 UNK         0.0000 
     40 H40         1.5855   52.8875   24.7477 H         1 UNK         0.0000 
     41 H41         0.7362   51.3603   25.0054 H         1 UNK         0.0000 
     42 H42        -0.1438   52.8807   25.0495 H         1 UNK         0.0000 
     43 H43         3.9647   53.6720   24.6276 H         1 UNK         0.0000 
     44 H44         7.3671   55.1974   24.0371 H         1 UNK         0.0000 
     45 H45         8.0841   55.7551   21.7905 H         1 UNK         0.0000 
     46 H46         4.4105   54.1824   20.1949 H         1 UNK         0.0000 
     47 H47         3.6614   53.6430   22.4442 H         1 UNK         0.0000 
     48 H48         1.7029   57.9222   15.7979 H         1 UNK         0.0000 
     49 H49         2.3763   59.4803   16.2290 H         1 UNK         0.0000 
     50 H50         2.9208   58.6669   14.7751 H         1 UNK         0.0000 
     51 H51         2.2470   55.4738   15.9568 H         1 UNK         0.0000 
     52 H52         3.1538   54.4291   17.0156 H         1 UNK         0.0000 
     53 H53         1.9188   55.5066   17.6758 H         1 UNK         0.0000 
@<TRIPOS>BOND
     1    1    2 1    
     2    1   34 1    
     3    1   35 1    
     4    1   36 1    
     5    2   12 ar   
     6    2    3 ar   
     7    3    4 ar   
     8    3   37 1    
     9    4    5 ar   
    10    4   38 1    
    11    5   11 ar   
    12    5    6 1    
    13    6    7 2    
    14    6    8 1    
    15    8    9 2    
    16    8   39 1    
    17    9   10 1    
    18    9   14 1    
    19   10   11 1    
    20   11   12 ar   
    21   12   13 1    
    22   13   40 1    
    23   13   41 1    
    24   13   42 1    
    25   14   15 2    
    26   14   16 am   BACKBONE|DICT|INTERRES
    27   16   17 1    
    28   16   43 1    
    29   17   22 ar   
    30   17   18 ar   
    31   18   19 ar   
    32   18   44 1    
    33   19   20 ar   
    34   19   45 1    
    35   20   21 ar   
    36   20   23 1    
    37   21   22 ar   
    38   21   46 1    
    39   22   47 1    
    40   23   24 2    
    41   23   25 2    
    42   23   26 1    
    43   26   27 1    
    44   27   31 1    
    45   27   28 2    
    46   28   29 1    
    47   28   33 1    
    48   29   30 2    
    49   29   32 1    
    50   30   31 1    
    51   32   48 1    
    52   32   49 1    
    53   32   50 1    
    54   33   51 1    
    55   33   52 1    
    56   33   53 1    
@<TRIPOS>SUBSTRUCTURE
     1 UNK         1 GROUP             0       ****    0 ROOT    
