@<TRIPOS>MOLECULE
ZINC66733055_3805
43   45    1
SMALL
USER_CHARGES


@<TRIPOS>ATOM
      1 C1          5.6284   54.2769   28.7565 C.3       1 UNK         0.0000 
      2 C2          5.1886   54.2483   27.3075 C.ar      1 UNK         0.0000 
      3 C3          6.0435   54.7110   26.3206 C.ar      1 UNK         0.0000 
      4 C4          5.6739   54.6461   24.9795 C.ar      1 UNK         0.0000 
      5 C5          4.4058   54.1494   24.6063 C.ar      1 UNK         0.0000 
      6 C6          3.5040   53.6971   25.6123 C.ar      1 UNK         0.0000 
      7 C7          3.9458   53.7372   26.9526 C.ar      1 UNK         0.0000 
      8 N8          2.2411   53.0961   25.2419 N.am      1 UNK         0.0000 
      9 C9          2.0363   52.6678   23.8336 C.3       1 UNK         0.0000 
     10 C10         2.5208   53.8171   22.9416 C.3       1 UNK         0.0000 
     11 C11         4.0254   54.0260   23.1269 C.3       1 UNK         0.0000 
     12 C12         1.2088   52.8705   26.1279 C.2       1 UNK         0.0000 
     13 O13         1.1150   53.3530   27.2570 O.2       1 UNK         0.0000 
     14 C14         0.1544   51.8557   25.7818 C.ar      1 UNK         0.0000 
     15 C15         0.3058   50.5635   26.2769 C.ar      1 UNK         0.0000 
     16 C16        -0.6511   49.6026   26.0167 C.ar      1 UNK         0.0000 
     17 C17        -1.8076   49.9256   25.2987 C.ar      1 UNK         0.0000 
     18 C18        -1.9556   51.2226   24.7874 C.ar      1 UNK         0.0000 
     19 C19        -0.9818   52.1903   25.0360 C.ar      1 UNK         0.0000 
     20 C20        -2.8922   48.8970   25.1073 C.2       1 UNK         0.0000 
     21 O21        -3.6309   48.9045   24.1251 O.2       1 UNK         0.0000 
     22 N22        -3.0274   47.9942   26.0817 N.am      1 UNK         0.0000 
     23 C23         6.7110   55.0742   23.9471 C.3       1 UNK         0.0000 
     24 H24         5.8717   55.2971   29.0520 H         1 UNK         0.0000 
     25 H25         4.8591   53.8977   29.4297 H         1 UNK         0.0000 
     26 H26         6.5332   53.6818   28.8808 H         1 UNK         0.0000 
     27 H27         7.0159   55.0846   26.6037 H         1 UNK         0.0000 
     28 H28         3.3545   53.3349   27.7575 H         1 UNK         0.0000 
     29 H29         2.7015   51.8281   23.6325 H         1 UNK         0.0000 
     30 H30         1.0240   52.3897   23.5469 H         1 UNK         0.0000 
     31 H31         2.3190   53.5828   21.8956 H         1 UNK         0.0000 
     32 H32         1.9634   54.7310   23.1553 H         1 UNK         0.0000 
     33 H33         4.5630   53.1763   22.7038 H         1 UNK         0.0000 
     34 H34         4.3307   54.8967   22.5511 H         1 UNK         0.0000 
     35 H35         1.1531   50.2920   26.8879 H         1 UNK         0.0000 
     36 H36        -0.4984   48.6128   26.4278 H         1 UNK         0.0000 
     37 H37        -2.8385   51.4932   24.2244 H         1 UNK         0.0000 
     38 H38        -1.1193   53.1946   24.6600 H         1 UNK         0.0000 
     39 H39        -2.4781   48.0933   26.9424 H         1 UNK         0.0000 
     40 H40        -3.7504   47.2975   26.0241 H         1 UNK         0.0000 
     41 H41         7.5041   55.6672   24.4020 H         1 UNK         0.0000 
     42 H42         7.1552   54.1975   23.4762 H         1 UNK         0.0000 
     43 H43         6.2989   55.6962   23.1583 H         1 UNK         0.0000 
@<TRIPOS>BOND
     1    1    2 1    
     2    1   24 1    
     3    1   25 1    
     4    1   26 1    
     5    2    7 ar   
     6    2    3 ar   
     7    3    4 ar   
     8    3   27 1    
     9    4    5 ar   
    10    4   23 1    
    11    5   11 1    
    12    5    6 ar   
    13    6    7 ar   
    14    6    8 1    
    15    7   28 1    
    16    8    9 1    
    17    8   12 am   BACKBONE|DICT|INTERRES
    18    9   10 1    
    19    9   29 1    
    20    9   30 1    
    21   10   11 1    
    22   10   31 1    
    23   10   32 1    
    24   11   33 1    
    25   11   34 1    
    26   12   13 2    
    27   12   14 1    
    28   14   19 ar   
    29   14   15 ar   
    30   15   16 ar   
    31   15   35 1    
    32   16   17 ar   
    33   16   36 1    
    34   17   18 ar   
    35   17   20 1    
    36   18   19 ar   
    37   18   37 1    
    38   19   38 1    
    39   20   21 2    
    40   20   22 am   BACKBONE|DICT|INTERRES
    41   22   39 1    
    42   22   40 1    
    43   23   41 1    
    44   23   42 1    
    45   23   43 1    
@<TRIPOS>SUBSTRUCTURE
     1 UNK         1 GROUP             0       ****    0 ROOT    
