ZINC30958514_3268
                    3D
 Schrodinger Suite 2024-2.
 57 60  0  0  1  0            999 V2000
   -5.3838   51.2349   27.3079 C   0  0  0  0  0  0
   -4.6212   50.7330   28.3593 C   0  0  0  0  0  0
   -3.2390   50.8968   28.3475 C   0  0  0  0  0  0
   -2.6129   51.5476   27.2817 C   0  0  0  0  0  0
   -3.3920   52.0599   26.2310 C   0  0  0  0  0  0
   -4.7754   51.8987   26.2456 C   0  0  0  0  0  0
   -1.2155   51.7057   27.3795 N   0  0  0  0  0  0
   -0.3485   52.0965   26.4243 C   0  0  0  0  0  0
   -0.6051   52.1131   25.2202 O   0  0  0  0  0  0
    0.8101   52.5237   26.9722 N   0  0  0  0  0  0
    1.9044   53.1638   26.3481 C   0  0  0  0  0  0
    3.0704   53.2967   27.1061 C   0  0  0  0  0  0
    4.2302   53.8159   26.5325 C   0  0  0  0  0  0
    4.2402   54.2278   25.1929 C   0  0  0  0  0  0
    3.0324   54.2171   24.4817 C   0  0  0  0  0  0
    1.8828   53.6726   25.0412 C   0  0  0  0  0  0
    5.5344   54.7124   24.5614 C   0  0  0  0  0  0
    6.3395   55.3184   25.2779 O   0  0  0  0  0  0
    5.7687   54.4968   23.2305 N   0  0  0  0  0  0
    6.9704   55.1004   22.5903 C   0  0  0  0  0  0
    6.5754   55.6288   21.1843 C   0  0  0  0  0  0
    5.9075   54.5580   20.4196 N   0  0  0  0  0  0
    4.6894   54.0519   21.0715 C   0  0  0  0  0  0
    5.1038   53.4347   22.4253 C   0  0  0  0  0  0
    6.1282   54.4395   18.6675 S   0  0  0  0  0  0
    5.3358   53.3015   18.1923 O   0  0  0  0  0  0
    7.5676   54.5161   18.3939 O   0  0  0  0  0  0
    5.3816   55.9163   17.9715 C   0  0  0  0  0  0
    4.0771   55.8526   17.4679 C   0  0  0  0  0  0
    3.4952   56.9761   16.8807 C   0  0  0  0  0  0
    4.2102   58.1695   16.7960 C   0  0  0  0  0  0
    5.5046   58.2415   17.3078 C   0  0  0  0  0  0
    6.0876   57.1264   17.9096 C   0  0  0  0  0  0
    7.3322   57.2416   18.4269 F   0  0  0  0  0  0
   -6.4564   51.1056   27.3156 H   0  0  0  0  0  0
   -5.0950   50.2121   29.1788 H   0  0  0  0  0  0
   -2.6556   50.4953   29.1661 H   0  0  0  0  0  0
   -2.9500   52.5963   25.4063 H   0  0  0  0  0  0
   -5.3741   52.2892   25.4361 H   0  0  0  0  0  0
   -0.8326   51.4732   28.2827 H   0  0  0  0  0  0
    0.9326   52.3449   27.9561 H   0  0  0  0  0  0
    3.1061   52.9427   28.1262 H   0  0  0  0  0  0
    5.1341   53.8528   27.1251 H   0  0  0  0  0  0
    2.9733   54.6082   23.4762 H   0  0  0  0  0  0
    0.9906   53.6579   24.4362 H   0  0  0  0  0  0
    7.6999   54.2972   22.4814 H   0  0  0  0  0  0
    7.4207   55.8979   23.1840 H   0  0  0  0  0  0
    7.4580   55.9615   20.6378 H   0  0  0  0  0  0
    5.8705   56.4545   21.2825 H   0  0  0  0  0  0
    4.0226   54.8967   21.2410 H   0  0  0  0  0  0
    4.1745   53.3358   20.4303 H   0  0  0  0  0  0
    4.2945   52.8943   22.9065 H   0  0  0  0  0  0
    5.8727   52.6830   22.2393 H   0  0  0  0  0  0
    3.5132   54.9313   17.5180 H   0  0  0  0  0  0
    2.4886   56.9236   16.4917 H   0  0  0  0  0  0
    3.7623   59.0481   16.3508 H   0  0  0  0  0  0
    6.0454   59.1770   17.2568 H   0  0  0  0  0  0
  1  6  2  0  0  0
  1  2  1  0  0  0
  1 35  1  0  0  0
  2  3  2  0  0  0
  2 36  1  0  0  0
  3  4  1  0  0  0
  3 37  1  0  0  0
  4  5  2  0  0  0
  4  7  1  0  0  0
  5  6  1  0  0  0
  5 38  1  0  0  0
  6 39  1  0  0  0
  7  8  1  0  0  0
  7 40  1  0  0  0
  8  9  2  0  0  0
  8 10  1  0  0  0
 10 11  1  0  0  0
 10 41  1  0  0  0
 11 16  2  0  0  0
 11 12  1  0  0  0
 12 13  2  0  0  0
 12 42  1  0  0  0
 13 14  1  0  0  0
 13 43  1  0  0  0
 14 15  2  0  0  0
 14 17  1  0  0  0
 15 16  1  0  0  0
 15 44  1  0  0  0
 16 45  1  0  0  0
 17 18  2  0  0  0
 17 19  1  0  0  0
 19 24  1  0  0  0
 19 20  1  0  0  0
 20 21  1  0  0  0
 20 46  1  0  0  0
 20 47  1  0  0  0
 21 22  1  0  0  0
 21 48  1  0  0  0
 21 49  1  0  0  0
 22 23  1  0  0  0
 22 25  1  0  0  0
 23 24  1  0  0  0
 23 50  1  0  0  0
 23 51  1  0  0  0
 24 52  1  0  0  0
 24 53  1  0  0  0
 25 26  2  0  0  0
 25 27  2  0  0  0
 25 28  1  0  0  0
 28 33  2  0  0  0
 28 29  1  0  0  0
 29 30  2  0  0  0
 29 54  1  0  0  0
 30 31  1  0  0  0
 30 55  1  0  0  0
 31 32  2  0  0  0
 31 56  1  0  0  0
 32 33  1  0  0  0
 32 57  1  0  0  0
 33 34  1  0  0  0
M  END
> <i_i_glide_confnum>
130

> <i_i_glide_lignum>
3269

> <i_i_glide_posenum>
2

> <i_i_glide_rotatable_bonds>
8

> <i_m_Source_File_Index>
1091

> <b_m_subgroup_collapsed>
0

> <r_i_docking_score>
-4.85439

> <r_i_glide_ecoul>
-1.97124

> <r_i_glide_eff_state_penalty>
0

> <r_i_glide_einternal>
3.96745

> <r_i_glide_emodel>
-60.3621

> <r_i_glide_energy>
-46.0232

> <r_i_glide_erotb>
0.610133

> <r_i_glide_esite>
-0.175122

> <r_i_glide_evdw>
-44.0519

> <r_i_glide_gscore>
-4.85439

> <r_i_glide_hbond>
0

> <r_i_glide_ligand_efficiency>
-0.142776

> <r_i_glide_ligand_efficiency_ln>
-1.07247

> <r_i_glide_ligand_efficiency_sa>
-0.462539

> <r_i_glide_lipo>
-1.98628

> <r_i_glide_metal>
0

> <r_i_glide_rewards>
-0.804833

> <s_i_glide_gridfile>
wee1_glide-grid

> <s_m_Source_File>
wee1_decoys_glide_SP.sdf

> <s_m_Source_Path>
/Users/zhangxujun/Desktop

> <s_m_entry_id>
1366

> <s_m_entry_name>
wee1_decoys_glide_SP.1091

> <s_m_subgroup_title>
wee1_decoys_glide_SP

> <s_m_subgroupid>
wee1_decoys_glide_SP


$$$$
