ZINC17098090_2610
                    3D
 Schrodinger Suite 2024-2.
 61 63  0  0  1  0            999 V2000
    4.9121   54.0721   20.4110 C   0  0  0  0  0  0
    5.0557   54.1243   21.9282 C   0  0  0  0  0  0
    6.2061   54.6436   22.5488 C   0  0  0  0  0  0
    6.0606   54.6276   24.2724 S   0  0  0  0  0  0
    4.4085   54.0968   24.1888 C   0  0  0  0  0  0
    4.0307   53.7904   22.8696 C   0  0  0  0  0  0
    2.6932   53.3076   22.5380 C   0  0  0  0  0  0
    1.7149   53.5918   23.2343 O   0  0  0  0  0  0
    2.6192   52.4959   21.4683 N   0  0  0  0  0  0
    1.3976   51.8761   20.9427 C   0  0  0  0  0  0
    1.6883   51.1179   19.6243 C   0  0  0  0  0  0
    2.5997   49.8871   19.8323 C   0  0  0  0  0  0
    2.0082   48.9169   20.8779 C   0  0  0  0  0  0
    1.6417   49.6338   22.1934 C   0  0  0  0  0  0
    0.7431   50.8612   21.9231 C   0  0  0  0  0  0
    3.5991   53.9456   25.3164 N   0  0  0  0  0  0
    3.8272   54.3227   26.5917 C   0  0  0  0  0  0
    4.8492   54.8959   26.9666 O   0  0  0  0  0  0
    2.6548   54.0799   27.5830 C   0  0  2  0  0  0
    1.7803   54.1214   26.9303 H   0  0  0  0  0  0
    2.4824   55.2232   28.6101 C   0  0  0  0  0  0
    1.4303   54.8974   29.6778 C   0  0  0  0  0  0
    0.9277   53.6409   29.8665 C   0  0  0  0  0  0
    1.2503   52.4879   28.9080 C   0  0  0  0  0  0
    2.6375   52.6609   28.2382 C   0  0  2  0  0  0
    2.7695   51.8826   27.4909 H   0  0  0  0  0  0
    3.7752   52.4195   29.2821 C   0  0  0  0  0  0
    3.5297   51.6967   30.2772 O   0  0  0  0  0  0
   -0.0699   53.2413   30.9476 C   0  0  0  0  0  0
    1.0867   56.0976   30.5414 C   0  0  0  0  0  0
    7.4818   55.1874   21.9406 C   0  0  0  0  0  0
    5.5609   54.7736   19.8897 H   0  0  0  0  0  0
    5.1125   53.0758   20.0149 H   0  0  0  0  0  0
    3.9089   54.3505   20.0865 H   0  0  0  0  0  0
    3.4253   52.4499   20.8636 H   0  0  0  0  0  0
    0.6893   52.6862   20.7523 H   0  0  0  0  0  0
    2.1471   51.7936   18.9005 H   0  0  0  0  0  0
    0.7487   50.7997   19.1704 H   0  0  0  0  0  0
    3.5881   50.2160   20.1539 H   0  0  0  0  0  0
    2.7529   49.3693   18.8838 H   0  0  0  0  0  0
    2.7044   48.1029   21.0776 H   0  0  0  0  0  0
    1.1142   48.4488   20.4634 H   0  0  0  0  0  0
    2.5520   49.9459   22.7083 H   0  0  0  0  0  0
    1.1378   48.9411   22.8690 H   0  0  0  0  0  0
   -0.2109   50.5258   21.5135 H   0  0  0  0  0  0
    0.4914   51.3447   22.8673 H   0  0  0  0  0  0
    2.6846   53.5686   25.1066 H   0  0  0  0  0  0
    3.4182   55.3768   29.1518 H   0  0  0  0  0  0
    2.2915   56.1806   28.1257 H   0  0  0  0  0  0
    0.4800   52.4634   28.1361 H   0  0  0  0  0  0
    1.1658   51.5238   29.4144 H   0  0  0  0  0  0
    0.4154   52.5652   31.6526 H   0  0  0  0  0  0
   -0.4951   54.0503   31.5303 H   0  0  0  0  0  0
   -0.8956   52.6928   30.4987 H   0  0  0  0  0  0
    0.7043   56.8967   29.9100 H   0  0  0  0  0  0
    0.3314   55.8856   31.2816 H   0  0  0  0  0  0
    1.9610   56.4829   31.0601 H   0  0  0  0  0  0
    8.3044   54.4962   22.0816 H   0  0  0  0  0  0
    7.4161   55.3872   20.8726 H   0  0  0  0  0  0
    7.7967   56.1144   22.4170 H   0  0  0  0  0  0
    4.9208   52.8268   29.0033 O   0  5  0  0  0  0
  1  2  1  0  0  0
  1 32  1  0  0  0
  1 33  1  0  0  0
  1 34  1  0  0  0
  2  6  1  0  0  0
  2  3  2  0  0  0
  3  4  1  0  0  0
  3 31  1  0  0  0
  4  5  1  0  0  0
  5  6  2  0  0  0
  5 16  1  0  0  0
  6  7  1  0  0  0
  7  8  2  0  0  0
  7  9  1  0  0  0
  9 10  1  0  0  0
  9 35  1  0  0  0
 10 15  1  0  0  0
 10 11  1  0  0  0
 10 36  1  0  0  0
 11 12  1  0  0  0
 11 37  1  0  0  0
 11 38  1  0  0  0
 12 13  1  0  0  0
 12 39  1  0  0  0
 12 40  1  0  0  0
 13 14  1  0  0  0
 13 41  1  0  0  0
 13 42  1  0  0  0
 14 15  1  0  0  0
 14 43  1  0  0  0
 14 44  1  0  0  0
 15 45  1  0  0  0
 15 46  1  0  0  0
 16 17  1  0  0  0
 16 47  1  0  0  0
 17 18  2  0  0  0
 17 19  1  0  0  0
 19 20  1  0  0  0
 19 25  1  0  0  0
 19 21  1  0  0  0
 21 22  1  0  0  0
 21 48  1  0  0  0
 21 49  1  0  0  0
 22 23  2  0  0  0
 22 30  1  0  0  0
 23 24  1  0  0  0
 23 29  1  0  0  0
 24 25  1  0  0  0
 24 50  1  0  0  0
 24 51  1  0  0  0
 25 26  1  0  0  0
 25 27  1  0  0  0
 27 28  2  0  0  0
 27 61  1  0  0  0
 29 52  1  0  0  0
 29 53  1  0  0  0
 29 54  1  0  0  0
 30 55  1  0  0  0
 30 56  1  0  0  0
 30 57  1  0  0  0
 31 58  1  0  0  0
 31 59  1  0  0  0
 31 60  1  0  0  0
M  CHG  1  61  -1
M  END
> <i_i_glide_confnum>
186

> <i_i_glide_lignum>
2611

> <i_i_glide_posenum>
170

> <i_i_glide_rotatable_bonds>
7

> <i_m_Source_File_Index>
4853

> <b_m_subgroup_collapsed>
0

> <r_i_docking_score>
-6.66122

> <r_i_glide_ecoul>
-5.16523

> <r_i_glide_eff_state_penalty>
0

> <r_i_glide_einternal>
6.18352

> <r_i_glide_emodel>
-68.1926

> <r_i_glide_energy>
-51.4487

> <r_i_glide_erotb>
0.640777

> <r_i_glide_esite>
0

> <r_i_glide_evdw>
-46.2835

> <r_i_glide_gscore>
-6.66122

> <r_i_glide_hbond>
-0.16

> <r_i_glide_ligand_efficiency>
-0.222041

> <r_i_glide_ligand_efficiency_ln>
-1.5135

> <r_i_glide_ligand_efficiency_sa>
-0.689932

> <r_i_glide_lipo>
-2.90541

> <r_i_glide_metal>
0

> <r_i_glide_rewards>
-1.14763

> <s_i_glide_gridfile>
wee1_glide-grid

> <s_m_Source_File>
wee1_decoys_glide_SP.sdf

> <s_m_Source_Path>
/Users/zhangxujun/Desktop

> <s_m_entry_id>
5128

> <s_m_entry_name>
wee1_decoys_glide_SP.4853

> <s_m_subgroup_title>
wee1_decoys_glide_SP

> <s_m_subgroupid>
wee1_decoys_glide_SP


$$$$
