@<TRIPOS>MOLECULE
ZINC55188744_4810
30   31    1
SMALL
USER_CHARGES


@<TRIPOS>ATOM
      1 C1          6.2637   54.4965   28.0828 C.3       1 UNK         0.0000 
      2 C2          5.3968   53.5317   27.2625 C.3       1 UNK         0.0000 
      3 H3          5.8900   52.5591   27.3098 H         1 UNK         0.0000 
      4 C4          4.0263   53.3342   27.9355 C.ar      1 UNK         0.0000 
      5 C5          3.9814   52.7349   29.2012 C.ar      1 UNK         0.0000 
      6 C6          2.7672   52.5069   29.8396 C.ar      1 UNK         0.0000 
      7 C7          1.5797   52.8504   29.2024 C.ar      1 UNK         0.0000 
      8 C8          1.6044   53.4396   27.9398 C.ar      1 UNK         0.0000 
      9 C9          2.8228   53.6877   27.3093 C.ar      1 UNK         0.0000 
     10 Br10       -0.0807   52.5018   30.0662 Br        1 UNK         0.0000 
     11 N11         5.3306   53.8303   25.8192 N.am      1 UNK         0.0000 
     12 C12         6.1649   54.5515   25.0310 C.2       1 UNK         0.0000 
     13 O13         7.1036   55.2253   25.4522 O.2       1 UNK         0.0000 
     14 C14         5.9043   54.4986   23.6006 C.2       1 UNK         0.0000 
     15 C15         6.6999   55.1191   22.6249 C.2       1 UNK         0.0000 
     16 S16         5.9683   54.9039   21.0585 S.3       1 UNK         0.0000 
     17 C17         4.7489   53.9435   21.8217 C.2       1 UNK         0.0000 
     18 N18         4.8486   53.8481   23.1212 N.2       1 UNK         0.0000 
     19 N19         3.7758   53.3505   21.0757 N.pl3     1 UNK         0.0000 
     20 H20         6.2572   54.2673   29.1479 H         1 UNK         0.0000 
     21 H21         7.3107   54.4637   27.7844 H         1 UNK         0.0000 
     22 H22         5.9112   55.5218   27.9789 H         1 UNK         0.0000 
     23 H23         4.8966   52.4342   29.6918 H         1 UNK         0.0000 
     24 H24         2.7421   52.0594   30.8223 H         1 UNK         0.0000 
     25 H25         0.6801   53.6971   27.4486 H         1 UNK         0.0000 
     26 H26         2.8197   54.1479   26.3333 H         1 UNK         0.0000 
     27 H27         4.6549   53.2729   25.3186 H         1 UNK         0.0000 
     28 H28         7.6042   55.6964   22.7585 H         1 UNK         0.0000 
     29 H29         3.0511   52.7888   21.4953 H         1 UNK         0.0000 
     30 H30         3.6925   53.5193   20.0849 H         1 UNK         0.0000 
@<TRIPOS>BOND
     1    1    2 1    
     2    1   20 1    
     3    1   21 1    
     4    1   22 1    
     5    2    3 1    
     6    2    4 1    
     7    2   11 1    
     8    4    9 ar   
     9    4    5 ar   
    10    5    6 ar   
    11    5   23 1    
    12    6    7 ar   
    13    6   24 1    
    14    7    8 ar   
    15    7   10 1    
    16    8    9 ar   
    17    8   25 1    
    18    9   26 1    
    19   11   12 am   BACKBONE|DICT|INTERRES
    20   11   27 1    
    21   12   13 2    
    22   12   14 1    
    23   14   18 1    
    24   14   15 2    
    25   15   16 1    
    26   15   28 1    
    27   16   17 1    
    28   17   18 2    
    29   17   19 1    
    30   19   29 1    
    31   19   30 1    
@<TRIPOS>SUBSTRUCTURE
     1 UNK         1 GROUP             0       ****    0 ROOT    
