@<TRIPOS>MOLECULE
ZINC63704999_2486
54   57    1
SMALL
USER_CHARGES


@<TRIPOS>ATOM
      1 C1         -0.4229   51.0553   27.7321 C.3       1 UNK         0.0000 
      2 C2          0.1389   51.9511   28.8131 C.2       1 UNK         0.0000 
      3 C3         -0.4339   52.0969   30.0812 C.2       1 UNK         0.0000 
      4 C4          0.2077   53.0191   30.8833 C.2       1 UNK         0.0000 
      5 S5          1.5625   53.7101   30.0815 S.3       1 UNK         0.0000 
      6 C6          1.3198   52.6923   28.6984 C.2       1 UNK         0.0000 
      7 C7          2.3236   52.7152   27.5775 C.3       1 UNK         0.0000 
      8 C8          1.8065   53.5018   26.3701 C.3       1 UNK         0.0000 
      9 N9          2.7550   53.5828   25.2656 N.am      1 UNK         0.0000 
     10 C10         3.9016   54.2880   25.2673 C.2       1 UNK         0.0000 
     11 O11         4.3086   54.8968   26.2580 O.2       1 UNK         0.0000 
     12 C12         4.6593   54.3466   23.9586 C.ar      1 UNK         0.0000 
     13 C13         5.9469   54.8960   23.9249 C.ar      1 UNK         0.0000 
     14 C14         6.5692   55.1611   22.7087 C.ar      1 UNK         0.0000 
     15 C15         5.9364   54.8162   21.5082 C.ar      1 UNK         0.0000 
     16 C16         4.7332   54.0856   21.5172 C.ar      1 UNK         0.0000 
     17 C17         4.0766   53.9355   22.7466 C.ar      1 UNK         0.0000 
     18 N18         4.2094   53.6159   20.2715 N.pl3     1 UNK         0.0000 
     19 C19         4.8017   54.1073   19.1038 C.ar      1 UNK         0.0000 
     20 N20         5.8367   54.8685   19.0552 N.2       1 UNK         0.0000 
     21 C21         6.5205   55.2965   20.1904 C.ar      1 UNK         0.0000 
     22 O22         7.5068   56.0322   20.1931 O.2       1 UNK         0.0000 
     23 C23         4.1551   53.5643   17.8474 C.3       1 UNK         0.0000 
     24 H24         4.8594   52.9254   17.3125 H         1 UNK         0.0000 
     25 S25         2.7877   52.4966   18.3346 S.3       1 UNK         0.0000 
     26 C26         3.2925   52.5382   20.0198 C.2       1 UNK         0.0000 
     27 S27         2.6122   51.4132   21.0455 S.2       1 UNK         0.0000 
     28 C28         3.7258   54.6681   16.8611 C.2       1 UNK         0.0000 
     29 O29         4.3382   54.7889   15.8004 O.2       1 UNK         0.0000 
     30 N30         2.6718   55.4476   17.1786 N.am      1 UNK         0.0000 
     31 C31         2.1150   56.4934   16.3148 C.3       1 UNK         0.0000 
     32 C32         0.6434   56.7730   16.6577 C.3       1 UNK         0.0000 
     33 C33         2.9692   57.7758   16.3065 C.3       1 UNK         0.0000 
     34 H34        -1.2988   50.4973   28.0608 H         1 UNK         0.0000 
     35 H35        -0.7204   51.6288   26.8558 H         1 UNK         0.0000 
     36 H36         0.3143   50.3387   27.3708 H         1 UNK         0.0000 
     37 H37        -1.2956   51.5326   30.4039 H         1 UNK         0.0000 
     38 H38        -0.0508   53.3043   31.8937 H         1 UNK         0.0000 
     39 H39         2.5378   51.6967   27.2818 H         1 UNK         0.0000 
     40 H40         3.2712   53.1315   27.9221 H         1 UNK         0.0000 
     41 H41         1.5165   54.4967   26.6970 H         1 UNK         0.0000 
     42 H42         0.8939   53.0438   25.9891 H         1 UNK         0.0000 
     43 H43         2.5396   53.0240   24.4546 H         1 UNK         0.0000 
     44 H44         6.4340   55.2161   24.8359 H         1 UNK         0.0000 
     45 H45         7.5045   55.6976   22.7114 H         1 UNK         0.0000 
     46 H46         3.0772   53.5396   22.7492 H         1 UNK         0.0000 
     47 H47         2.1916   55.2803   18.0522 H         1 UNK         0.0000 
     48 H48         2.1093   56.1103   15.2906 H         1 UNK         0.0000 
     49 H49         0.2467   57.5643   16.0204 H         1 UNK         0.0000 
     50 H50         0.5162   57.1180   17.6817 H         1 UNK         0.0000 
     51 H51         0.0195   55.8919   16.5002 H         1 UNK         0.0000 
     52 H52         2.4948   58.5563   15.7099 H         1 UNK         0.0000 
     53 H53         3.1013   58.1914   17.3038 H         1 UNK         0.0000 
     54 H54         3.9519   57.6006   15.8656 H         1 UNK         0.0000 
@<TRIPOS>BOND
     1    1    2 1    
     2    1   34 1    
     3    1   35 1    
     4    1   36 1    
     5    2    6 2    
     6    2    3 1    
     7    3    4 2    
     8    3   37 1    
     9    4    5 1    
    10    4   38 1    
    11    5    6 1    
    12    6    7 1    
    13    7    8 1    
    14    7   39 1    
    15    7   40 1    
    16    8    9 1    
    17    8   41 1    
    18    8   42 1    
    19    9   10 am   BACKBONE|DICT|INTERRES
    20    9   43 1    
    21   10   11 2    
    22   10   12 1    
    23   12   17 ar   
    24   12   13 ar   
    25   13   14 ar   
    26   13   44 1    
    27   14   15 ar   
    28   14   45 1    
    29   15   21 ar   
    30   15   16 ar   
    31   16   17 ar   
    32   16   18 ar   
    33   17   46 1    
    34   18   26 1    
    35   18   19 ar   
    36   19   20 ar   
    37   19   23 1    
    38   20   21 ar   
    39   21   22 2    
    40   23   24 1    
    41   23   25 1    
    42   23   28 1    
    43   25   26 1    
    44   26   27 2    
    45   28   29 2    
    46   28   30 am   BACKBONE|DICT|INTERRES
    47   30   31 1    
    48   30   47 1    
    49   31   32 1    
    50   31   33 1    
    51   31   48 1    
    52   32   49 1    
    53   32   50 1    
    54   32   51 1    
    55   33   52 1    
    56   33   53 1    
    57   33   54 1    
@<TRIPOS>SUBSTRUCTURE
     1 UNK         1 GROUP             0       ****    0 ROOT    
