ZINC39835139_991
                    3D
 Schrodinger Suite 2024-2.
 55 59  0  0  1  0            999 V2000
    1.7167   54.5501   14.7886 C   0  0  0  0  0  0
    1.5075   53.6399   15.9849 C   0  0  0  0  0  0
    2.3494   52.5464   16.1789 C   0  0  0  0  0  0
    2.1711   51.7188   17.2839 C   0  0  0  0  0  0
    1.1503   51.9658   18.2152 C   0  0  0  0  0  0
    0.3215   53.0767   18.0092 C   0  0  0  0  0  0
    0.4963   53.9089   16.9062 C   0  0  0  0  0  0
    1.0094   51.0509   19.4053 C   0  0  0  0  0  0
    1.6512   50.0014   19.4710 O   0  0  0  0  0  0
    0.1754   51.3848   20.5684 C   0  0  0  0  0  0
   -1.1296   51.6646   20.6757 C   0  0  0  0  0  0
   -1.5460   51.8142   22.0599 C   0  0  0  0  0  0
   -2.6718   52.0963   22.4816 O   0  0  0  0  0  0
   -0.4390   51.5628   22.8094 N   0  0  0  0  0  0
    0.7470   51.3561   21.9608 C   0  0  2  0  0  0
    1.1464   50.3661   22.1901 H   0  0  0  0  0  0
    1.9167   52.3459   22.1818 C   0  0  0  0  0  0
    3.1861   52.0264   21.6807 C   0  0  0  0  0  0
    4.2618   52.8901   21.8715 C   0  0  0  0  0  0
    4.0869   54.0582   22.6062 C   0  0  0  0  0  0
    2.8407   54.3769   23.1349 C   0  0  0  0  0  0
    1.7558   53.5357   22.9063 C   0  0  0  0  0  0
   -0.3766   51.4738   24.2095 C   0  0  0  0  0  0
    0.7043   51.1208   24.8620 N   0  0  0  0  0  0
    0.5484   51.1533   26.2395 N   0  0  0  0  0  0
   -0.6510   51.5183   26.6162 C   0  0  0  0  0  0
   -1.7117   51.8475   25.2831 S   0  0  0  0  0  0
   -1.2127   51.6967   28.2716 S   0  0  0  0  0  0
    0.3558   51.7926   29.1878 C   0  0  0  0  0  0
    0.9339   53.2012   29.2135 C   0  0  0  0  0  0
    1.8501   53.6037   28.2383 C   0  0  0  0  0  0
    2.3824   54.8898   28.2724 C   0  0  0  0  0  0
    2.0011   55.7701   29.2818 C   0  0  0  0  0  0
    1.1044   55.3694   30.2687 C   0  0  0  0  0  0
    0.5717   54.0831   30.2370 C   0  0  0  0  0  0
   -2.0329   51.7708   19.7602 O   0  5  0  0  0  0
    2.7815   54.6846   14.5936 H   0  0  0  0  0  0
    1.2586   54.1199   13.8982 H   0  0  0  0  0  0
    1.2995   55.5425   14.9617 H   0  0  0  0  0  0
    3.1462   52.3344   15.4802 H   0  0  0  0  0  0
    2.8594   50.8965   17.4161 H   0  0  0  0  0  0
   -0.4608   53.3186   18.7003 H   0  0  0  0  0  0
   -0.1538   54.7615   16.7738 H   0  0  0  0  0  0
    3.3432   51.1079   21.1318 H   0  0  0  0  0  0
    5.2324   52.6431   21.4663 H   0  0  0  0  0  0
    4.9262   54.7186   22.7678 H   0  0  0  0  0  0
    2.7096   55.2826   23.7086 H   0  0  0  0  0  0
    0.7944   53.8142   23.3102 H   0  0  0  0  0  0
    0.1413   51.4703   30.2025 H   0  0  0  0  0  0
    1.0828   51.0744   28.8075 H   0  0  0  0  0  0
    2.1486   52.9286   27.4512 H   0  0  0  0  0  0
    3.0869   55.2043   27.5150 H   0  0  0  0  0  0
    2.4100   56.7703   29.3075 H   0  0  0  0  0  0
    0.8218   56.0560   31.0549 H   0  0  0  0  0  0
   -0.1209   53.7714   31.0059 H   0  0  0  0  0  0
  1  2  1  0  0  0
  1 37  1  0  0  0
  1 38  1  0  0  0
  1 39  1  0  0  0
  2  7  2  0  0  0
  2  3  1  0  0  0
  3  4  2  0  0  0
  3 40  1  0  0  0
  4  5  1  0  0  0
  4 41  1  0  0  0
  5  6  2  0  0  0
  5  8  1  0  0  0
  6  7  1  0  0  0
  6 42  1  0  0  0
  7 43  1  0  0  0
  8  9  2  0  0  0
  8 10  1  0  0  0
 10 15  1  0  0  0
 10 11  2  0  0  0
 11 12  1  0  0  0
 11 36  1  0  0  0
 12 13  2  0  0  0
 12 14  1  0  0  0
 14 15  1  0  0  0
 14 23  1  0  0  0
 15 16  1  0  0  0
 15 17  1  0  0  0
 17 22  2  0  0  0
 17 18  1  0  0  0
 18 19  2  0  0  0
 18 44  1  0  0  0
 19 20  1  0  0  0
 19 45  1  0  0  0
 20 21  2  0  0  0
 20 46  1  0  0  0
 21 22  1  0  0  0
 21 47  1  0  0  0
 22 48  1  0  0  0
 23 27  1  0  0  0
 23 24  2  0  0  0
 24 25  1  0  0  0
 25 26  2  0  0  0
 26 27  1  0  0  0
 26 28  1  0  0  0
 28 29  1  0  0  0
 29 30  1  0  0  0
 29 49  1  0  0  0
 29 50  1  0  0  0
 30 35  2  0  0  0
 30 31  1  0  0  0
 31 32  2  0  0  0
 31 51  1  0  0  0
 32 33  1  0  0  0
 32 52  1  0  0  0
 33 34  2  0  0  0
 33 53  1  0  0  0
 34 35  1  0  0  0
 34 54  1  0  0  0
 35 55  1  0  0  0
M  CHG  1  36  -1
M  END
> <i_i_glide_confnum>
87

> <i_i_glide_lignum>
992

> <i_i_glide_posenum>
257

> <i_i_glide_rotatable_bonds>
7

> <i_m_Source_File_Index>
3122

> <b_m_subgroup_collapsed>
0

> <r_i_docking_score>
-3.7146

> <r_i_glide_ecoul>
1.23726

> <r_i_glide_eff_state_penalty>
0

> <r_i_glide_einternal>
5.76892

> <r_i_glide_emodel>
-47.5439

> <r_i_glide_energy>
-39.3003

> <r_i_glide_erotb>
0.574617

> <r_i_glide_esite>
-0.043299

> <r_i_glide_evdw>
-40.5376

> <r_i_glide_gscore>
-3.7146

> <r_i_glide_hbond>
-0.0317104

> <r_i_glide_ligand_efficiency>
-0.106132

> <r_i_glide_ligand_efficiency_ln>
-0.815438

> <r_i_glide_ligand_efficiency_sa>
-0.347163

> <r_i_glide_lipo>
-2.33073

> <r_i_glide_metal>
0

> <r_i_glide_rewards>
-0.0421928

> <s_i_glide_gridfile>
wee1_glide-grid

> <s_m_Source_File>
wee1_decoys_glide_SP.sdf

> <s_m_Source_Path>
/Users/zhangxujun/Desktop

> <s_m_entry_id>
3397

> <s_m_entry_name>
wee1_decoys_glide_SP.3122

> <s_m_subgroup_title>
wee1_decoys_glide_SP

> <s_m_subgroupid>
wee1_decoys_glide_SP


$$$$
