@<TRIPOS>MOLECULE
ZINC38885675_366
68   71    1
SMALL
USER_CHARGES


@<TRIPOS>ATOM
      1 C1         10.6643   56.2721   16.4883 C.3       1 UNK         0.0000 
      2 C2         10.2597   54.9046   17.0677 C.3       1 UNK         0.0000 
      3 C3         11.4975   54.0372   17.3272 C.3       1 UNK         0.0000 
      4 N4          9.5045   55.0419   18.3333 N.pl3     1 UNK         0.0000 
      5 S5          8.0523   56.0295   18.3192 S.o2      1 UNK         0.0000 
      6 O6          8.4640   57.4174   18.5496 O.2       1 UNK         0.0000 
      7 O7          7.2599   55.6607   17.1408 O.2       1 UNK         0.0000 
      8 C8          7.1554   55.5096   19.7696 C.ar      1 UNK         0.0000 
      9 C9          7.7225   55.6964   21.0299 C.ar      1 UNK         0.0000 
     10 C10         7.0455   55.2745   22.1698 C.ar      1 UNK         0.0000 
     11 C11         5.8154   54.6043   22.0719 C.ar      1 UNK         0.0000 
     12 C12         5.2621   54.4106   20.7899 C.ar      1 UNK         0.0000 
     13 C13         5.9140   54.8855   19.6501 C.ar      1 UNK         0.0000 
     14 N14         4.0740   53.6883   20.6130 N.am      1 UNK         0.0000 
     15 C15         3.9656   52.3807   20.9283 C.2       1 UNK         0.0000 
     16 O16         4.9272   51.6947   21.2814 O.2       1 UNK         0.0000 
     17 C17         2.5557   51.7612   20.9143 C.3       1 UNK         0.0000 
     18 H18         1.8676   52.6087   20.8564 H         1 UNK         0.0000 
     19 C19         2.3506   50.8287   19.6995 C.3       1 UNK         0.0000 
     20 C20         0.9050   50.2686   19.7663 C.3       1 UNK         0.0000 
     21 C21         0.5428   49.6094   21.1255 C.3       1 UNK         0.0000 
     22 N22         0.8565   50.5981   22.2834 N.4       1 UNK         0.0000 
     23 C23         2.3575   50.9682   22.2232 C.3       1 UNK         0.0000 
     24 C24         0.4582   50.0226   23.6732 C.3       1 UNK         0.0000 
     25 C25         0.5416   51.0962   24.7550 C.2       1 UNK         0.0000 
     26 N26         0.3046   50.9658   26.0332 N.2       1 UNK         0.0000 
     27 C27         0.6530   52.1530   26.5105 C.2       1 UNK         0.0000 
     28 N28         1.1045   53.0125   25.6231 N.2       1 UNK         0.0000 
     29 O29         0.9535   52.3401   24.4152 O.3       1 UNK         0.0000 
     30 C30         0.5382   52.5259   27.9664 C.ar      1 UNK         0.0000 
     31 C31         1.1560   53.6901   28.4537 C.ar      1 UNK         0.0000 
     32 C32         1.0386   54.0522   29.7925 C.ar      1 UNK         0.0000 
     33 C33         0.3040   53.2492   30.6585 C.ar      1 UNK         0.0000 
     34 C34        -0.3203   52.0973   30.1928 C.ar      1 UNK         0.0000 
     35 C35        -0.2016   51.7327   28.8537 C.ar      1 UNK         0.0000 
     36 O36         5.1177   54.1268   23.1693 O.3       1 UNK         0.0000 
     37 C37         5.6912   54.2189   24.4682 C.3       1 UNK         0.0000 
     38 H38        11.2762   56.1511   15.5946 H         1 UNK         0.0000 
     39 H39        11.2382   56.8592   17.2060 H         1 UNK         0.0000 
     40 H40         9.7950   56.8608   16.1950 H         1 UNK         0.0000 
     41 H41         9.6238   54.3696   16.3602 H         1 UNK         0.0000 
     42 H42        12.0840   53.8977   16.4176 H         1 UNK         0.0000 
     43 H43        12.1494   54.4899   18.0772 H         1 UNK         0.0000 
     44 H44        11.2170   53.0440   17.6806 H         1 UNK         0.0000 
     45 H45        10.1521   55.3974   19.0451 H         1 UNK         0.0000 
     46 H46         8.6923   56.1614   21.1298 H         1 UNK         0.0000 
     47 H47         7.5040   55.4491   23.1311 H         1 UNK         0.0000 
     48 H48         5.4813   54.7121   18.6728 H         1 UNK         0.0000 
     49 H49         3.2781   54.1775   20.2252 H         1 UNK         0.0000 
     50 H50         2.4462   51.3654   18.7541 H         1 UNK         0.0000 
     51 H51         3.0275   49.9716   19.7277 H         1 UNK         0.0000 
     52 H52         0.1951   51.0706   19.5520 H         1 UNK         0.0000 
     53 H53         0.7687   49.5415   18.9638 H         1 UNK         0.0000 
     54 H54        -0.5253   49.3967   21.1663 H         1 UNK         0.0000 
     55 H55         1.1065   48.6942   21.3107 H         1 UNK         0.0000 
     56 H56         2.9181   50.0298   22.2582 H         1 UNK         0.0000 
     57 H57         2.6377   51.5675   23.0881 H         1 UNK         0.0000 
     58 H58        -0.5600   49.6481   23.5602 H         1 UNK         0.0000 
     59 H59         1.1249   49.1772   23.8574 H         1 UNK         0.0000 
     60 H60         1.7283   54.3303   27.7954 H         1 UNK         0.0000 
     61 H61         1.5080   54.9532   30.1567 H         1 UNK         0.0000 
     62 H62         0.1985   53.5180   31.7000 H         1 UNK         0.0000 
     63 H63        -0.8954   51.4818   30.8753 H         1 UNK         0.0000 
     64 H64        -0.6984   50.8363   28.5063 H         1 UNK         0.0000 
     65 H65         5.0231   53.7465   25.1890 H         1 UNK         0.0000 
     66 H66         6.6491   53.6997   24.5187 H         1 UNK         0.0000 
     67 H67         5.8274   55.2576   24.7752 H         1 UNK         0.0000 
     68 H68         0.3178   51.4482   22.1642 H         1 UNK         0.0000 
@<TRIPOS>BOND
     1    1    2 1    
     2    1   38 1    
     3    1   39 1    
     4    1   40 1    
     5    2    3 1    
     6    2    4 1    
     7    2   41 1    
     8    3   42 1    
     9    3   43 1    
    10    3   44 1    
    11    4    5 1    
    12    4   45 1    
    13    5    6 2    
    14    5    7 2    
    15    5    8 1    
    16    8   13 ar   
    17    8    9 ar   
    18    9   10 ar   
    19    9   46 1    
    20   10   11 ar   
    21   10   47 1    
    22   11   12 ar   
    23   11   36 1    
    24   12   13 ar   
    25   12   14 1    
    26   13   48 1    
    27   14   15 am   BACKBONE|DICT|INTERRES
    28   14   49 1    
    29   15   16 2    
    30   15   17 1    
    31   17   18 1    
    32   17   23 1    
    33   17   19 1    
    34   19   20 1    
    35   19   50 1    
    36   19   51 1    
    37   20   21 1    
    38   20   52 1    
    39   20   53 1    
    40   21   22 1    
    41   21   54 1    
    42   21   55 1    
    43   22   23 1    
    44   22   24 1    
    45   22   68 1    
    46   23   56 1    
    47   23   57 1    
    48   24   25 1    
    49   24   58 1    
    50   24   59 1    
    51   25   29 1    
    52   25   26 2    
    53   26   27 1    
    54   27   28 2    
    55   27   30 1    
    56   28   29 1    
    57   30   35 ar   
    58   30   31 ar   
    59   31   32 ar   
    60   31   60 1    
    61   32   33 ar   
    62   32   61 1    
    63   33   34 ar   
    64   33   62 1    
    65   34   35 ar   
    66   34   63 1    
    67   35   64 1    
    68   36   37 1    
    69   37   65 1    
    70   37   66 1    
    71   37   67 1    
@<TRIPOS>SUBSTRUCTURE
     1 UNK         1 GROUP             0       ****    0 ROOT    
