@<TRIPOS>MOLECULE
ZINC43410725_1901
44   46    1
SMALL
USER_CHARGES


@<TRIPOS>ATOM
      1 C1          0.0511   51.6838   28.3745 C.ar      1 UNK         0.0000 
      2 C2         -0.2568   51.6131   27.0099 C.ar      1 UNK         0.0000 
      3 C3          0.4878   52.4248   26.1352 C.ar      1 UNK         0.0000 
      4 N4          1.5045   53.1953   26.5846 N.ar      1 UNK         0.0000 
      5 C5          1.7783   53.2617   27.9077 C.ar      1 UNK         0.0000 
      6 C6          1.0838   52.5018   28.8669 C.ar      1 UNK         0.0000 
      7 C7          1.3894   52.4962   30.3222 C.2       1 UNK         0.0000 
      8 N8          2.4961   52.1323   30.8522 N.2       1 UNK         0.0000 
      9 O9          3.5037   51.6985   29.9605 O.3       1 UNK         0.0000 
     10 N10         0.2930   52.9193   31.0315 N.pl3     1 UNK         0.0000 
     11 S11         3.0949   54.3672   28.3362 S.3       1 UNK         0.0000 
     12 C12         4.4386   53.9584   27.1808 C.3       1 UNK         0.0000 
     13 C13         4.2356   54.6374   25.8040 C.3       1 UNK         0.0000 
     14 C14         5.4432   54.4607   24.8756 C.3       1 UNK         0.0000 
     15 C15         6.7382   54.9109   25.5593 C.3       1 UNK         0.0000 
     16 C16         6.9683   54.1517   26.8803 C.3       1 UNK         0.0000 
     17 C17         5.7873   54.3051   27.8464 C.3       1 UNK         0.0000 
     18 C18         0.1810   52.4842   24.6395 C.3       1 UNK         0.0000 
     19 C19        -0.5502   51.2289   24.1388 C.3       1 UNK         0.0000 
     20 C20        -1.7615   50.9422   25.0419 C.3       1 UNK         0.0000 
     21 C21        -1.3099   50.6322   26.4811 C.3       1 UNK         0.0000 
     22 H22        -0.4980   51.0451   29.0542 H         1 UNK         0.0000 
     23 H23         3.1158   51.8575   29.0938 H         1 UNK         0.0000 
     24 H24         0.2587   52.7889   32.0332 H         1 UNK         0.0000 
     25 H25        -0.5815   53.0630   30.5533 H         1 UNK         0.0000 
     26 H26         4.4047   52.8759   27.0420 H         1 UNK         0.0000 
     27 H27         3.3598   54.2470   25.2882 H         1 UNK         0.0000 
     28 H28         4.0529   55.6966   25.9495 H         1 UNK         0.0000 
     29 H29         5.5343   53.4133   24.5848 H         1 UNK         0.0000 
     30 H30         5.2942   55.0179   23.9498 H         1 UNK         0.0000 
     31 H31         7.5777   54.7488   24.8818 H         1 UNK         0.0000 
     32 H32         6.6990   55.9853   25.7512 H         1 UNK         0.0000 
     33 H33         7.1180   53.0934   26.6665 H         1 UNK         0.0000 
     34 H34         7.8834   54.4970   27.3651 H         1 UNK         0.0000 
     35 H35         5.7706   55.3308   28.2118 H         1 UNK         0.0000 
     36 H36         5.9474   53.6709   28.7209 H         1 UNK         0.0000 
     37 H37         1.0920   52.6480   24.0623 H         1 UNK         0.0000 
     38 H38        -0.4527   53.3533   24.4621 H         1 UNK         0.0000 
     39 H39         0.1250   50.3690   24.1373 H         1 UNK         0.0000 
     40 H40        -0.8732   51.3701   23.1086 H         1 UNK         0.0000 
     41 H41        -2.3379   50.1016   24.6486 H         1 UNK         0.0000 
     42 H42        -2.4379   51.8008   25.0434 H         1 UNK         0.0000 
     43 H43        -2.1697   50.5868   27.1522 H         1 UNK         0.0000 
     44 H44        -0.8686   49.6344   26.4818 H         1 UNK         0.0000 
@<TRIPOS>BOND
     1    1    6 ar   
     2    1    2 ar   
     3    1   22 1    
     4    2   21 1    
     5    2    3 ar   
     6    3    4 ar   
     7    3   18 1    
     8    4    5 ar   
     9    5    6 ar   
    10    5   11 1    
    11    6    7 1    
    12    7    8 2    
    13    7   10 1    
    14    8    9 1    
    15    9   23 1    
    16   10   24 1    
    17   10   25 1    
    18   11   12 1    
    19   12   17 1    
    20   12   13 1    
    21   12   26 1    
    22   13   14 1    
    23   13   27 1    
    24   13   28 1    
    25   14   15 1    
    26   14   29 1    
    27   14   30 1    
    28   15   16 1    
    29   15   31 1    
    30   15   32 1    
    31   16   17 1    
    32   16   33 1    
    33   16   34 1    
    34   17   35 1    
    35   17   36 1    
    36   18   19 1    
    37   18   37 1    
    38   18   38 1    
    39   19   20 1    
    40   19   39 1    
    41   19   40 1    
    42   20   21 1    
    43   20   41 1    
    44   20   42 1    
    45   21   43 1    
    46   21   44 1    
@<TRIPOS>SUBSTRUCTURE
     1 UNK         1 GROUP             0       ****    0 ROOT    
