@<TRIPOS>MOLECULE
ZINC00622887_3445
58   63    1
SMALL
USER_CHARGES


@<TRIPOS>ATOM
      1 C1          5.6209   54.6326   21.4001 C.ar      1 UNK         0.0000 
      2 C2          5.6266   55.2972   20.1777 C.ar      1 UNK         0.0000 
      3 C3          4.9346   54.7589   19.0958 C.ar      1 UNK         0.0000 
      4 C4          4.2458   53.5494   19.2310 C.ar      1 UNK         0.0000 
      5 C5          4.2833   52.8735   20.4524 C.ar      1 UNK         0.0000 
      6 C6          4.9541   53.4185   21.5430 C.ar      1 UNK         0.0000 
      7 C7          3.5067   52.9711   18.0649 C.ar      1 UNK         0.0000 
      8 C8          2.1819   52.4605   18.0101 C.ar      1 UNK         0.0000 
      9 C9          2.0796   52.0039   16.7133 C.ar      1 UNK         0.0000 
     10 N10         3.2485   52.2708   16.0766 N.pl3     1 UNK         0.0000 
     11 H11         3.4655   52.0292   15.1213 H         1 UNK         0.0000 
     12 N12         4.1089   52.8971   16.8862 N.2       1 UNK         0.0000 
     13 O13         0.9987   51.4354   16.0906 O.3       1 UNK         0.0000 
     14 C14        -0.1320   51.4500   16.8526 C.2       1 UNK         0.0000 
     15 C15        -0.2298   51.8657   18.1427 C.2       1 UNK         0.0000 
     16 C16         0.9891   52.3221   18.9700 C.3       1 UNK         0.0000 
     17 H17         0.7368   53.2966   19.3691 H         1 UNK         0.0000 
     18 C18         1.2744   51.4393   20.1822 C.ar      1 UNK         0.0000 
     19 C19         1.6116   50.0919   20.0175 C.ar      1 UNK         0.0000 
     20 C20         1.9265   49.3059   21.1246 C.ar      1 UNK         0.0000 
     21 C21         1.9162   49.8686   22.3998 C.ar      1 UNK         0.0000 
     22 C22         1.5942   51.2108   22.5895 C.ar      1 UNK         0.0000 
     23 C23         1.2477   51.9872   21.4729 C.ar      1 UNK         0.0000 
     24 O24         1.6760   51.6802   23.8849 O.3       1 UNK         0.0000 
     25 C25         1.6066   53.0795   24.1393 C.3       1 UNK         0.0000 
     26 C26         2.2427   53.3679   25.4979 C.ar      1 UNK         0.0000 
     27 C27         3.4270   54.1072   25.5502 C.ar      1 UNK         0.0000 
     28 C28         4.0251   54.4208   26.7641 C.ar      1 UNK         0.0000 
     29 C29         3.4493   54.0086   27.9610 C.ar      1 UNK         0.0000 
     30 C30         2.2534   53.2493   27.9595 C.ar      1 UNK         0.0000 
     31 C31         1.6344   52.9076   26.7119 C.ar      1 UNK         0.0000 
     32 C32         0.4466   52.1208   26.7489 C.ar      1 UNK         0.0000 
     33 C33        -0.1037   51.7093   27.9609 C.ar      1 UNK         0.0000 
     34 C34         0.4901   52.0689   29.1646 C.ar      1 UNK         0.0000 
     35 C35         1.6590   52.8225   29.1754 C.ar      1 UNK         0.0000 
     36 C36        -1.5078   51.9550   18.7728 C.1       1 UNK         0.0000 
     37 N37        -2.5382   52.0939   19.2819 N.1       1 UNK         0.0000 
     38 N38        -1.1615   51.0311   16.0536 N.pl3     1 UNK         0.0000 
     39 H39         6.1518   55.0535   22.2418 H         1 UNK         0.0000 
     40 H40         6.1526   56.2334   20.0692 H         1 UNK         0.0000 
     41 H41         4.9301   55.2818   18.1516 H         1 UNK         0.0000 
     42 H42         3.8138   51.9086   20.5523 H         1 UNK         0.0000 
     43 H43         4.9715   52.8915   22.4853 H         1 UNK         0.0000 
     44 H44         1.6566   49.6612   19.0270 H         1 UNK         0.0000 
     45 H45         2.2078   48.2724   20.9892 H         1 UNK         0.0000 
     46 H46         2.1892   49.2744   23.2576 H         1 UNK         0.0000 
     47 H47         0.9912   53.0293   21.5895 H         1 UNK         0.0000 
     48 H48         2.1293   53.6579   23.3740 H         1 UNK         0.0000 
     49 H49         0.5685   53.4173   24.1367 H         1 UNK         0.0000 
     50 H50         3.8924   54.4501   24.6368 H         1 UNK         0.0000 
     51 H51         4.9419   54.9927   26.7781 H         1 UNK         0.0000 
     52 H52         3.9227   54.2620   28.8993 H         1 UNK         0.0000 
     53 H53        -0.0374   51.8258   25.8303 H         1 UNK         0.0000 
     54 H54        -0.9976   51.0993   27.9673 H         1 UNK         0.0000 
     55 H55         0.0466   51.7431   30.0965 H         1 UNK         0.0000 
     56 H56         2.1205   53.0842   30.1163 H         1 UNK         0.0000 
     57 H57        -2.0853   50.8869   16.4322 H         1 UNK         0.0000 
     58 H58        -1.0637   51.0497   15.0503 H         1 UNK         0.0000 
@<TRIPOS>BOND
     1    1    6 ar   
     2    1    2 ar   
     3    1   39 1    
     4    2    3 ar   
     5    2   40 1    
     6    3    4 ar   
     7    3   41 1    
     8    4    5 ar   
     9    4    7 1    
    10    5    6 ar   
    11    5   42 1    
    12    6   43 1    
    13    7   12 ar   
    14    7    8 ar   
    15    8   16 1    
    16    8    9 ar   
    17    9   10 ar   
    18    9   13 1    
    19   10   11 1    
    20   10   12 ar   
    21   13   14 1    
    22   14   15 2    
    23   14   38 1    
    24   15   16 1    
    25   15   36 1    
    26   16   17 1    
    27   16   18 1    
    28   18   23 ar   
    29   18   19 ar   
    30   19   20 ar   
    31   19   44 1    
    32   20   21 ar   
    33   20   45 1    
    34   21   22 ar   
    35   21   46 1    
    36   22   23 ar   
    37   22   24 1    
    38   23   47 1    
    39   24   25 1    
    40   25   26 1    
    41   25   48 1    
    42   25   49 1    
    43   26   31 ar   
    44   26   27 ar   
    45   27   28 ar   
    46   27   50 1    
    47   28   29 ar   
    48   28   51 1    
    49   29   30 ar   
    50   29   52 1    
    51   30   35 ar   
    52   30   31 ar   
    53   31   32 ar   
    54   32   33 ar   
    55   32   53 1    
    56   33   34 ar   
    57   33   54 1    
    58   34   35 ar   
    59   34   55 1    
    60   35   56 1    
    61   36   37 3    
    62   38   57 1    
    63   38   58 1    
@<TRIPOS>SUBSTRUCTURE
     1 UNK         1 GROUP             0       ****    0 ROOT    
