@<TRIPOS>MOLECULE
ZINC59813206_2737
57   60    1
SMALL
USER_CHARGES


@<TRIPOS>ATOM
      1 C1          6.9607   54.8959   22.2703 C.3       1 UNK         0.0000 
      2 C2          5.8906   54.4974   23.2707 C.ar      1 UNK         0.0000 
      3 C3          4.6183   54.0946   22.8448 C.ar      1 UNK         0.0000 
      4 C4          3.6157   53.8172   23.7893 C.ar      1 UNK         0.0000 
      5 C5          3.9704   53.9494   25.1480 C.ar      1 UNK         0.0000 
      6 C6          3.3536   53.7415   26.4284 C.ar      1 UNK         0.0000 
      7 N7          4.1992   54.0079   27.3949 N.2       1 UNK         0.0000 
      8 N8          5.3716   54.3514   26.8298 N.pl3     1 UNK         0.0000 
      9 C9          5.2923   54.3501   25.4538 C.ar      1 UNK         0.0000 
     10 N10         6.2544   54.6375   24.5722 N.ar      1 UNK         0.0000 
     11 C11         6.4846   54.7012   27.6823 C.3       1 UNK         0.0000 
     12 C12         1.9600   53.2469   26.7449 C.3       1 UNK         0.0000 
     13 C13         2.2582   53.3725   23.3387 C.2       1 UNK         0.0000 
     14 O14         1.2835   54.1082   23.4795 O.2       1 UNK         0.0000 
     15 N15         2.2057   52.1133   22.8659 N.am      1 UNK         0.0000 
     16 C16         0.9977   51.3481   22.5397 C.3       1 UNK         0.0000 
     17 H17         1.3463   50.3403   22.3018 H         1 UNK         0.0000 
     18 C18         0.3317   51.8586   21.2430 C.3       1 UNK         0.0000 
     19 C19         0.0327   51.1927   23.7297 C.ar      1 UNK         0.0000 
     20 C20        -1.0242   52.0885   23.9214 C.ar      1 UNK         0.0000 
     21 C21        -1.9033   51.9275   24.9862 C.ar      1 UNK         0.0000 
     22 C22        -1.7604   50.8430   25.8654 C.ar      1 UNK         0.0000 
     23 C23        -0.6996   49.9527   25.6807 C.ar      1 UNK         0.0000 
     24 C24         0.1877   50.1224   24.6180 C.ar      1 UNK         0.0000 
     25 N25        -2.6172   50.5962   26.9621 N.am      1 UNK         0.0000 
     26 C26        -3.8306   51.1420   27.2232 C.2       1 UNK         0.0000 
     27 O27        -4.4393   51.8901   26.4556 O.2       1 UNK         0.0000 
     28 C28        -4.4709   50.7783   28.5436 C.ar      1 UNK         0.0000 
     29 C29        -5.8689   50.7523   28.6547 C.ar      1 UNK         0.0000 
     30 C30        -6.4770   50.4362   29.8679 C.ar      1 UNK         0.0000 
     31 C31        -5.6925   50.1492   30.9804 C.ar      1 UNK         0.0000 
     32 C32        -4.3065   50.1820   30.8877 C.ar      1 UNK         0.0000 
     33 C33        -3.6959   50.4963   29.6754 C.ar      1 UNK         0.0000 
     34 F34        -6.2832   49.8419   32.1577 F         1 UNK         0.0000 
     35 H35         6.6666   54.6550   21.2468 H         1 UNK         0.0000 
     36 H36         7.1428   55.9702   22.3251 H         1 UNK         0.0000 
     37 H37         7.9031   54.3860   22.4815 H         1 UNK         0.0000 
     38 H38         4.4047   54.0230   21.7869 H         1 UNK         0.0000 
     39 H39         7.4154   54.6908   27.1146 H         1 UNK         0.0000 
     40 H40         6.3046   55.6968   28.0808 H         1 UNK         0.0000 
     41 H41         6.5651   53.9905   28.5066 H         1 UNK         0.0000 
     42 H42         1.8159   52.2215   26.4014 H         1 UNK         0.0000 
     43 H43         1.1953   53.8476   26.2556 H         1 UNK         0.0000 
     44 H44         1.7404   53.2551   27.8126 H         1 UNK         0.0000 
     45 H45         3.0767   51.6141   22.7860 H         1 UNK         0.0000 
     46 H46        -0.5382   51.2566   20.9818 H         1 UNK         0.0000 
     47 H47         0.0125   52.8957   21.3245 H         1 UNK         0.0000 
     48 H48         1.0265   51.8091   20.4040 H         1 UNK         0.0000 
     49 H49        -1.1572   52.9340   23.2655 H         1 UNK         0.0000 
     50 H50        -2.6801   52.6648   25.1047 H         1 UNK         0.0000 
     51 H51        -0.5617   49.1163   26.3539 H         1 UNK         0.0000 
     52 H52         0.9940   49.4148   24.4874 H         1 UNK         0.0000 
     53 H53        -2.2844   49.8832   27.6089 H         1 UNK         0.0000 
     54 H54        -6.4950   50.9683   27.7992 H         1 UNK         0.0000 
     55 H55        -7.5534   50.4084   29.9476 H         1 UNK         0.0000 
     56 H56        -3.6938   49.9649   31.7509 H         1 UNK         0.0000 
     57 H57        -2.6148   50.4992   29.6373 H         1 UNK         0.0000 
@<TRIPOS>BOND
     1    1    2 1    
     2    1   35 1    
     3    1   36 1    
     4    1   37 1    
     5    2   10 ar   
     6    2    3 ar   
     7    3    4 ar   
     8    3   38 1    
     9    4    5 ar   
    10    4   13 1    
    11    5    9 ar   
    12    5    6 ar   
    13    6    7 ar   
    14    6   12 1    
    15    7    8 ar   
    16    8    9 ar   
    17    8   11 1    
    18    9   10 ar   
    19   11   39 1    
    20   11   40 1    
    21   11   41 1    
    22   12   42 1    
    23   12   43 1    
    24   12   44 1    
    25   13   14 2    
    26   13   15 am   BACKBONE|DICT|INTERRES
    27   15   16 1    
    28   15   45 1    
    29   16   17 1    
    30   16   18 1    
    31   16   19 1    
    32   18   46 1    
    33   18   47 1    
    34   18   48 1    
    35   19   24 ar   
    36   19   20 ar   
    37   20   21 ar   
    38   20   49 1    
    39   21   22 ar   
    40   21   50 1    
    41   22   23 ar   
    42   22   25 1    
    43   23   24 ar   
    44   23   51 1    
    45   24   52 1    
    46   25   26 am   BACKBONE|DICT|INTERRES
    47   25   53 1    
    48   26   27 2    
    49   26   28 1    
    50   28   33 ar   
    51   28   29 ar   
    52   29   30 ar   
    53   29   54 1    
    54   30   31 ar   
    55   30   55 1    
    56   31   32 ar   
    57   31   34 1    
    58   32   33 ar   
    59   32   56 1    
    60   33   57 1    
@<TRIPOS>SUBSTRUCTURE
     1 UNK         1 GROUP             0       ****    0 ROOT    
