ZINC21032163_4774
                    3D
 Schrodinger Suite 2024-2.
 30 32  0  0  1  0            999 V2000
    4.0198   54.0234   22.8710 C   0  0  0  0  0  0
    3.5287   54.1256   24.1753 C   0  0  0  0  0  0
    2.4336   53.3299   24.5375 C   0  0  0  0  0  0
    1.8395   52.4599   23.5878 C   0  0  0  0  0  0
    2.3361   52.3725   22.2772 C   0  0  0  0  0  0
    3.4390   53.1603   21.9390 C   0  0  0  0  0  0
    3.9752   53.0777   20.6540 N   0  0  0  0  0  0
    0.5056   51.6038   24.3578 S   0  0  0  0  0  0
    0.8918   52.4419   25.8443 C   0  0  0  0  0  0
    1.8751   53.3013   25.7750 N   0  0  0  0  0  0
    0.1035   52.1579   26.9545 N   0  0  0  0  0  0
    0.3399   52.4490   28.2547 C   0  0  0  0  0  0
   -0.4901   52.1869   29.1210 O   0  0  0  0  0  0
    1.6426   53.0836   28.6622 C   0  0  0  0  0  0
    2.7691   52.2830   28.8696 C   0  0  0  0  0  0
    3.9988   52.8690   29.1578 C   0  0  0  0  0  0
    4.1118   54.2511   29.2868 C   0  0  0  0  0  0
    2.9891   55.0518   29.1035 C   0  0  0  0  0  0
    1.7632   54.4763   28.7730 C   0  0  0  0  0  0
    0.7166   55.2841   28.5130 F   0  0  0  0  0  0
    5.0935   52.0982   29.2825 F   0  0  0  0  0  0
    4.8742   54.6183   22.5845 H   0  0  0  0  0  0
    3.9898   54.7922   24.8887 H   0  0  0  0  0  0
    1.8908   51.7041   21.5559 H   0  0  0  0  0  0
    4.6358   53.7801   20.3516 H   0  0  0  0  0  0
    3.5080   52.5104   19.9585 H   0  0  0  0  0  0
   -0.7052   51.5777   26.7821 H   0  0  0  0  0  0
    2.7039   51.2094   28.7651 H   0  0  0  0  0  0
    5.0710   54.7002   29.5061 H   0  0  0  0  0  0
    3.0742   56.1278   29.1813 H   0  0  0  0  0  0
  1  6  2  0  0  0
  1  2  1  0  0  0
  1 22  1  0  0  0
  2  3  2  0  0  0
  2 23  1  0  0  0
  3 10  1  0  0  0
  3  4  1  0  0  0
  4  5  2  0  0  0
  4  8  1  0  0  0
  5  6  1  0  0  0
  5 24  1  0  0  0
  6  7  1  0  0  0
  7 25  1  0  0  0
  7 26  1  0  0  0
  8  9  1  0  0  0
  9 10  2  0  0  0
  9 11  1  0  0  0
 11 12  1  0  0  0
 11 27  1  0  0  0
 12 13  2  0  0  0
 12 14  1  0  0  0
 14 19  2  0  0  0
 14 15  1  0  0  0
 15 16  2  0  0  0
 15 28  1  0  0  0
 16 17  1  0  0  0
 16 21  1  0  0  0
 17 18  2  0  0  0
 17 29  1  0  0  0
 18 19  1  0  0  0
 18 30  1  0  0  0
 19 20  1  0  0  0
M  END
> <i_i_glide_confnum>
16

> <i_i_glide_lignum>
4775

> <i_i_glide_posenum>
250

> <i_i_glide_rotatable_bonds>
3

> <i_m_Source_File_Index>
4190

> <b_m_subgroup_collapsed>
0

> <r_i_docking_score>
-3.64299

> <r_i_glide_ecoul>
-0.619608

> <r_i_glide_eff_state_penalty>
0

> <r_i_glide_einternal>
8.47765

> <r_i_glide_emodel>
-29.4252

> <r_i_glide_energy>
-30.4657

> <r_i_glide_erotb>
0.593984

> <r_i_glide_esite>
0

> <r_i_glide_evdw>
-29.8461

> <r_i_glide_gscore>
-3.64299

> <r_i_glide_hbond>
0

> <r_i_glide_ligand_efficiency>
-0.173476

> <r_i_glide_ligand_efficiency_ln>
-0.900721

> <r_i_glide_ligand_efficiency_sa>
-0.478606

> <r_i_glide_lipo>
-2.48306

> <r_i_glide_metal>
0

> <r_i_glide_rewards>
-0.168664

> <s_i_glide_gridfile>
wee1_glide-grid

> <s_m_Source_File>
wee1_decoys_glide_SP.sdf

> <s_m_Source_Path>
/Users/zhangxujun/Desktop

> <s_m_entry_id>
4465

> <s_m_entry_name>
wee1_decoys_glide_SP.4190

> <s_m_subgroup_title>
wee1_decoys_glide_SP

> <s_m_subgroupid>
wee1_decoys_glide_SP


$$$$
