ZINC63375980_1206
                    3D
 Schrodinger Suite 2024-2.
 70 76  0  0  1  0            999 V2000
    6.4140   53.2814   22.9485 C   0  0  0  0  0  0
    5.7190   53.7841   24.2050 C   0  0  0  0  0  0
    6.5373   53.8314   25.3407 C   0  0  0  0  0  0
    6.1135   54.3392   26.5548 C   0  0  0  0  0  0
    4.8509   54.8857   26.6257 C   0  0  0  0  0  0
    4.0384   54.8795   25.4992 C   0  0  0  0  0  0
    4.3726   54.2245   24.3007 C   0  0  0  0  0  0
    3.2401   54.1017   23.2165 C   0  0  2  0  0  0
    3.1505   55.1328   22.8682 H   0  0  0  0  0  0
    1.7893   53.7080   23.7658 C   0  0  1  0  0  0
    1.0995   54.4548   23.3752 H   0  0  0  0  0  0
    1.2886   52.3356   23.3729 C   0  0  0  0  0  0
    0.7893   51.6803   24.4303 C   0  0  0  0  0  0
    0.2089   50.3367   24.5795 C   0  0  0  0  0  0
   -0.2280   49.9153   25.7844 C   0  0  0  0  0  0
   -0.1084   50.8289   26.9135 C   0  0  0  0  0  0
    0.4581   52.0579   26.7930 C   0  0  0  0  0  0
    0.9209   52.4971   25.5468 C   0  0  0  0  0  0
    1.5048   53.6249   25.2197 N   0  3  0  0  0  0
    1.4849   51.9693   21.9419 C   0  0  0  0  0  0
    3.0084   51.9897   21.7384 C   0  0  2  0  0  0
    3.5075   51.2277   22.3348 H   0  0  0  0  0  0
    3.5511   53.3128   21.9782 N   0  0  0  0  0  0
    4.1095   53.8186   20.8563 C   0  0  0  0  0  0
    4.7003   54.8966   20.7769 O   0  0  0  0  0  0
    3.9185   52.9096   19.8505 N   0  0  0  0  0  0
    3.3611   51.7590   20.3087 C   0  0  0  0  0  0
    3.1072   50.7063   19.7259 O   0  0  0  0  0  0
    4.3735   53.1114   18.5099 C   0  0  0  0  0  0
    5.7135   53.5096   18.3264 C   0  0  0  0  0  0
    6.2584   53.6723   17.0571 C   0  0  0  0  0  0
    5.4782   53.4301   15.9340 C   0  0  0  0  0  0
    4.1526   53.0356   16.0820 C   0  0  0  0  0  0
    3.5799   52.8727   17.3521 C   0  0  0  0  0  0
    2.1338   52.4517   17.4122 C   0  0  0  0  0  0
    1.2845   53.1659   17.9464 O   0  0  0  0  0  0
    1.8671   51.2555   16.8542 N   0  0  0  0  0  0
    0.5364   50.6429   16.7867 C   0  0  0  0  0  0
    0.5801   49.3601   15.9467 C   0  0  0  0  0  0
    0.9256   48.2554   16.9492 C   0  0  0  0  0  0
    0.2035   48.6608   18.2413 C   0  0  0  0  0  0
    0.0047   50.1883   18.1651 C   0  0  0  0  0  0
    7.4069   52.8964   23.1824 H   0  0  0  0  0  0
    5.8887   52.4618   22.4645 H   0  0  0  0  0  0
    6.5877   54.0991   22.2504 H   0  0  0  0  0  0
    7.5043   53.3966   25.2946 H   0  0  0  0  0  0
    6.7604   54.3229   27.4210 H   0  0  0  0  0  0
    4.5017   55.3061   27.5545 H   0  0  0  0  0  0
    3.1071   55.3871   25.5895 H   0  0  0  0  0  0
    0.1325   49.6547   23.7447 H   0  0  0  0  0  0
   -0.6422   48.9253   25.9288 H   0  0  0  0  0  0
   -0.4867   50.5168   27.8780 H   0  0  0  0  0  0
    0.5228   52.6867   27.6702 H   0  0  0  0  0  0
    0.9756   52.6709   21.2742 H   0  0  0  0  0  0
    1.0813   50.9798   21.7239 H   0  0  0  0  0  0
    6.3560   53.6816   19.1765 H   0  0  0  0  0  0
    7.2890   53.9739   16.9452 H   0  0  0  0  0  0
    5.9002   53.5484   14.9468 H   0  0  0  0  0  0
    3.5698   52.8522   15.1901 H   0  0  0  0  0  0
    2.6559   50.6570   16.6238 H   0  0  0  0  0  0
   -0.1033   51.3889   16.3103 H   0  0  0  0  0  0
    1.2615   49.4169   15.0969 H   0  0  0  0  0  0
   -0.4094   49.1717   15.5291 H   0  0  0  0  0  0
    2.0027   48.2345   17.1193 H   0  0  0  0  0  0
    0.6327   47.2644   16.5964 H   0  0  0  0  0  0
    0.7740   48.3700   19.1258 H   0  0  0  0  0  0
   -0.7675   48.1632   18.2987 H   0  0  0  0  0  0
   -1.0650   50.3971   18.2229 H   0  0  0  0  0  0
    0.4648   50.7203   18.9996 H   0  0  0  0  0  0
    1.7205   54.3687   25.8750 H   0  0  0  0  0  0
  1  2  1  0  0  0
  1 43  1  0  0  0
  1 44  1  0  0  0
  1 45  1  0  0  0
  2  7  2  0  0  0
  2  3  1  0  0  0
  3  4  2  0  0  0
  3 46  1  0  0  0
  4  5  1  0  0  0
  4 47  1  0  0  0
  5  6  2  0  0  0
  5 48  1  0  0  0
  6  7  1  0  0  0
  6 49  1  0  0  0
  7  8  1  0  0  0
  8  9  1  0  0  0
  8 23  1  0  0  0
  8 10  1  0  0  0
 10 11  1  0  0  0
 10 19  1  0  0  0
 10 12  1  0  0  0
 12 13  2  0  0  0
 12 20  1  0  0  0
 13 18  1  0  0  0
 13 14  1  0  0  0
 14 15  2  0  0  0
 14 50  1  0  0  0
 15 16  1  0  0  0
 15 51  1  0  0  0
 16 17  2  0  0  0
 16 52  1  0  0  0
 17 18  1  0  0  0
 17 53  1  0  0  0
 18 19  2  0  0  0
 19 70  1  0  0  0
 20 21  1  0  0  0
 20 54  1  0  0  0
 20 55  1  0  0  0
 21 22  1  0  0  0
 21 27  1  0  0  0
 21 23  1  0  0  0
 23 24  1  0  0  0
 24 25  2  0  0  0
 24 26  1  0  0  0
 26 27  1  0  0  0
 26 29  1  0  0  0
 27 28  2  0  0  0
 29 34  2  0  0  0
 29 30  1  0  0  0
 30 31  2  0  0  0
 30 56  1  0  0  0
 31 32  1  0  0  0
 31 57  1  0  0  0
 32 33  2  0  0  0
 32 58  1  0  0  0
 33 34  1  0  0  0
 33 59  1  0  0  0
 34 35  1  0  0  0
 35 36  2  0  0  0
 35 37  1  0  0  0
 37 38  1  0  0  0
 37 60  1  0  0  0
 38 42  1  0  0  0
 38 39  1  0  0  0
 38 61  1  0  0  0
 39 40  1  0  0  0
 39 62  1  0  0  0
 39 63  1  0  0  0
 40 41  1  0  0  0
 40 64  1  0  0  0
 40 65  1  0  0  0
 41 42  1  0  0  0
 41 66  1  0  0  0
 41 67  1  0  0  0
 42 68  1  0  0  0
 42 69  1  0  0  0
M  CHG  1  19   1
M  END
> <i_i_glide_confnum>
672

> <i_i_glide_lignum>
1207

> <i_i_glide_posenum>
273

> <i_i_glide_rotatable_bonds>
5

> <i_m_Source_File_Index>
2442

> <b_m_subgroup_collapsed>
0

> <r_i_docking_score>
-4.78854

> <r_i_glide_ecoul>
-1.32994

> <r_i_glide_eff_state_penalty>
0

> <r_i_glide_einternal>
19.0334

> <r_i_glide_emodel>
-40.6654

> <r_i_glide_energy>
-35.2777

> <r_i_glide_erotb>
0.380483

> <r_i_glide_esite>
-0.164034

> <r_i_glide_evdw>
-33.9477

> <r_i_glide_gscore>
-4.78854

> <r_i_glide_hbond>
-0.130144

> <r_i_glide_ligand_efficiency>
-0.122783

> <r_i_glide_ligand_efficiency_ln>
-1.0268

> <r_i_glide_ligand_efficiency_sa>
-0.416383

> <r_i_glide_lipo>
-2.71349

> <r_i_glide_metal>
0

> <r_i_glide_rewards>
-0.264469

> <s_i_glide_gridfile>
wee1_glide-grid

> <s_m_Source_File>
wee1_decoys_glide_SP.sdf

> <s_m_Source_Path>
/Users/zhangxujun/Desktop

> <s_m_entry_id>
2717

> <s_m_entry_name>
wee1_decoys_glide_SP.2442

> <s_m_subgroup_title>
wee1_decoys_glide_SP

> <s_m_subgroupid>
wee1_decoys_glide_SP


$$$$
