ZINC43641654_744
                    3D
 Schrodinger Suite 2024-2.
 73 77  0  0  1  0            999 V2000
    5.3878   54.7994   24.9148 C   0  0  0  0  0  0
    4.7943   54.3604   23.5863 C   0  0  0  0  0  0
    5.5223   54.4964   22.3780 C   0  0  0  0  0  0
    6.7884   55.1275   22.2557 C   0  0  0  0  0  0
    7.3433   55.3355   20.9954 C   0  0  0  0  0  0
    6.6837   54.8967   19.8450 C   0  0  0  0  0  0
    5.4657   54.2172   19.9437 C   0  0  0  0  0  0
    4.8556   54.0238   21.2072 C   0  0  0  0  0  0
    3.6243   53.4419   21.2707 N   0  0  0  0  0  0
    2.9816   53.4624   22.4712 C   0  0  0  0  0  0
    3.5237   53.9120   23.6346 N   0  0  0  0  0  0
    1.6255   53.0648   22.4843 N   0  0  0  0  0  0
    1.1977   51.9388   21.6424 C   0  0  0  0  0  0
    0.2619   50.8741   22.2676 C   0  0  0  0  0  0
    0.6382   50.3473   23.6762 C   0  0  0  0  0  0
    0.2043   51.2712   24.8363 C   0  0  2  0  0  0
   -0.8826   51.3885   24.8250 H   0  0  0  0  0  0
    0.8788   52.6481   24.8593 C   0  0  0  0  0  0
    0.7569   53.4684   23.5922 C   0  0  0  0  0  0
    0.5266   50.5917   26.1824 N   0  3  0  0  0  0
   -0.5150   50.7221   27.3070 C   0  0  0  0  0  0
   -0.7642   52.1544   27.8212 C   0  0  0  0  0  0
    0.3043   52.8391   28.6855 C   0  0  0  0  0  0
    0.0372   53.2146   29.9594 C   0  0  0  0  0  0
    1.0092   54.0998   30.7376 C   0  0  0  0  0  0
    2.2342   54.4368   29.8157 C   0  0  2  0  0  0
    2.9125   55.1397   30.2975 H   0  0  0  0  0  0
    1.7537   54.8266   28.3873 C   0  0  0  0  0  0
    1.6752   53.3016   28.1227 C   0  0  1  0  0  0
    1.9060   52.9339   27.1370 H   0  0  0  0  0  0
    2.8552   53.1757   29.1419 C   0  0  0  0  0  0
    2.9214   51.8662   29.9651 C   0  0  0  0  0  0
    4.2670   53.4055   28.5273 C   0  0  0  0  0  0
    7.4045   55.1958   18.2329 S   0  0  0  0  0  0
    8.8057   55.5747   18.4406 O   0  0  0  0  0  0
    7.0582   54.0530   17.3841 O   0  0  0  0  0  0
    6.4684   56.7012   17.6098 C   0  0  0  0  0  0
    6.3135   54.2565   25.1114 H   0  0  0  0  0  0
    5.6129   55.8652   24.9000 H   0  0  0  0  0  0
    4.7060   54.6087   25.7455 H   0  0  0  0  0  0
    7.3056   55.4849   23.1323 H   0  0  0  0  0  0
    8.3018   55.8323   20.9210 H   0  0  0  0  0  0
    4.9632   53.8592   19.0574 H   0  0  0  0  0  0
    2.0430   51.4541   21.1473 H   0  0  0  0  0  0
    0.6170   52.4052   20.8454 H   0  0  0  0  0  0
    0.2609   50.0223   21.5863 H   0  0  0  0  0  0
   -0.7721   51.2227   22.2445 H   0  0  0  0  0  0
    1.7152   50.1667   23.7176 H   0  0  0  0  0  0
    0.1825   49.3662   23.8159 H   0  0  0  0  0  0
    0.4666   53.2578   25.6519 H   0  0  0  0  0  0
    1.9390   52.5013   25.0767 H   0  0  0  0  0  0
    0.9722   54.5131   23.8294 H   0  0  0  0  0  0
   -0.2856   53.5037   23.2806 H   0  0  0  0  0  0
    1.4265   50.9062   26.5110 H   0  0  0  0  0  0
   -0.0961   50.0969   28.0820 H   0  0  0  0  0  0
   -1.4148   50.2444   26.9164 H   0  0  0  0  0  0
   -1.6677   52.0913   28.4292 H   0  0  0  0  0  0
   -1.0554   52.8177   27.0081 H   0  0  0  0  0  0
   -0.8957   52.9396   30.4183 H   0  0  0  0  0  0
    1.3066   53.5820   31.6477 H   0  0  0  0  0  0
    0.5050   55.0148   31.0483 H   0  0  0  0  0  0
    2.4838   55.3807   27.7946 H   0  0  0  0  0  0
    0.8312   55.4093   28.3357 H   0  0  0  0  0  0
    2.0100   51.6504   30.5191 H   0  0  0  0  0  0
    3.7295   51.8978   30.6984 H   0  0  0  0  0  0
    3.0987   51.0214   29.2995 H   0  0  0  0  0  0
    4.3882   54.3852   28.0683 H   0  0  0  0  0  0
    5.0521   53.3262   29.2799 H   0  0  0  0  0  0
    4.4816   52.6654   27.7557 H   0  0  0  0  0  0
    6.8517   56.9573   16.6226 H   0  0  0  0  0  0
    5.4094   56.4581   17.5464 H   0  0  0  0  0  0
    6.6269   57.5297   18.2966 H   0  0  0  0  0  0
    0.6087   49.5998   26.0005 H   0  0  0  0  0  0
  1  2  1  0  0  0
  1 38  1  0  0  0
  1 39  1  0  0  0
  1 40  1  0  0  0
  2 11  2  0  0  0
  2  3  1  0  0  0
  3  8  2  0  0  0
  3  4  1  0  0  0
  4  5  2  0  0  0
  4 41  1  0  0  0
  5  6  1  0  0  0
  5 42  1  0  0  0
  6  7  2  0  0  0
  6 34  1  0  0  0
  7  8  1  0  0  0
  7 43  1  0  0  0
  8  9  1  0  0  0
  9 10  2  0  0  0
 10 11  1  0  0  0
 10 12  1  0  0  0
 12 19  1  0  0  0
 12 13  1  0  0  0
 13 14  1  0  0  0
 13 44  1  0  0  0
 13 45  1  0  0  0
 14 15  1  0  0  0
 14 46  1  0  0  0
 14 47  1  0  0  0
 15 16  1  0  0  0
 15 48  1  0  0  0
 15 49  1  0  0  0
 16 17  1  0  0  0
 16 18  1  0  0  0
 16 20  1  0  0  0
 18 19  1  0  0  0
 18 50  1  0  0  0
 18 51  1  0  0  0
 19 52  1  0  0  0
 19 53  1  0  0  0
 20 21  1  0  0  0
 20 54  1  0  0  0
 20 73  1  0  0  0
 21 22  1  0  0  0
 21 55  1  0  0  0
 21 56  1  0  0  0
 22 23  1  0  0  0
 22 57  1  0  0  0
 22 58  1  0  0  0
 23 29  1  0  0  0
 23 24  2  0  0  0
 24 25  1  0  0  0
 24 59  1  0  0  0
 25 26  1  0  0  0
 25 60  1  0  0  0
 25 61  1  0  0  0
 26 27  1  0  0  0
 26 31  1  0  0  0
 26 28  1  0  0  0
 28 29  1  0  0  0
 28 62  1  0  0  0
 28 63  1  0  0  0
 29 30  1  0  0  0
 29 31  1  0  0  0
 31 32  1  0  0  0
 31 33  1  0  0  0
 32 64  1  0  0  0
 32 65  1  0  0  0
 32 66  1  0  0  0
 33 67  1  0  0  0
 33 68  1  0  0  0
 33 69  1  0  0  0
 34 35  2  0  0  0
 34 36  2  0  0  0
 34 37  1  0  0  0
 37 70  1  0  0  0
 37 71  1  0  0  0
 37 72  1  0  0  0
M  CHG  1  20   1
M  END
> <i_i_glide_confnum>
6

> <i_i_glide_lignum>
745

> <i_i_glide_posenum>
38

> <i_i_glide_rotatable_bonds>
6

> <i_m_Source_File_Index>
245

> <b_m_subgroup_collapsed>
0

> <r_i_docking_score>
-4.49182

> <r_i_glide_ecoul>
2.3033

> <r_i_glide_eff_state_penalty>
0

> <r_i_glide_einternal>
10.1782

> <r_i_glide_emodel>
-44.5862

> <r_i_glide_energy>
-37.4706

> <r_i_glide_erotb>
0.433897

> <r_i_glide_esite>
-0.0362519

> <r_i_glide_evdw>
-39.7739

> <r_i_glide_gscore>
-4.49182

> <r_i_glide_hbond>
0

> <r_i_glide_ligand_efficiency>
-0.132112

> <r_i_glide_ligand_efficiency_ln>
-0.992368

> <r_i_glide_ligand_efficiency_sa>
-0.427992

> <r_i_glide_lipo>
-2.83278

> <r_i_glide_metal>
0

> <r_i_glide_rewards>
-0.41348

> <s_i_glide_gridfile>
wee1_glide-grid

> <s_m_Source_File>
wee1_decoys_glide_SP.sdf

> <s_m_Source_Path>
/Users/zhangxujun/Desktop

> <s_m_entry_id>
520

> <s_m_entry_name>
wee1_decoys_glide_SP.245

> <s_m_subgroup_title>
wee1_decoys_glide_SP

> <s_m_subgroupid>
wee1_decoys_glide_SP


$$$$
