@<TRIPOS>MOLECULE
ZINC09881944_5326
58   61    1
SMALL
USER_CHARGES


@<TRIPOS>ATOM
      1 C1          4.8542   53.9776   27.5197 C.ar      1 UNK         0.0000 
      2 C2          5.3175   54.1161   26.2164 C.ar      1 UNK         0.0000 
      3 C3          4.4202   54.0598   25.1365 C.ar      1 UNK         0.0000 
      4 C4          3.0650   53.8371   25.3805 C.ar      1 UNK         0.0000 
      5 C5          2.6016   53.6962   26.6866 C.ar      1 UNK         0.0000 
      6 C6          3.4945   53.7599   27.7625 C.ar      1 UNK         0.0000 
      7 C7          2.9796   53.5980   29.1890 C.3       1 UNK         0.0000 
      8 F8          2.8071   52.3009   29.4524 F         1 UNK         0.0000 
      9 F9          1.8128   54.2270   29.3489 F         1 UNK         0.0000 
     10 F10         3.8381   54.0966   30.0820 F         1 UNK         0.0000 
     11 N11         4.8197   54.1260   23.7887 N.am      1 UNK         0.0000 
     12 C12         5.9202   54.7279   23.2920 C.2       1 UNK         0.0000 
     13 O13         6.7074   55.3706   23.9830 O.2       1 UNK         0.0000 
     14 C14         6.0751   54.6937   21.7624 C.3       1 UNK         0.0000 
     15 S15         7.6985   55.2977   21.1642 S.3       1 UNK         0.0000 
     16 C16         7.1612   56.2406   19.7860 C.ar      1 UNK         0.0000 
     17 N17         6.7038   57.4548   19.9041 N.2       1 UNK         0.0000 
     18 N18         6.3410   57.8964   18.6443 N.2       1 UNK         0.0000 
     19 C19         6.6225   56.9358   17.7969 C.ar      1 UNK         0.0000 
     20 N20         7.1717   55.8549   18.4615 N.pl3     1 UNK         0.0000 
     21 C21         7.6839   54.6658   17.9101 C.ar      1 UNK         0.0000 
     22 C22         6.8210   53.6661   17.4546 C.ar      1 UNK         0.0000 
     23 C23         7.3555   52.4997   16.9059 C.ar      1 UNK         0.0000 
     24 C24         8.7376   52.3421   16.8221 C.ar      1 UNK         0.0000 
     25 C25         9.5958   53.3395   17.2811 C.ar      1 UNK         0.0000 
     26 C26         9.0697   54.5051   17.8320 C.ar      1 UNK         0.0000 
     27 F27         9.2517   51.2091   16.2964 F         1 UNK         0.0000 
     28 C28         6.3726   57.0031   16.2956 C.3       1 UNK         0.0000 
     29 C29         3.9017   57.6766   16.3819 C.3       1 UNK         0.0000 
     30 C30         2.9155   58.8163   16.0668 C.3       1 UNK         0.0000 
     31 C31         2.9782   59.2486   14.5909 C.3       1 UNK         0.0000 
     32 C32         4.4138   59.5972   14.1619 C.3       1 UNK         0.0000 
     33 C33         5.3933   58.4455   14.4448 C.3       1 UNK         0.0000 
     34 H34         5.5658   54.0180   28.3339 H         1 UNK         0.0000 
     35 H35         6.3789   54.2362   26.0647 H         1 UNK         0.0000 
     36 H36         2.3611   53.7726   24.5633 H         1 UNK         0.0000 
     37 H37         1.5499   53.5200   26.8588 H         1 UNK         0.0000 
     38 H38         4.1469   53.7780   23.1240 H         1 UNK         0.0000 
     39 H39         5.9044   53.6851   21.3885 H         1 UNK         0.0000 
     40 H40         5.2833   55.3149   21.3448 H         1 UNK         0.0000 
     41 H41         5.7477   53.7754   17.5291 H         1 UNK         0.0000 
     42 H42         6.7022   51.7114   16.5652 H         1 UNK         0.0000 
     43 H43        10.6650   53.2008   17.2211 H         1 UNK         0.0000 
     44 H44         9.7405   55.2727   18.1966 H         1 UNK         0.0000 
     45 H45         7.2875   57.2551   15.7583 H         1 UNK         0.0000 
     46 H46         5.9701   56.0818   15.8736 H         1 UNK         0.0000 
     47 H47         3.6556   56.7523   15.8560 H         1 UNK         0.0000 
     48 H48         3.9195   57.4927   17.4563 H         1 UNK         0.0000 
     49 H49         1.9011   58.4980   16.3128 H         1 UNK         0.0000 
     50 H50         3.1075   59.6753   16.7154 H         1 UNK         0.0000 
     51 H51         2.3247   60.1092   14.4307 H         1 UNK         0.0000 
     52 H52         2.5907   58.4492   13.9569 H         1 UNK         0.0000 
     53 H53         4.7470   60.4953   14.6892 H         1 UNK         0.0000 
     54 H54         4.4347   59.8522   13.1013 H         1 UNK         0.0000 
     55 H55         6.4128   58.7694   14.2306 H         1 UNK         0.0000 
     56 H56         5.1605   57.5408   13.8820 H         1 UNK         0.0000 
     57 N57         5.3302   58.1070   15.9535 N.4       1 UNK         0.0000 
     58 H58         5.5760   58.9486   16.4643 H         1 UNK         0.0000 
@<TRIPOS>BOND
     1    1    6 ar   
     2    1    2 ar   
     3    1   34 1    
     4    2    3 ar   
     5    2   35 1    
     6    3    4 ar   
     7    3   11 1    
     8    4    5 ar   
     9    4   36 1    
    10    5    6 ar   
    11    5   37 1    
    12    6    7 1    
    13    7    8 1    
    14    7    9 1    
    15    7   10 1    
    16   11   12 am   BACKBONE|DICT|INTERRES
    17   11   38 1    
    18   12   13 2    
    19   12   14 1    
    20   14   15 1    
    21   14   39 1    
    22   14   40 1    
    23   15   16 1    
    24   16   20 ar   
    25   16   17 ar   
    26   17   18 ar   
    27   18   19 ar   
    28   19   20 ar   
    29   19   28 1    
    30   20   21 1    
    31   21   26 ar   
    32   21   22 ar   
    33   22   23 ar   
    34   22   41 1    
    35   23   24 ar   
    36   23   42 1    
    37   24   25 ar   
    38   24   27 1    
    39   25   26 ar   
    40   25   43 1    
    41   26   44 1    
    42   28   45 1    
    43   28   46 1    
    44   28   57 1    
    45   29   30 1    
    46   29   47 1    
    47   29   48 1    
    48   29   57 1    
    49   30   31 1    
    50   30   49 1    
    51   30   50 1    
    52   31   32 1    
    53   31   51 1    
    54   31   52 1    
    55   32   33 1    
    56   32   53 1    
    57   32   54 1    
    58   33   55 1    
    59   33   56 1    
    60   33   57 1    
    61   57   58 1    
@<TRIPOS>SUBSTRUCTURE
     1 UNK         1 GROUP             0       ****    0 ROOT    
