@<TRIPOS>MOLECULE
ZINC64921750_3294
56   59    1
SMALL
USER_CHARGES


@<TRIPOS>ATOM
      1 C1         -3.6961   55.7785   14.6635 C.3       1 UNK         0.0000 
      2 C2         -2.4745   56.7028   14.8338 C.3       1 UNK         0.0000 
      3 C3         -2.1229   57.0826   16.3010 C.3       1 UNK         0.0000 
      4 H4         -3.0150   57.4844   16.7817 H         1 UNK         0.0000 
      5 C5         -1.6958   55.8027   17.0980 C.2       1 UNK         0.0000 
      6 O6         -2.4775   55.0518   17.6808 O.2       1 UNK         0.0000 
      7 N7         -0.3654   55.5860   17.0448 N.am      1 UNK         0.0000 
      8 C8          0.5682   56.3991   16.4047 C.ar      1 UNK         0.0000 
      9 C9          1.8635   55.9596   16.1341 C.ar      1 UNK         0.0000 
     10 C10         2.7636   56.8149   15.4884 C.ar      1 UNK         0.0000 
     11 C11         2.3681   58.1138   15.1343 C.ar      1 UNK         0.0000 
     12 C12         1.0664   58.5468   15.3913 C.ar      1 UNK         0.0000 
     13 C13         0.1738   57.6827   16.0209 C.ar      1 UNK         0.0000 
     14 O14        -1.1034   58.1149   16.3226 O.3       1 UNK         0.0000 
     15 S15         4.3982   56.2198   15.0630 S.o2      1 UNK         0.0000 
     16 O16         5.0625   57.2960   14.3164 O.2       1 UNK         0.0000 
     17 O17         4.2046   54.8962   14.4607 O.2       1 UNK         0.0000 
     18 N18         5.2514   56.0089   16.5996 N.pl3     1 UNK         0.0000 
     19 C19         5.0883   54.7610   17.3758 C.3       1 UNK         0.0000 
     20 C20         6.4556   54.3989   17.9905 C.3       1 UNK         0.0000 
     21 C21         7.1230   55.5632   18.8059 C.3       1 UNK         0.0000 
     22 C22         6.9970   56.9327   18.0517 C.3       1 UNK         0.0000 
     23 C23         5.6183   57.1924   17.4049 C.3       1 UNK         0.0000 
     24 C24         6.5331   55.7001   20.2427 C.2       1 UNK         0.0000 
     25 O25         6.7044   56.7432   20.8808 O.2       1 UNK         0.0000 
     26 N26         5.8777   54.6381   20.7587 N.am      1 UNK         0.0000 
     27 C27         5.4409   54.4967   22.0768 C.ar      1 UNK         0.0000 
     28 C28         6.3076   54.7169   23.1566 C.ar      1 UNK         0.0000 
     29 C29         5.8405   54.5544   24.4558 C.ar      1 UNK         0.0000 
     30 C30         4.5143   54.1866   24.6733 C.ar      1 UNK         0.0000 
     31 C31         3.6540   53.9585   23.5975 C.ar      1 UNK         0.0000 
     32 C32         4.1221   54.0966   22.2954 C.ar      1 UNK         0.0000 
     33 Cl33        3.9296   54.0139   26.2873 Cl        1 UNK         0.0000 
     34 H34        -3.9272   55.6263   13.6075 H         1 UNK         0.0000 
     35 H35        -3.5252   54.7931   15.1003 H         1 UNK         0.0000 
     36 H36        -4.5856   56.1986   15.1351 H         1 UNK         0.0000 
     37 H37        -2.6726   57.6240   14.2866 H         1 UNK         0.0000 
     38 H38        -1.6132   56.2584   14.3320 H         1 UNK         0.0000 
     39 H39        -0.0628   54.7301   17.4884 H         1 UNK         0.0000 
     40 H40         2.1690   54.9573   16.4058 H         1 UNK         0.0000 
     41 H41         3.0599   58.7852   14.6471 H         1 UNK         0.0000 
     42 H42         0.7615   59.5483   15.1236 H         1 UNK         0.0000 
     43 H43         4.7140   53.9661   16.7314 H         1 UNK         0.0000 
     44 H44         4.3586   54.9356   18.1666 H         1 UNK         0.0000 
     45 H45         7.1591   54.1016   17.2114 H         1 UNK         0.0000 
     46 H46         6.4454   53.4572   18.5408 H         1 UNK         0.0000 
     47 H47         8.1748   55.3839   19.0371 H         1 UNK         0.0000 
     48 H48         7.3311   57.7729   18.6650 H         1 UNK         0.0000 
     49 H49         7.7877   56.9678   17.2995 H         1 UNK         0.0000 
     50 H50         5.6235   58.0843   16.7770 H         1 UNK         0.0000 
     51 H51         4.8705   57.3238   18.1846 H         1 UNK         0.0000 
     52 H52         5.5867   53.9166   20.1171 H         1 UNK         0.0000 
     53 H53         7.3363   55.0138   22.9867 H         1 UNK         0.0000 
     54 H54         6.5032   54.7202   25.2945 H         1 UNK         0.0000 
     55 H55         2.6274   53.6730   23.7739 H         1 UNK         0.0000 
     56 H56         3.4513   53.9237   21.4624 H         1 UNK         0.0000 
@<TRIPOS>BOND
     1    1    2 1    
     2    1   34 1    
     3    1   35 1    
     4    1   36 1    
     5    2    3 1    
     6    2   37 1    
     7    2   38 1    
     8    3    4 1    
     9    3   14 1    
    10    3    5 1    
    11    5    6 2    
    12    5    7 am   BACKBONE|DICT|INTERRES
    13    7    8 1    
    14    7   39 1    
    15    8   13 ar   
    16    8    9 ar   
    17    9   10 ar   
    18    9   40 1    
    19   10   11 ar   
    20   10   15 1    
    21   11   12 ar   
    22   11   41 1    
    23   12   13 ar   
    24   12   42 1    
    25   13   14 1    
    26   15   16 2    
    27   15   17 2    
    28   15   18 1    
    29   18   23 1    
    30   18   19 1    
    31   19   20 1    
    32   19   43 1    
    33   19   44 1    
    34   20   21 1    
    35   20   45 1    
    36   20   46 1    
    37   21   22 1    
    38   21   24 1    
    39   21   47 1    
    40   22   23 1    
    41   22   48 1    
    42   22   49 1    
    43   23   50 1    
    44   23   51 1    
    45   24   25 2    
    46   24   26 am   BACKBONE|DICT|INTERRES
    47   26   27 1    
    48   26   52 1    
    49   27   32 ar   
    50   27   28 ar   
    51   28   29 ar   
    52   28   53 1    
    53   29   30 ar   
    54   29   54 1    
    55   30   31 ar   
    56   30   33 1    
    57   31   32 ar   
    58   31   55 1    
    59   32   56 1    
@<TRIPOS>SUBSTRUCTURE
     1 UNK         1 GROUP             0       ****    0 ROOT    
