@<TRIPOS>MOLECULE
ZINC09325703_3363
54   57    1
SMALL
USER_CHARGES


@<TRIPOS>ATOM
      1 C1          0.2115   53.6698   31.6572 C.3       1 UNK         0.0000 
      2 O2          1.1411   53.4815   30.5980 O.3       1 UNK         0.0000 
      3 C3          0.6971   53.1698   29.3541 C.2       1 UNK         0.0000 
      4 O4         -0.4937   52.9789   29.0961 O.2       1 UNK         0.0000 
      5 N5          1.7374   53.1294   28.4088 N.am      1 UNK         0.0000 
      6 C6          3.1656   53.1544   28.7941 C.3       1 UNK         0.0000 
      7 C7          3.8446   54.2893   27.9895 C.3       1 UNK         0.0000 
      8 C8          3.5727   54.0919   26.4967 C.2       1 UNK         0.0000 
      9 C9          2.4288   53.4021   26.0763 C.2       1 UNK         0.0000 
     10 S10         2.3210   53.2970   24.3545 S.3       1 UNK         0.0000 
     11 C11         3.8937   54.0447   24.1835 C.2       1 UNK         0.0000 
     12 C12         4.4125   54.4489   25.4209 C.2       1 UNK         0.0000 
     13 C13         5.6923   55.1364   25.5718 C.1       1 UNK         0.0000 
     14 N14         6.7044   55.6850   25.6816 N.1       1 UNK         0.0000 
     15 N15         4.5350   54.2081   22.9597 N.am      1 UNK         0.0000 
     16 C16         4.2173   53.6952   21.7510 C.2       1 UNK         0.0000 
     17 O17         3.3050   52.8936   21.5484 O.2       1 UNK         0.0000 
     18 C18         5.1301   54.1284   20.6229 C.ar      1 UNK         0.0000 
     19 C19         5.9132   55.2939   20.7100 C.ar      1 UNK         0.0000 
     20 C20         6.7406   55.6765   19.6584 C.ar      1 UNK         0.0000 
     21 C21         6.8066   54.9046   18.5049 C.ar      1 UNK         0.0000 
     22 C22         6.0432   53.7390   18.3905 C.ar      1 UNK         0.0000 
     23 C23         5.2101   53.3633   19.4494 C.ar      1 UNK         0.0000 
     24 N24         6.0751   52.8968   17.2715 N.pl3     1 UNK         0.0000 
     25 S25         6.9195   53.2070   15.7383 S.o2      1 UNK         0.0000 
     26 O26         6.3825   52.2299   14.7844 O.2       1 UNK         0.0000 
     27 O27         6.8479   54.6461   15.4599 O.2       1 UNK         0.0000 
     28 C28         8.6313   52.7651   16.0327 C.ar      1 UNK         0.0000 
     29 C29         9.5613   53.7380   16.4097 C.ar      1 UNK         0.0000 
     30 C30        10.8862   53.3761   16.6397 C.ar      1 UNK         0.0000 
     31 C31        11.2770   52.0454   16.4813 C.ar      1 UNK         0.0000 
     32 C32        10.3525   51.0731   16.1060 C.ar      1 UNK         0.0000 
     33 C33         9.0263   51.4319   15.8859 C.ar      1 UNK         0.0000 
     34 C34         1.4018   52.7875   27.0154 C.3       1 UNK         0.0000 
     35 H35         0.7012   53.7059   32.6294 H         1 UNK         0.0000 
     36 H36        -0.5038   52.8507   31.6812 H         1 UNK         0.0000 
     37 H37        -0.3413   54.6010   31.5194 H         1 UNK         0.0000 
     38 H38         3.3373   53.2796   29.8635 H         1 UNK         0.0000 
     39 H39         3.6106   52.1920   28.5333 H         1 UNK         0.0000 
     40 H40         3.4928   55.2627   28.3245 H         1 UNK         0.0000 
     41 H41         4.9143   54.2809   28.2013 H         1 UNK         0.0000 
     42 H42         5.4158   54.6946   23.0025 H         1 UNK         0.0000 
     43 H43         5.9014   55.9262   21.5854 H         1 UNK         0.0000 
     44 H44         7.3382   56.5710   19.7346 H         1 UNK         0.0000 
     45 H45         7.4570   55.2308   17.7125 H         1 UNK         0.0000 
     46 H46         4.6252   52.4591   19.3537 H         1 UNK         0.0000 
     47 H47         5.6471   51.9804   17.3822 H         1 UNK         0.0000 
     48 H48         9.2660   54.7718   16.5155 H         1 UNK         0.0000 
     49 H49        11.6083   54.1226   16.9351 H         1 UNK         0.0000 
     50 H50        12.3024   51.7640   16.6623 H         1 UNK         0.0000 
     51 H51        10.6590   50.0422   15.9928 H         1 UNK         0.0000 
     52 H52         8.3079   50.6808   15.5902 H         1 UNK         0.0000 
     53 H53         1.3816   51.7026   26.9127 H         1 UNK         0.0000 
     54 H54         0.3934   53.1111   26.7596 H         1 UNK         0.0000 
@<TRIPOS>BOND
     1    1    2 1    
     2    1   35 1    
     3    1   36 1    
     4    1   37 1    
     5    2    3 1    
     6    3    4 2    
     7    3    5 am   BACKBONE|DICT|INTERRES
     8    5   34 1    
     9    5    6 1    
    10    6    7 1    
    11    6   38 1    
    12    6   39 1    
    13    7    8 1    
    14    7   40 1    
    15    7   41 1    
    16    8   12 1    
    17    8    9 2    
    18    9   10 1    
    19    9   34 1    
    20   10   11 1    
    21   11   12 2    
    22   11   15 am   BACKBONE|DICT|INTERRES
    23   12   13 1    
    24   13   14 3    
    25   15   16 am   BACKBONE|DICT|INTERRES
    26   15   42 1    
    27   16   17 2    
    28   16   18 1    
    29   18   23 ar   
    30   18   19 ar   
    31   19   20 ar   
    32   19   43 1    
    33   20   21 ar   
    34   20   44 1    
    35   21   22 ar   
    36   21   45 1    
    37   22   23 ar   
    38   22   24 1    
    39   23   46 1    
    40   24   25 1    
    41   24   47 1    
    42   25   26 2    
    43   25   27 2    
    44   25   28 1    
    45   28   33 ar   
    46   28   29 ar   
    47   29   30 ar   
    48   29   48 1    
    49   30   31 ar   
    50   30   49 1    
    51   31   32 ar   
    52   31   50 1    
    53   32   33 ar   
    54   32   51 1    
    55   33   52 1    
    56   34   53 1    
    57   34   54 1    
@<TRIPOS>SUBSTRUCTURE
     1 UNK         1 GROUP             0       ****    0 ROOT    
