ZINC33630212_191
                    3D
 Schrodinger Suite 2024-2.
 57 59  0  0  1  0            999 V2000
   -3.0427   53.1966   23.6348 C   0  0  0  0  0  0
   -2.0931   52.1717   24.2100 C   0  0  0  0  0  0
   -2.5239   50.9868   24.4173 N   0  0  0  0  0  0
   -1.5998   50.0238   24.6920 N   0  3  0  0  0  0
   -1.8940   48.8883   25.3223 C   0  0  0  0  0  0
   -0.8958   48.0969   25.6817 N   0  0  0  0  0  0
   -3.5583   48.4273   25.6670 S   0  0  0  0  0  0
   -3.4875   47.0768   26.9006 C   0  0  1  0  0  0
   -2.4681   46.7329   27.0425 H   0  0  0  0  0  0
   -4.0957   47.4548   28.2242 C   0  0  0  0  0  0
   -5.2342   46.4858   28.4225 C   0  0  0  0  0  0
   -5.9807   46.4969   29.4016 O   0  0  0  0  0  0
   -5.2413   45.6090   27.3801 N   0  0  0  0  0  0
   -4.3008   45.8890   26.4363 C   0  0  0  0  0  0
   -4.0956   45.2967   25.3748 O   0  0  0  0  0  0
   -6.1124   44.4972   27.3147 C   0  0  0  0  0  0
   -5.5950   43.1924   27.2798 C   0  0  0  0  0  0
   -6.4557   42.0948   27.2812 C   0  0  0  0  0  0
   -7.8363   42.2880   27.3100 C   0  0  0  0  0  0
   -8.3607   43.5807   27.3310 C   0  0  0  0  0  0
   -7.5036   44.6820   27.3341 C   0  0  0  0  0  0
  -10.0682   43.8193   27.3639 Cl  0  0  0  0  0  0
   -0.7485   52.6507   24.4550 C   0  0  0  0  0  0
   -0.0582   52.4486   25.6012 C   0  0  0  0  0  0
    1.3115   52.9099   25.9075 C   0  0  0  0  0  0
    1.7691   52.8245   27.2250 C   0  0  0  0  0  0
    3.0319   53.2995   27.5687 C   0  0  0  0  0  0
    3.8823   53.8711   26.6077 C   0  0  0  0  0  0
    3.4040   53.9638   25.2900 C   0  0  0  0  0  0
    2.1420   53.4878   24.9418 C   0  0  0  0  0  0
    5.1822   54.3405   26.9575 N   0  0  0  0  0  0
    6.1599   54.6149   25.9026 C   0  0  0  0  0  0
    5.7367   54.0404   28.2805 C   0  0  0  0  0  0
   -2.8972   54.1773   24.0766 H   0  0  0  0  0  0
   -2.8930   53.2820   22.5615 H   0  0  0  0  0  0
   -4.0857   52.9210   23.8015 H   0  0  0  0  0  0
    0.0606   48.3155   25.4414 H   0  0  0  0  0  0
   -1.0393   47.4586   26.4573 H   0  0  0  0  0  0
   -3.3910   47.2960   29.0435 H   0  0  0  0  0  0
   -4.4394   48.4883   28.2785 H   0  0  0  0  0  0
   -4.5251   43.0230   27.2819 H   0  0  0  0  0  0
   -6.0557   41.0919   27.2740 H   0  0  0  0  0  0
   -8.4996   41.4346   27.3239 H   0  0  0  0  0  0
   -7.9230   45.6774   27.3655 H   0  0  0  0  0  0
   -0.3279   53.2206   23.6398 H   0  0  0  0  0  0
   -0.5373   51.8896   26.3958 H   0  0  0  0  0  0
    1.1450   52.3965   27.9976 H   0  0  0  0  0  0
    3.3358   53.2041   28.5984 H   0  0  0  0  0  0
    4.0018   54.4003   24.5067 H   0  0  0  0  0  0
    1.8227   53.5844   23.9149 H   0  0  0  0  0  0
    6.3713   53.7042   25.3421 H   0  0  0  0  0  0
    7.1037   54.9825   26.3058 H   0  0  0  0  0  0
    5.7881   55.3584   25.1978 H   0  0  0  0  0  0
    5.0811   54.3957   29.0763 H   0  0  0  0  0  0
    5.8513   52.9620   28.4055 H   0  0  0  0  0  0
    6.7158   54.4969   28.4336 H   0  0  0  0  0  0
   -0.6325   50.2558   24.5131 H   0  0  0  0  0  0
  1  2  1  0  0  0
  1 34  1  0  0  0
  1 35  1  0  0  0
  1 36  1  0  0  0
  2  3  2  0  0  0
  2 23  1  0  0  0
  3  4  1  0  0  0
  4  5  2  0  0  0
  4 57  1  0  0  0
  5  6  1  0  0  0
  5  7  1  0  0  0
  6 37  1  0  0  0
  6 38  1  0  0  0
  7  8  1  0  0  0
  8  9  1  0  0  0
  8 14  1  0  0  0
  8 10  1  0  0  0
 10 11  1  0  0  0
 10 39  1  0  0  0
 10 40  1  0  0  0
 11 12  2  0  0  0
 11 13  1  0  0  0
 13 14  1  0  0  0
 13 16  1  0  0  0
 14 15  2  0  0  0
 16 21  2  0  0  0
 16 17  1  0  0  0
 17 18  2  0  0  0
 17 41  1  0  0  0
 18 19  1  0  0  0
 18 42  1  0  0  0
 19 20  2  0  0  0
 19 43  1  0  0  0
 20 21  1  0  0  0
 20 22  1  0  0  0
 21 44  1  0  0  0
 23 24  2  0  0  0
 23 45  1  0  0  0
 24 25  1  0  0  0
 24 46  1  0  0  0
 25 30  2  0  0  0
 25 26  1  0  0  0
 26 27  2  0  0  0
 26 47  1  0  0  0
 27 28  1  0  0  0
 27 48  1  0  0  0
 28 29  2  0  0  0
 28 31  1  0  0  0
 29 30  1  0  0  0
 29 49  1  0  0  0
 30 50  1  0  0  0
 31 32  1  0  0  0
 31 33  1  0  0  0
 32 51  1  0  0  0
 32 52  1  0  0  0
 32 53  1  0  0  0
 33 54  1  0  0  0
 33 55  1  0  0  0
 33 56  1  0  0  0
M  CHG  1   4   1
M  END
> <i_i_glide_confnum>
138

> <i_i_glide_lignum>
192

> <i_i_glide_posenum>
325

> <i_i_glide_rotatable_bonds>
7

> <i_m_Source_File_Index>
1240

> <b_m_subgroup_collapsed>
0

> <r_i_docking_score>
-5.66907

> <r_i_glide_ecoul>
-6.77052

> <r_i_glide_eff_state_penalty>
0

> <r_i_glide_einternal>
9.97699

> <r_i_glide_emodel>
-51.0183

> <r_i_glide_energy>
-39.9348

> <r_i_glide_erotb>
0.546598

> <r_i_glide_esite>
-0.349872

> <r_i_glide_evdw>
-33.1643

> <r_i_glide_gscore>
-5.66907

> <r_i_glide_hbond>
-0.316982

> <r_i_glide_ligand_efficiency>
-0.177159

> <r_i_glide_ligand_efficiency_ln>
-1.26946

> <r_i_glide_ligand_efficiency_sa>
-0.562443

> <r_i_glide_lipo>
-2.2278

> <r_i_glide_metal>
0

> <r_i_glide_rewards>
-0.647225

> <s_i_glide_gridfile>
wee1_glide-grid

> <s_m_Source_File>
wee1_decoys_glide_SP.sdf

> <s_m_Source_Path>
/Users/zhangxujun/Desktop

> <s_m_entry_id>
1515

> <s_m_entry_name>
wee1_decoys_glide_SP.1240

> <s_m_subgroup_title>
wee1_decoys_glide_SP

> <s_m_subgroupid>
wee1_decoys_glide_SP


$$$$
