@<TRIPOS>MOLECULE
ZINC13243388_5884
57   60    1
SMALL
USER_CHARGES


@<TRIPOS>ATOM
      1 C1          0.7788   53.3967   31.7087 C.3       1 UNK         0.0000 
      2 C2          0.8886   53.3160   30.2000 C.ar      1 UNK         0.0000 
      3 C3          1.3328   54.4138   29.4649 C.ar      1 UNK         0.0000 
      4 C4          1.4713   54.3032   28.0823 C.ar      1 UNK         0.0000 
      5 C5          1.1884   53.0888   27.4423 C.ar      1 UNK         0.0000 
      6 C6          0.7408   51.9996   28.1881 C.ar      1 UNK         0.0000 
      7 C7          0.5571   52.1266   29.5576 C.ar      1 UNK         0.0000 
      8 N8          1.3364   52.9547   26.0397 N.pl3     1 UNK         0.0000 
      9 C9          2.4115   53.2961   25.2235 C.ar      1 UNK         0.0000 
     10 N10         2.1078   53.0629   23.9659 N.2       1 UNK         0.0000 
     11 N11         0.8212   52.5522   23.9186 N.2       1 UNK         0.0000 
     12 C12         0.3745   52.4985   25.1445 C.ar      1 UNK         0.0000 
     13 S13        -1.3033   52.0918   25.5262 S.3       1 UNK         0.0000 
     14 C14        -1.1471   50.2877   25.7419 C.3       1 UNK         0.0000 
     15 C15        -2.2873   49.4685   25.1263 C.2       1 UNK         0.0000 
     16 O16        -2.9743   49.9242   24.2066 O.2       1 UNK         0.0000 
     17 N17        -2.4849   48.2568   25.6817 N.am      1 UNK         0.0000 
     18 C18        -3.5669   47.4123   25.3680 C.ar      1 UNK         0.0000 
     19 C19        -4.6406   47.4027   26.2862 C.ar      1 UNK         0.0000 
     20 C20        -5.7625   46.6098   26.0405 C.ar      1 UNK         0.0000 
     21 C21        -5.8291   45.8194   24.9029 C.ar      1 UNK         0.0000 
     22 C22        -4.7637   45.7994   24.0101 C.ar      1 UNK         0.0000 
     23 C23        -3.6017   46.5675   24.2182 C.ar      1 UNK         0.0000 
     24 C24        -2.4629   46.4009   23.2356 C.2       1 UNK         0.0000 
     25 O25        -1.5099   47.2106   23.2357 O.co2     1 UNK         0.0000 
     26 C26        -4.6282   48.2484   27.5577 C.3       1 UNK         0.0000 
     27 C27         3.7595   53.8461   25.6316 C.ar      1 UNK         0.0000 
     28 C28         4.5620   54.4969   24.6814 C.ar      1 UNK         0.0000 
     29 C29         5.8113   55.0168   25.0256 C.ar      1 UNK         0.0000 
     30 C30         6.2771   54.8956   26.3318 C.ar      1 UNK         0.0000 
     31 C31         5.5096   54.2348   27.2866 C.ar      1 UNK         0.0000 
     32 C32         4.2738   53.6960   26.9268 C.ar      1 UNK         0.0000 
     33 C33         6.0187   54.0805   28.7026 C.3       1 UNK         0.0000 
     34 H34         0.7017   54.4262   32.0601 H         1 UNK         0.0000 
     35 H35        -0.0969   52.8760   32.0683 H         1 UNK         0.0000 
     36 H36         1.6289   52.8961   32.1682 H         1 UNK         0.0000 
     37 H37         1.5808   55.3454   29.9544 H         1 UNK         0.0000 
     38 H38         1.8235   55.1560   27.5275 H         1 UNK         0.0000 
     39 H39         0.5428   51.0488   27.7232 H         1 UNK         0.0000 
     40 H40         0.1632   51.2967   30.1147 H         1 UNK         0.0000 
     41 H41        -1.1257   50.0908   26.8128 H         1 UNK         0.0000 
     42 H42        -0.2093   49.9294   25.3132 H         1 UNK         0.0000 
     43 H43        -2.0239   48.0861   26.5746 H         1 UNK         0.0000 
     44 H44        -6.5920   46.6035   26.7328 H         1 UNK         0.0000 
     45 H45        -6.7042   45.2127   24.7159 H         1 UNK         0.0000 
     46 H46        -4.8550   45.1626   23.1410 H         1 UNK         0.0000 
     47 H47        -4.3783   49.2844   27.3287 H         1 UNK         0.0000 
     48 H48        -5.5967   48.2561   28.0618 H         1 UNK         0.0000 
     49 H49        -3.8753   47.8732   28.2524 H         1 UNK         0.0000 
     50 H50         4.2151   54.6125   23.6639 H         1 UNK         0.0000 
     51 H51         6.4127   55.5193   24.2819 H         1 UNK         0.0000 
     52 H52         7.2319   55.3101   26.6108 H         1 UNK         0.0000 
     53 H53         3.7336   53.1338   27.6699 H         1 UNK         0.0000 
     54 H54         7.1094   54.0952   28.7381 H         1 UNK         0.0000 
     55 H55         5.6367   54.8814   29.3370 H         1 UNK         0.0000 
     56 H56         5.6998   53.1221   29.1115 H         1 UNK         0.0000 
     57 O57        -2.4959   45.3905   22.4882 O.co2     1 UNK         0.0000 
@<TRIPOS>BOND
     1    1    2 1    
     2    1   34 1    
     3    1   35 1    
     4    1   36 1    
     5    2    7 ar   
     6    2    3 ar   
     7    3    4 ar   
     8    3   37 1    
     9    4    5 ar   
    10    4   38 1    
    11    5    6 ar   
    12    5    8 1    
    13    6    7 ar   
    14    6   39 1    
    15    7   40 1    
    16    8   12 ar   
    17    8    9 ar   
    18    9   10 ar   
    19    9   27 1    
    20   10   11 ar   
    21   11   12 ar   
    22   12   13 1    
    23   13   14 1    
    24   14   15 1    
    25   14   41 1    
    26   14   42 1    
    27   15   16 2    
    28   15   17 am   BACKBONE|DICT|INTERRES
    29   17   18 1    
    30   17   43 1    
    31   18   23 ar   
    32   18   19 ar   
    33   19   20 ar   
    34   19   26 1    
    35   20   21 ar   
    36   20   44 1    
    37   21   22 ar   
    38   21   45 1    
    39   22   23 ar   
    40   22   46 1    
    41   23   24 1    
    42   24   25 2    
    43   24   57 1    
    44   26   47 1    
    45   26   48 1    
    46   26   49 1    
    47   27   32 ar   
    48   27   28 ar   
    49   28   29 ar   
    50   28   50 1    
    51   29   30 ar   
    52   29   51 1    
    53   30   31 ar   
    54   30   52 1    
    55   31   32 ar   
    56   31   33 1    
    57   32   53 1    
    58   33   54 1    
    59   33   55 1    
    60   33   56 1    
@<TRIPOS>SUBSTRUCTURE
     1 UNK         1 GROUP             0       ****    0 ROOT    
