@<TRIPOS>MOLECULE
ZINC65021432_3346
55   58    1
SMALL
USER_CHARGES


@<TRIPOS>ATOM
      1 C1         -0.0601   52.1824   30.0174 C.3       1 UNK         0.0000 
      2 C2          1.3322   52.6443   30.4581 C.3       1 UNK         0.0000 
      3 O3          2.1018   52.9552   29.3039 O.3       1 UNK         0.0000 
      4 C4          3.3577   53.4625   29.4047 C.2       1 UNK         0.0000 
      5 O5          3.9043   53.6965   30.4816 O.2       1 UNK         0.0000 
      6 C6          3.9751   53.7806   28.0794 C.ar      1 UNK         0.0000 
      7 C7          5.1393   54.5524   27.9880 C.ar      1 UNK         0.0000 
      8 C8          5.6625   54.8964   26.7362 C.ar      1 UNK         0.0000 
      9 C9          5.0938   54.4398   25.5410 C.ar      1 UNK         0.0000 
     10 C10         3.9842   53.6017   25.6769 C.ar      1 UNK         0.0000 
     11 C11         3.4112   53.2982   26.9012 C.ar      1 UNK         0.0000 
     12 N12         5.6352   54.8871   24.3519 N.2       1 UNK         0.0000 
     13 S13         5.6290   54.1988   22.9160 S.o2      1 UNK         0.0000 
     14 O14         6.3041   52.9001   22.8817 O.2       1 UNK         0.0000 
     15 O15         5.9891   55.1386   21.8494 O.2       1 UNK         0.0000 
     16 C16         3.9232   53.7675   22.5175 C.ar      1 UNK         0.0000 
     17 C17         2.8138   54.4376   23.0394 C.ar      1 UNK         0.0000 
     18 C18         1.5382   53.8989   22.8818 C.ar      1 UNK         0.0000 
     19 C19         1.3511   52.7501   22.1071 C.ar      1 UNK         0.0000 
     20 C20         2.4486   52.1413   21.4847 C.ar      1 UNK         0.0000 
     21 C21         3.7238   52.6662   21.6779 C.ar      1 UNK         0.0000 
     22 N22         2.3240   50.9703   20.7293 N.am      1 UNK         0.0000 
     23 C23         1.3608   50.0275   20.7531 C.2       1 UNK         0.0000 
     24 O24         1.4448   49.0087   20.0718 O.2       1 UNK         0.0000 
     25 C25         0.1610   50.3174   21.6943 C.3       1 UNK         0.0000 
     26 H26        -0.6920   49.8039   21.2601 H         1 UNK         0.0000 
     27 S27        -0.2714   52.0967   21.8423 S.3       1 UNK         0.0000 
     28 C28         0.4301   49.7794   23.1264 C.2       1 UNK         0.0000 
     29 O29         1.5009   50.0441   23.6816 O.2       1 UNK         0.0000 
     30 N30        -0.5258   49.0430   23.7483 N.am      1 UNK         0.0000 
     31 C31        -1.8362   48.6941   23.1791 C.3       1 UNK         0.0000 
     32 C32        -2.5733   48.0606   24.3566 C.3       1 UNK         0.0000 
     33 C33        -1.4648   47.4724   25.2053 C.3       1 UNK         0.0000 
     34 C34        -0.3424   48.5037   25.1017 C.3       1 UNK         0.0000 
     35 H35        -0.6735   51.9246   30.8817 H         1 UNK         0.0000 
     36 H36        -0.5763   52.9638   29.4603 H         1 UNK         0.0000 
     37 H37        -0.0015   51.2984   29.3808 H         1 UNK         0.0000 
     38 H38         1.8226   51.8601   31.0375 H         1 UNK         0.0000 
     39 H39         1.2417   53.5222   31.1011 H         1 UNK         0.0000 
     40 H40         5.6240   54.9322   28.8773 H         1 UNK         0.0000 
     41 H41         6.5314   55.5359   26.7005 H         1 UNK         0.0000 
     42 H42         3.5431   53.0848   24.8515 H         1 UNK         0.0000 
     43 H43         2.5463   52.6493   26.9094 H         1 UNK         0.0000 
     44 H44         2.9527   55.2965   23.6755 H         1 UNK         0.0000 
     45 H45         0.7004   54.3831   23.3560 H         1 UNK         0.0000 
     46 H46         4.5771   52.1673   21.2386 H         1 UNK         0.0000 
     47 H47         3.1018   50.6985   20.1445 H         1 UNK         0.0000 
     48 H48        -1.7140   47.9539   22.3866 H         1 UNK         0.0000 
     49 H49        -2.3830   49.5685   22.8228 H         1 UNK         0.0000 
     50 H50        -3.3198   47.3304   24.0426 H         1 UNK         0.0000 
     51 H51        -3.0964   48.8319   24.9252 H         1 UNK         0.0000 
     52 H52        -1.7565   47.2870   26.2396 H         1 UNK         0.0000 
     53 H53        -1.1327   46.5211   24.7876 H         1 UNK         0.0000 
     54 H54        -0.4991   49.2910   25.8409 H         1 UNK         0.0000 
     55 H55         0.6358   48.0388   25.2434 H         1 UNK         0.0000 
@<TRIPOS>BOND
     1    1    2 1    
     2    1   35 1    
     3    1   36 1    
     4    1   37 1    
     5    2    3 1    
     6    2   38 1    
     7    2   39 1    
     8    3    4 1    
     9    4    5 2    
    10    4    6 1    
    11    6   11 ar   
    12    6    7 ar   
    13    7    8 ar   
    14    7   40 1    
    15    8    9 ar   
    16    8   41 1    
    17    9   10 ar   
    18    9   12 1    
    19   10   11 ar   
    20   10   42 1    
    21   11   43 1    
    22   12   13 1    
    23   13   14 2    
    24   13   15 2    
    25   13   16 1    
    26   16   21 ar   
    27   16   17 ar   
    28   17   18 ar   
    29   17   44 1    
    30   18   19 ar   
    31   18   45 1    
    32   19   27 1    
    33   19   20 ar   
    34   20   21 ar   
    35   20   22 1    
    36   21   46 1    
    37   22   23 am   BACKBONE|DICT|INTERRES
    38   22   47 1    
    39   23   24 2    
    40   23   25 1    
    41   25   26 1    
    42   25   27 1    
    43   25   28 1    
    44   28   29 2    
    45   28   30 am   BACKBONE|DICT|INTERRES
    46   30   34 1    
    47   30   31 1    
    48   31   32 1    
    49   31   48 1    
    50   31   49 1    
    51   32   33 1    
    52   32   50 1    
    53   32   51 1    
    54   33   34 1    
    55   33   52 1    
    56   33   53 1    
    57   34   54 1    
    58   34   55 1    
@<TRIPOS>SUBSTRUCTURE
     1 UNK         1 GROUP             0       ****    0 ROOT    
