@<TRIPOS>MOLECULE
ZINC63097159_144
57   61    1
SMALL
USER_CHARGES


@<TRIPOS>ATOM
      1 C1          0.2406   49.5291   25.0949 C.3       1 UNK         0.0000 
      2 C2         -0.5007   50.7257   25.7217 C.3       1 UNK         0.0000 
      3 H3         -1.4681   50.8726   25.2371 H         1 UNK         0.0000 
      4 C4          0.3003   52.0214   25.7699 C.2       1 UNK         0.0000 
      5 C5          0.4112   52.3840   27.0617 C.2       1 UNK         0.0000 
      6 C6          1.1040   53.5239   27.6869 C.2       1 UNK         0.0000 
      7 C7          1.0476   53.7170   29.0205 C.2       1 UNK         0.0000 
      8 C8          0.2887   52.7640   29.8198 C.2       1 UNK         0.0000 
      9 C9         -0.3371   51.6967   29.2579 C.2       1 UNK         0.0000 
     10 C10        -0.2732   51.4779   27.8733 C.2       1 UNK         0.0000 
     11 N11        -0.7723   50.4967   27.1526 N.pl3     1 UNK         0.0000 
     12 C12         0.7857   52.7350   24.5195 C.3       1 UNK         0.0000 
     13 C13         2.2421   52.4081   24.1819 C.3       1 UNK         0.0000 
     14 N14         2.8336   53.3503   23.2395 N.pl3     1 UNK         0.0000 
     15 C15         4.0715   53.9699   23.3130 C.2       1 UNK         0.0000 
     16 C16         4.8438   54.2348   22.2195 C.2       1 UNK         0.0000 
     17 C17         6.1111   54.8966   22.0803 C.2       1 UNK         0.0000 
     18 N18         6.4078   55.0172   20.8616 N.2       1 UNK         0.0000 
     19 N19         5.4795   54.4042   20.1291 N.am      1 UNK         0.0000 
     20 C20         4.4846   53.8730   20.8678 C.2       1 UNK         0.0000 
     21 O21         3.5000   53.2403   20.4841 O.2       1 UNK         0.0000 
     22 C22         5.5744   54.4606   18.6568 C.3       1 UNK         0.0000 
     23 H23         6.6142   54.5833   18.3477 H         1 UNK         0.0000 
     24 N24         5.0579   53.2967   17.9430 N.pl3     1 UNK         0.0000 
     25 C25         3.8133   53.4877   17.3479 C.ar      1 UNK         0.0000 
     26 C26         2.9711   52.4962   16.8456 C.ar      1 UNK         0.0000 
     27 C27         1.7594   52.8580   16.2517 C.ar      1 UNK         0.0000 
     28 C28         1.4008   54.2054   16.1536 C.ar      1 UNK         0.0000 
     29 C29         2.2518   55.1953   16.6506 C.ar      1 UNK         0.0000 
     30 C30         3.4571   54.8281   17.2503 C.ar      1 UNK         0.0000 
     31 S31         4.6917   55.8792   17.9284 S.3       1 UNK         0.0000 
     32 C32         6.9977   55.4270   23.1853 C.3       1 UNK         0.0000 
     33 C33         4.4448   54.3516   24.7464 C.3       1 UNK         0.0000 
     34 H34         0.4951   49.7156   24.0515 H         1 UNK         0.0000 
     35 H35         1.1628   49.2958   25.6264 H         1 UNK         0.0000 
     36 H36        -0.3730   48.6277   25.1269 H         1 UNK         0.0000 
     37 H37         1.6691   54.2321   27.0981 H         1 UNK         0.0000 
     38 H38         1.5485   54.5541   29.4847 H         1 UNK         0.0000 
     39 H39         0.2140   52.9076   30.8900 H         1 UNK         0.0000 
     40 H40        -0.8938   51.0225   29.8986 H         1 UNK         0.0000 
     41 H41         0.7020   53.8067   24.7013 H         1 UNK         0.0000 
     42 H42         0.1251   52.5176   23.6793 H         1 UNK         0.0000 
     43 H43         2.3053   51.3957   23.7814 H         1 UNK         0.0000 
     44 H44         2.8069   52.4276   25.1128 H         1 UNK         0.0000 
     45 H45         2.4925   53.2078   22.2938 H         1 UNK         0.0000 
     46 H46         5.4979   52.3906   18.0807 H         1 UNK         0.0000 
     47 H47         3.2465   51.4513   16.9093 H         1 UNK         0.0000 
     48 H48         1.1036   52.0934   15.8629 H         1 UNK         0.0000 
     49 H49         0.4652   54.4793   15.6895 H         1 UNK         0.0000 
     50 H50         1.9705   56.2347   16.5679 H         1 UNK         0.0000 
     51 H51         7.2862   54.6340   23.8751 H         1 UNK         0.0000 
     52 H52         7.9042   55.8607   22.7655 H         1 UNK         0.0000 
     53 H53         6.5240   56.2279   23.7450 H         1 UNK         0.0000 
     54 H54         4.9603   55.3017   24.8061 H         1 UNK         0.0000 
     55 H55         3.5667   54.4818   25.3793 H         1 UNK         0.0000 
     56 H56         5.0755   53.5817   25.1905 H         1 UNK         0.0000 
     57 H57        -1.2623   49.6631   27.5315 H         1 UNK         0.0000 
@<TRIPOS>BOND
     1    1    2 1    
     2    1   34 1    
     3    1   35 1    
     4    1   36 1    
     5    2    3 1    
     6    2   11 1    
     7    2    4 1    
     8    4    5 2    
     9    4   12 1    
    10    5   10 1    
    11    5    6 1    
    12    6    7 2    
    13    6   37 1    
    14    7    8 1    
    15    7   38 1    
    16    8    9 2    
    17    8   39 1    
    18    9   10 1    
    19    9   40 1    
    20   10   11 2    
    21   11   57 1    
    22   12   13 1    
    23   12   41 1    
    24   12   42 1    
    25   13   14 1    
    26   13   43 1    
    27   13   44 1    
    28   14   15 1    
    29   14   45 1    
    30   15   16 2    
    31   15   33 1    
    32   16   20 1    
    33   16   17 1    
    34   17   18 2    
    35   17   32 1    
    36   18   19 1    
    37   19   20 am   BACKBONE|DICT|INTERRES
    38   19   22 1    
    39   20   21 2    
    40   22   23 1    
    41   22   31 1    
    42   22   24 1    
    43   24   25 1    
    44   24   46 1    
    45   25   30 ar   
    46   25   26 ar   
    47   26   27 ar   
    48   26   47 1    
    49   27   28 ar   
    50   27   48 1    
    51   28   29 ar   
    52   28   49 1    
    53   29   30 ar   
    54   29   50 1    
    55   30   31 1    
    56   32   51 1    
    57   32   52 1    
    58   32   53 1    
    59   33   54 1    
    60   33   55 1    
    61   33   56 1    
@<TRIPOS>SUBSTRUCTURE
     1 UNK         1 GROUP             0       ****    0 ROOT    
