@<TRIPOS>MOLECULE
ZINC61099044_1659
28   29    1
SMALL
USER_CHARGES


@<TRIPOS>ATOM
      1 C1         -0.3520   50.6584   26.0577 C.3       1 UNK         0.0000 
      2 N2         -0.0368   51.5129   27.1867 N.pl3     1 UNK         0.0000 
      3 C3          0.8185   52.5762   27.2398 C.ar      1 UNK         0.0000 
      4 C4          0.7571   53.0433   28.5496 C.ar      1 UNK         0.0000 
      5 C5         -0.1311   52.1664   29.1808 C.ar      1 UNK         0.0000 
      6 N6         -0.6431   51.2967   28.3509 N.2       1 UNK         0.0000 
      7 N7         -0.4956   52.1290   30.4817 N.pl3     1 UNK         0.0000 
      8 S8          1.6110   54.4536   29.3135 S.o2      1 UNK         0.0000 
      9 O9          1.2372   55.5987   28.4817 O.2       1 UNK         0.0000 
     10 O10         1.1044   54.4674   30.6886 O.2       1 UNK         0.0000 
     11 N11         3.1346   54.0887   29.2475 N.2       1 UNK         0.0000 
     12 C12         3.9252   54.2371   28.1351 C.ar      1 UNK         0.0000 
     13 C13         3.4738   54.4967   26.8323 C.ar      1 UNK         0.0000 
     14 C14         4.3459   54.5971   25.7512 C.ar      1 UNK         0.0000 
     15 C15         5.7160   54.4741   25.9552 C.ar      1 UNK         0.0000 
     16 C16         6.1866   54.2218   27.2393 C.ar      1 UNK         0.0000 
     17 C17         5.3020   54.0967   28.3045 C.ar      1 UNK         0.0000 
     18 F18         7.5044   54.0967   27.4629 F         1 UNK         0.0000 
     19 F19         6.5813   54.5958   24.9209 F         1 UNK         0.0000 
     20 F20         3.8527   54.8142   24.5117 F         1 UNK         0.0000 
     21 H21         0.3282   50.8627   25.2306 H         1 UNK         0.0000 
     22 H22        -1.3782   50.8443   25.7407 H         1 UNK         0.0000 
     23 H23        -0.2502   49.6128   26.3554 H         1 UNK         0.0000 
     24 H24         1.3583   52.8749   26.3570 H         1 UNK         0.0000 
     25 H25        -0.1128   52.7925   31.1441 H         1 UNK         0.0000 
     26 H26        -1.1174   51.4201   30.8500 H         1 UNK         0.0000 
     27 H27         2.4288   54.6279   26.6337 H         1 UNK         0.0000 
     28 H28         5.7059   53.8985   29.2817 H         1 UNK         0.0000 
@<TRIPOS>BOND
     1    1    2 1    
     2    1   21 1    
     3    1   22 1    
     4    1   23 1    
     5    2    6 ar   
     6    2    3 ar   
     7    3    4 ar   
     8    3   24 1    
     9    4    5 ar   
    10    4    8 1    
    11    5    6 ar   
    12    5    7 1    
    13    7   25 1    
    14    7   26 1    
    15    8    9 2    
    16    8   10 2    
    17    8   11 1    
    18   11   12 1    
    19   12   17 ar   
    20   12   13 ar   
    21   13   14 ar   
    22   13   27 1    
    23   14   15 ar   
    24   14   20 1    
    25   15   16 ar   
    26   15   19 1    
    27   16   17 ar   
    28   16   18 1    
    29   17   28 1    
@<TRIPOS>SUBSTRUCTURE
     1 UNK         1 GROUP             0       ****    0 ROOT    
