@<TRIPOS>MOLECULE
ZINC54382984_4596
51   52    1
SMALL
USER_CHARGES


@<TRIPOS>ATOM
      1 C1         -1.1446   51.5419   29.6789 C.3       1 UNK         0.0000 
      2 C2          0.0463   51.4673   28.7125 C.3       1 UNK         0.0000 
      3 H3          0.5746   50.5478   28.9562 H         1 UNK         0.0000 
      4 C4         -0.4062   51.3796   27.2517 C.ar      1 UNK         0.0000 
      5 C5         -1.1512   52.4217   26.6930 C.ar      1 UNK         0.0000 
      6 C6         -1.5907   52.3458   25.3765 C.ar      1 UNK         0.0000 
      7 C7         -1.2828   51.2225   24.6066 C.ar      1 UNK         0.0000 
      8 C8         -0.5261   50.1826   25.1508 C.ar      1 UNK         0.0000 
      9 C9         -0.0903   50.2620   26.4704 C.ar      1 UNK         0.0000 
     10 S10        -1.8896   51.1226   22.9276 S.o2      1 UNK         0.0000 
     11 O11        -2.0953   52.4963   22.4556 O.2       1 UNK         0.0000 
     12 O12        -1.0263   50.1901   22.1968 O.2       1 UNK         0.0000 
     13 N13        -3.4707   50.3659   23.0788 N.pl3     1 UNK         0.0000 
     14 C14        -4.5221   51.0514   23.8583 C.3       1 UNK         0.0000 
     15 N15         0.9367   52.6100   28.9115 N.am      1 UNK         0.0000 
     16 C16         2.2625   52.5555   28.7509 C.2       1 UNK         0.0000 
     17 O17         2.9713   51.6977   29.2831 O.2       1 UNK         0.0000 
     18 N18         2.6870   53.5243   27.9197 N.am      1 UNK         0.0000 
     19 C19         4.0081   53.7548   27.5169 C.ar      1 UNK         0.0000 
     20 C20         5.0851   53.6705   28.4077 C.ar      1 UNK         0.0000 
     21 C21         6.3769   53.9390   27.9645 C.ar      1 UNK         0.0000 
     22 C22         6.5967   54.2903   26.6345 C.ar      1 UNK         0.0000 
     23 C23         5.5328   54.3721   25.7300 C.ar      1 UNK         0.0000 
     24 C24         4.2339   54.1161   26.1855 C.ar      1 UNK         0.0000 
     25 C25         5.7815   54.7464   24.2650 C.3       1 UNK         0.0000 
     26 C26         6.5519   56.0646   24.1264 C.3       1 UNK         0.0000 
     27 C27         6.4924   53.6398   23.4704 C.3       1 UNK         0.0000 
     28 H28        -1.8832   50.7676   29.4704 H         1 UNK         0.0000 
     29 H29        -0.8337   51.4238   30.7197 H         1 UNK         0.0000 
     30 H30        -1.6478   52.4965   29.6008 H         1 UNK         0.0000 
     31 H31        -1.3839   53.2946   27.2812 H         1 UNK         0.0000 
     32 H32        -2.1702   53.1558   24.9584 H         1 UNK         0.0000 
     33 H33        -0.2865   49.3076   24.5647 H         1 UNK         0.0000 
     34 H34         0.4757   49.4405   26.8825 H         1 UNK         0.0000 
     35 H35        -3.4504   49.3454   23.1581 H         1 UNK         0.0000 
     36 H36        -5.5008   50.6509   23.5863 H         1 UNK         0.0000 
     37 H37        -4.3651   50.8606   24.9210 H         1 UNK         0.0000 
     38 H38        -4.4957   52.1276   23.6803 H         1 UNK         0.0000 
     39 H39         0.4915   53.5134   28.8715 H         1 UNK         0.0000 
     40 H40         1.9810   54.0195   27.3990 H         1 UNK         0.0000 
     41 H41         4.9250   53.4052   29.4408 H         1 UNK         0.0000 
     42 H42         7.2067   53.8848   28.6558 H         1 UNK         0.0000 
     43 H43         7.5982   54.4957   26.3077 H         1 UNK         0.0000 
     44 H44         3.4038   54.1861   25.4981 H         1 UNK         0.0000 
     45 H45         4.8122   54.8968   23.7880 H         1 UNK         0.0000 
     46 H46         5.9659   56.8954   24.5127 H         1 UNK         0.0000 
     47 H47         6.7490   56.2575   23.0711 H         1 UNK         0.0000 
     48 H48         7.5117   56.0501   24.6357 H         1 UNK         0.0000 
     49 H49         5.8378   52.7861   23.3057 H         1 UNK         0.0000 
     50 H50         6.7758   53.9981   22.4819 H         1 UNK         0.0000 
     51 H51         7.4035   53.2990   23.9650 H         1 UNK         0.0000 
@<TRIPOS>BOND
     1    1    2 1    
     2    1   28 1    
     3    1   29 1    
     4    1   30 1    
     5    2    3 1    
     6    2    4 1    
     7    2   15 1    
     8    4    9 ar   
     9    4    5 ar   
    10    5    6 ar   
    11    5   31 1    
    12    6    7 ar   
    13    6   32 1    
    14    7    8 ar   
    15    7   10 1    
    16    8    9 ar   
    17    8   33 1    
    18    9   34 1    
    19   10   11 2    
    20   10   12 2    
    21   10   13 1    
    22   13   14 1    
    23   13   35 1    
    24   14   36 1    
    25   14   37 1    
    26   14   38 1    
    27   15   16 am   BACKBONE|DICT|INTERRES
    28   15   39 1    
    29   16   17 2    
    30   16   18 am   BACKBONE|DICT|INTERRES
    31   18   19 1    
    32   18   40 1    
    33   19   24 ar   
    34   19   20 ar   
    35   20   21 ar   
    36   20   41 1    
    37   21   22 ar   
    38   21   42 1    
    39   22   23 ar   
    40   22   43 1    
    41   23   24 ar   
    42   23   25 1    
    43   24   44 1    
    44   25   26 1    
    45   25   27 1    
    46   25   45 1    
    47   26   46 1    
    48   26   47 1    
    49   26   48 1    
    50   27   49 1    
    51   27   50 1    
    52   27   51 1    
@<TRIPOS>SUBSTRUCTURE
     1 UNK         1 GROUP             0       ****    0 ROOT    
