ZINC66831999_1561
                    3D
 Schrodinger Suite 2024-2.
 53 56  0  0  1  0            999 V2000
    5.5394   54.0157   25.8395 C   0  0  0  0  0  0
    4.3048   54.0420   24.9442 C   0  0  0  0  0  0
    4.1388   54.0967   23.5490 C   0  0  0  0  0  0
    2.8441   54.0955   23.2598 N   0  0  0  0  0  0
    2.1279   53.9984   24.4269 N   0  0  0  0  0  0
    3.0127   53.9519   25.4305 N   0  0  0  0  0  0
    2.5524   53.8421   26.7595 C   0  0  0  0  0  0
    3.1164   54.6367   27.7596 C   0  0  0  0  0  0
    2.6260   54.6134   29.0581 C   0  0  0  0  0  0
    1.5597   53.7534   29.3913 C   0  0  0  0  0  0
    0.9974   52.9078   28.3859 C   0  0  0  0  0  0
    1.5041   52.9689   27.0683 C   0  0  0  0  0  0
   -0.0593   52.0405   28.7613 C   0  0  0  0  0  0
   -0.4959   52.0399   30.0822 C   0  0  0  0  0  0
    0.1121   52.8972   30.9961 C   0  0  0  0  0  0
    1.1057   53.7501   30.6719 N   0  0  0  0  0  0
    5.1987   54.0967   22.5691 C   0  0  0  0  0  0
    6.3517   53.7980   22.8809 O   0  0  0  0  0  0
    4.8232   54.4267   21.3176 N   0  0  0  0  0  0
    5.6842   54.4605   20.1345 C   0  0  2  0  0  0
    6.9962   55.2947   20.2593 C   0  0  0  0  0  0
    7.8294   55.3388   18.9597 C   0  0  0  0  0  0
    7.0124   55.7197   17.7008 C   0  0  1  0  0  0
    5.8226   54.7324   17.5704 C   0  0  0  0  0  0
    4.9062   54.6994   18.8162 C   0  0  0  0  0  0
    6.5106   57.1892   17.7159 C   0  0  0  0  0  0
    6.8871   57.9826   18.5820 O   0  0  0  0  0  0
    5.7418   57.5616   16.6792 N   0  0  0  0  0  0
    5.1907   58.8965   16.5041 C   0  0  0  0  0  0
    6.4285   53.6450   25.3319 H   0  0  0  0  0  0
    5.7879   55.0110   26.2101 H   0  0  0  0  0  0
    5.4064   53.3629   26.7039 H   0  0  0  0  0  0
    3.9345   55.2967   27.5292 H   0  0  0  0  0  0
    3.0589   55.2534   29.8127 H   0  0  0  0  0  0
    1.0631   52.3405   26.3081 H   0  0  0  0  0  0
   -0.5048   51.3748   28.0351 H   0  0  0  0  0  0
   -1.2801   51.3672   30.4047 H   0  0  0  0  0  0
   -0.1891   52.9007   32.0335 H   0  0  0  0  0  0
    3.8824   54.7707   21.1898 H   0  0  0  0  0  0
    6.0245   53.4321   20.0108 H   0  0  0  0  0  0
    7.6375   54.9002   21.0476 H   0  0  0  0  0  0
    6.7384   56.3148   20.5441 H   0  0  0  0  0  0
    8.2642   54.3528   18.7838 H   0  0  0  0  0  0
    8.7274   55.9536   19.0442 H   0  0  0  0  0  0
    7.6029   55.6457   16.7864 H   0  0  0  0  0  0
    5.2702   54.8847   16.6419 H   0  0  0  0  0  0
    6.2349   53.7353   17.4021 H   0  0  0  0  0  0
    4.1449   53.9288   18.6826 H   0  0  0  0  0  0
    4.3827   55.6548   18.8817 H   0  0  0  0  0  0
    5.5195   56.8813   15.9676 H   0  0  0  0  0  0
    4.3360   58.8730   15.8285 H   0  0  0  0  0  0
    5.9346   59.5781   16.0896 H   0  0  0  0  0  0
    4.8463   59.2970   17.4553 H   0  0  0  0  0  0
  1  2  1  0  0  0
  1 30  1  0  0  0
  1 31  1  0  0  0
  1 32  1  0  0  0
  2  6  1  0  0  0
  2  3  2  0  0  0
  3  4  1  0  0  0
  3 17  1  0  0  0
  4  5  2  0  0  0
  5  6  1  0  0  0
  6  7  1  0  0  0
  7 12  2  0  0  0
  7  8  1  0  0  0
  8  9  2  0  0  0
  8 33  1  0  0  0
  9 10  1  0  0  0
  9 34  1  0  0  0
 10 16  2  0  0  0
 10 11  1  0  0  0
 11 12  1  0  0  0
 11 13  2  0  0  0
 12 35  1  0  0  0
 13 14  1  0  0  0
 13 36  1  0  0  0
 14 15  2  0  0  0
 14 37  1  0  0  0
 15 16  1  0  0  0
 15 38  1  0  0  0
 17 18  2  0  0  0
 17 19  1  0  0  0
 19 20  1  0  0  0
 19 39  1  0  0  0
 20 25  1  0  0  0
 20 21  1  0  0  0
 20 40  1  0  0  0
 21 22  1  0  0  0
 21 41  1  0  0  0
 21 42  1  0  0  0
 22 23  1  0  0  0
 22 43  1  0  0  0
 22 44  1  0  0  0
 23 24  1  0  0  0
 23 26  1  0  0  0
 23 45  1  0  0  0
 24 25  1  0  0  0
 24 46  1  0  0  0
 24 47  1  0  0  0
 25 48  1  0  0  0
 25 49  1  0  0  0
 26 27  2  0  0  0
 26 28  1  0  0  0
 28 29  1  0  0  0
 28 50  1  0  0  0
 29 51  1  0  0  0
 29 52  1  0  0  0
 29 53  1  0  0  0
M  END
> <i_i_glide_confnum>
239

> <i_i_glide_lignum>
1562

> <i_i_glide_posenum>
388

> <i_i_glide_rotatable_bonds>
6

> <i_m_Source_File_Index>
1908

> <b_m_subgroup_collapsed>
0

> <r_i_docking_score>
-5.78609

> <r_i_glide_ecoul>
-5.03511

> <r_i_glide_eff_state_penalty>
0

> <r_i_glide_einternal>
4.55113

> <r_i_glide_emodel>
-61.8712

> <r_i_glide_energy>
-45.9275

> <r_i_glide_erotb>
0.633842

> <r_i_glide_esite>
-0.0242368

> <r_i_glide_evdw>
-40.8924

> <r_i_glide_gscore>
-5.78609

> <r_i_glide_hbond>
-0.03639

> <r_i_glide_ligand_efficiency>
-0.19952

> <r_i_glide_ligand_efficiency_ln>
-1.32487

> <r_i_glide_ligand_efficiency_sa>
-0.612989

> <r_i_glide_lipo>
-2.20212

> <r_i_glide_metal>
0

> <r_i_glide_rewards>
-1.35729

> <s_i_glide_gridfile>
wee1_glide-grid

> <s_m_Source_File>
wee1_decoys_glide_SP.sdf

> <s_m_Source_Path>
/Users/zhangxujun/Desktop

> <s_m_entry_id>
2183

> <s_m_entry_name>
wee1_decoys_glide_SP.1908

> <s_m_subgroup_title>
wee1_decoys_glide_SP

> <s_m_subgroupid>
wee1_decoys_glide_SP


$$$$
