@<TRIPOS>MOLECULE
ZINC03336212_3288
62   67    1
SMALL
USER_CHARGES


@<TRIPOS>ATOM
      1 C1          6.9651   55.0365   21.9902 C.3       1 UNK         0.0000 
      2 C2          5.9969   54.7080   23.1139 C.ar      1 UNK         0.0000 
      3 C3          4.7722   54.0960   22.8395 C.ar      1 UNK         0.0000 
      4 C4          3.8570   53.8769   23.8680 C.ar      1 UNK         0.0000 
      5 C5          4.1556   54.2546   25.1843 C.ar      1 UNK         0.0000 
      6 C6          5.3894   54.8702   25.4436 C.ar      1 UNK         0.0000 
      7 C7          6.3057   55.0893   24.4183 C.ar      1 UNK         0.0000 
      8 C8          3.1922   54.0011   26.2870 C.2       1 UNK         0.0000 
      9 C9          3.2616   54.4380   27.5543 C.2       1 UNK         0.0000 
     10 C10         2.1365   53.8361   28.3698 C.3       1 UNK         0.0000 
     11 H11         1.4591   54.6191   28.7147 H         1 UNK         0.0000 
     12 N12         1.4454   52.9695   27.4148 N.am      1 UNK         0.0000 
     13 N13         2.0564   53.2069   26.1787 N.pl3     1 UNK         0.0000 
     14 C14         0.3015   52.2617   27.5964 C.2       1 UNK         0.0000 
     15 O15        -0.3493   52.3383   28.6378 O.2       1 UNK         0.0000 
     16 C16        -0.1847   51.2807   26.5062 C.3       1 UNK         0.0000 
     17 N17        -1.3768   51.8031   25.8083 N.am      1 UNK         0.0000 
     18 C18        -2.6283   51.7481   26.3195 C.2       1 UNK         0.0000 
     19 O19        -2.9924   51.2973   27.4066 O.2       1 UNK         0.0000 
     20 C20        -3.5424   52.3712   25.2688 C.3       1 UNK         0.0000 
     21 C21        -4.3395   53.5308   25.9343 C.3       1 UNK         0.0000 
     22 C22        -5.4992   53.9931   25.0506 C.3       1 UNK         0.0000 
     23 C23        -6.4974   52.8392   24.8814 C.3       1 UNK         0.0000 
     24 C24        -5.8312   51.5579   24.3832 C.ar      1 UNK         0.0000 
     25 C25        -4.4532   51.3011   24.6038 C.ar      1 UNK         0.0000 
     26 C26        -3.9248   50.0943   24.1042 C.ar      1 UNK         0.0000 
     27 C27        -4.7125   49.1657   23.4321 C.ar      1 UNK         0.0000 
     28 C28        -6.0590   49.4282   23.2256 C.ar      1 UNK         0.0000 
     29 C29        -6.6065   50.6161   23.6958 C.ar      1 UNK         0.0000 
     30 N30        -2.5443   52.8408   24.3422 N.am      1 UNK         0.0000 
     31 C31        -1.2887   52.4965   24.6461 C.2       1 UNK         0.0000 
     32 O32        -0.2723   52.8967   24.0816 O.2       1 UNK         0.0000 
     33 C33         2.6462   53.1083   29.6053 C.2       1 UNK         0.0000 
     34 C34         3.9034   52.7170   30.0464 C.2       1 UNK         0.0000 
     35 C35         3.7305   52.0964   31.2817 C.2       1 UNK         0.0000 
     36 C36         2.3694   52.0969   31.5298 C.2       1 UNK         0.0000 
     37 O37         1.7179   52.7281   30.5229 O.3       1 UNK         0.0000 
     38 H38         6.5471   54.8147   21.0081 H         1 UNK         0.0000 
     39 H39         7.2097   56.0988   22.0118 H         1 UNK         0.0000 
     40 H40         7.9046   54.4973   22.1047 H         1 UNK         0.0000 
     41 H41         4.5159   53.8093   21.8297 H         1 UNK         0.0000 
     42 H42         2.9105   53.4119   23.6330 H         1 UNK         0.0000 
     43 H43         5.6545   55.1738   26.4451 H         1 UNK         0.0000 
     44 H44         7.2491   55.5712   24.6299 H         1 UNK         0.0000 
     45 H45         4.0114   55.0795   27.9916 H         1 UNK         0.0000 
     46 H46         1.7969   52.4969   25.5093 H         1 UNK         0.0000 
     47 H47        -0.4196   50.3325   26.9967 H         1 UNK         0.0000 
     48 H48         0.6118   51.0388   25.8023 H         1 UNK         0.0000 
     49 H49        -3.6955   54.3800   26.1680 H         1 UNK         0.0000 
     50 H50        -4.7882   53.1980   26.8738 H         1 UNK         0.0000 
     51 H51        -5.1346   54.3386   24.0818 H         1 UNK         0.0000 
     52 H52        -6.0030   54.8378   25.5188 H         1 UNK         0.0000 
     53 H53        -7.2996   53.1410   24.2057 H         1 UNK         0.0000 
     54 H54        -6.9708   52.6274   25.8412 H         1 UNK         0.0000 
     55 H55        -2.8764   49.8683   24.2315 H         1 UNK         0.0000 
     56 H56        -4.2762   48.2479   23.0664 H         1 UNK         0.0000 
     57 H57        -6.6780   48.7151   22.7007 H         1 UNK         0.0000 
     58 H58        -7.6559   50.8084   23.5256 H         1 UNK         0.0000 
     59 H59        -2.8188   53.1065   23.4096 H         1 UNK         0.0000 
     60 H60         4.8366   52.8762   29.5262 H         1 UNK         0.0000 
     61 H61         4.5037   51.6880   31.9153 H         1 UNK         0.0000 
     62 H62         1.7542   51.7400   32.3454 H         1 UNK         0.0000 
@<TRIPOS>BOND
     1    1    2 1    
     2    1   38 1    
     3    1   39 1    
     4    1   40 1    
     5    2    7 ar   
     6    2    3 ar   
     7    3    4 ar   
     8    3   41 1    
     9    4    5 ar   
    10    4   42 1    
    11    5    6 ar   
    12    5    8 1    
    13    6    7 ar   
    14    6   43 1    
    15    7   44 1    
    16    8   13 1    
    17    8    9 2    
    18    9   10 1    
    19    9   45 1    
    20   10   11 1    
    21   10   12 1    
    22   10   33 1    
    23   12   13 1    
    24   12   14 am   BACKBONE|DICT|INTERRES
    25   13   46 1    
    26   14   15 2    
    27   14   16 1    
    28   16   17 1    
    29   16   47 1    
    30   16   48 1    
    31   17   31 am   BACKBONE|DICT|INTERRES
    32   17   18 am   BACKBONE|DICT|INTERRES
    33   18   19 2    
    34   18   20 1    
    35   20   25 1    
    36   20   21 1    
    37   20   30 1    
    38   21   22 1    
    39   21   49 1    
    40   21   50 1    
    41   22   23 1    
    42   22   51 1    
    43   22   52 1    
    44   23   24 1    
    45   23   53 1    
    46   23   54 1    
    47   24   29 ar   
    48   24   25 ar   
    49   25   26 ar   
    50   26   27 ar   
    51   26   55 1    
    52   27   28 ar   
    53   27   56 1    
    54   28   29 ar   
    55   28   57 1    
    56   29   58 1    
    57   30   31 am   BACKBONE|DICT|INTERRES
    58   30   59 1    
    59   31   32 2    
    60   33   37 1    
    61   33   34 2    
    62   34   35 1    
    63   34   60 1    
    64   35   36 2    
    65   35   61 1    
    66   36   37 1    
    67   36   62 1    
@<TRIPOS>SUBSTRUCTURE
     1 UNK         1 GROUP             0       ****    0 ROOT    
