@<TRIPOS>MOLECULE
ZINC39686751_1296
72   75    1
SMALL
USER_CHARGES


@<TRIPOS>ATOM
      1 C1          2.9200   51.6959   16.2297 C.3       1 UNK         0.0000 
      2 C2          1.6684   51.3882   17.0322 C.ar      1 UNK         0.0000 
      3 C3          1.0775   52.3939   17.7960 C.ar      1 UNK         0.0000 
      4 C4         -0.0829   52.1225   18.5109 C.ar      1 UNK         0.0000 
      5 C5         -0.6610   50.8525   18.4694 C.ar      1 UNK         0.0000 
      6 C6         -0.0596   49.8423   17.7133 C.ar      1 UNK         0.0000 
      7 C7          1.1044   50.1102   16.9967 C.ar      1 UNK         0.0000 
      8 C8         -1.9556   50.5971   19.2369 C.3       1 UNK         0.0000 
      9 C9         -1.8064   49.5837   20.3839 C.2       1 UNK         0.0000 
     10 O10        -2.1171   48.4102   20.1697 O.2       1 UNK         0.0000 
     11 N11        -1.4072   50.0136   21.6046 N.am      1 UNK         0.0000 
     12 C12        -0.7707   51.3044   21.8732 C.3       1 UNK         0.0000 
     13 C13         0.0390   51.0249   23.1594 C.3       1 UNK         0.0000 
     14 H14         0.9952   50.5674   22.8947 H         1 UNK         0.0000 
     15 C15        -0.8271   49.9731   23.9276 C.3       1 UNK         0.0000 
     16 C16        -1.3142   49.1071   22.7475 C.3       1 UNK         0.0000 
     17 C17        -0.1031   49.0617   24.9403 C.3       1 UNK         0.0000 
     18 C18         0.3842   49.8295   26.1722 C.3       1 UNK         0.0000 
     19 N19        -0.8183   50.4967   26.8820 N.4       1 UNK         0.0000 
     20 C20        -1.8363   51.2495   25.9947 C.3       1 UNK         0.0000 
     21 C21        -2.1030   50.4829   24.6752 C.3       1 UNK         0.0000 
     22 C22         0.3385   52.3646   23.8729 C.2       1 UNK         0.0000 
     23 O23        -0.4772   53.2892   23.8755 O.2       1 UNK         0.0000 
     24 N24         1.5600   52.4868   24.4238 N.am      1 UNK         0.0000 
     25 C25         1.9997   53.6061   25.2593 C.3       1 UNK         0.0000 
     26 H26         1.5632   54.5181   24.8586 H         1 UNK         0.0000 
     27 C27         1.5042   53.4249   26.7085 C.3       1 UNK         0.0000 
     28 C28         3.5358   53.7853   25.2671 C.3       1 UNK         0.0000 
     29 C29         4.2661   54.0831   23.9504 C.ar      1 UNK         0.0000 
     30 C30         3.5954   54.1787   22.7218 C.ar      1 UNK         0.0000 
     31 C31         4.3044   54.4135   21.5443 C.ar      1 UNK         0.0000 
     32 C32         5.6865   54.5754   21.5795 C.ar      1 UNK         0.0000 
     33 C33         6.3648   54.4919   22.7943 C.ar      1 UNK         0.0000 
     34 C34         5.6640   54.2395   23.9741 C.ar      1 UNK         0.0000 
     35 O35         6.3725   54.1062   25.1427 O.3       1 UNK         0.0000 
     36 C36         6.5849   55.3276   25.8315 C.3       1 UNK         0.0000 
     37 H37         3.7911   51.7179   16.8839 H         1 UNK         0.0000 
     38 H38         3.0916   50.9422   15.4573 H         1 UNK         0.0000 
     39 H39         2.8343   52.6619   15.7327 H         1 UNK         0.0000 
     40 H40         1.5150   53.3814   17.8358 H         1 UNK         0.0000 
     41 H41        -0.5368   52.8971   19.1040 H         1 UNK         0.0000 
     42 H42        -0.4943   48.8529   17.6801 H         1 UNK         0.0000 
     43 H43         1.5742   49.3260   16.4191 H         1 UNK         0.0000 
     44 H44        -2.3548   51.5285   19.6390 H         1 UNK         0.0000 
     45 H45        -2.7138   50.2371   18.5409 H         1 UNK         0.0000 
     46 H46        -0.0875   51.6499   21.0991 H         1 UNK         0.0000 
     47 H47        -1.5699   52.0130   22.0932 H         1 UNK         0.0000 
     48 H48        -2.1952   48.4999   22.9590 H         1 UNK         0.0000 
     49 H49        -0.5299   48.3881   22.5040 H         1 UNK         0.0000 
     50 H50        -0.7448   48.2359   25.2551 H         1 UNK         0.0000 
     51 H51         0.7516   48.5785   24.4633 H         1 UNK         0.0000 
     52 H52         0.8347   49.1395   26.8817 H         1 UNK         0.0000 
     53 H53         1.1032   50.6087   25.9576 H         1 UNK         0.0000 
     54 H54        -1.2959   49.7382   27.3753 H         1 UNK         0.0000 
     55 H55        -2.7413   51.3418   26.5984 H         1 UNK         0.0000 
     56 H56        -1.4415   52.2520   25.8589 H         1 UNK         0.0000 
     57 H57        -2.7107   51.1003   24.0105 H         1 UNK         0.0000 
     58 H58        -2.7460   49.6352   24.9193 H         1 UNK         0.0000 
     59 H59         2.2519   51.7766   24.2366 H         1 UNK         0.0000 
     60 H60         1.7609   54.2924   27.3180 H         1 UNK         0.0000 
     61 H61         0.4253   53.2967   26.7684 H         1 UNK         0.0000 
     62 H62         1.9766   52.5660   27.1859 H         1 UNK         0.0000 
     63 H63         3.7680   54.5991   25.9525 H         1 UNK         0.0000 
     64 H64         3.9919   52.8970   25.7061 H         1 UNK         0.0000 
     65 H65         2.5237   54.0788   22.6522 H         1 UNK         0.0000 
     66 H66         3.7760   54.4803   20.6030 H         1 UNK         0.0000 
     67 H67         6.2307   54.7655   20.6652 H         1 UNK         0.0000 
     68 H68         7.4395   54.6079   22.8251 H         1 UNK         0.0000 
     69 H69         7.1047   55.1301   26.7682 H         1 UNK         0.0000 
     70 H70         7.1908   56.0181   25.2422 H         1 UNK         0.0000 
     71 H71         5.6434   55.8158   26.0777 H         1 UNK         0.0000 
     72 H72        -0.4926   51.1031   27.6218 H         1 UNK         0.0000 
@<TRIPOS>BOND
     1    1    2 1    
     2    1   37 1    
     3    1   38 1    
     4    1   39 1    
     5    2    7 ar   
     6    2    3 ar   
     7    3    4 ar   
     8    3   40 1    
     9    4    5 ar   
    10    4   41 1    
    11    5    6 ar   
    12    5    8 1    
    13    6    7 ar   
    14    6   42 1    
    15    7   43 1    
    16    8    9 1    
    17    8   44 1    
    18    8   45 1    
    19    9   10 2    
    20    9   11 am   BACKBONE|DICT|INTERRES
    21   11   16 1    
    22   11   12 1    
    23   12   13 1    
    24   12   46 1    
    25   12   47 1    
    26   13   14 1    
    27   13   15 1    
    28   13   22 1    
    29   15   21 1    
    30   15   16 1    
    31   15   17 1    
    32   16   48 1    
    33   16   49 1    
    34   17   18 1    
    35   17   50 1    
    36   17   51 1    
    37   18   19 1    
    38   18   52 1    
    39   18   53 1    
    40   19   20 1    
    41   19   54 1    
    42   19   72 1    
    43   20   21 1    
    44   20   55 1    
    45   20   56 1    
    46   21   57 1    
    47   21   58 1    
    48   22   23 2    
    49   22   24 am   BACKBONE|DICT|INTERRES
    50   24   25 1    
    51   24   59 1    
    52   25   26 1    
    53   25   27 1    
    54   25   28 1    
    55   27   60 1    
    56   27   61 1    
    57   27   62 1    
    58   28   29 1    
    59   28   63 1    
    60   28   64 1    
    61   29   34 ar   
    62   29   30 ar   
    63   30   31 ar   
    64   30   65 1    
    65   31   32 ar   
    66   31   66 1    
    67   32   33 ar   
    68   32   67 1    
    69   33   34 ar   
    70   33   68 1    
    71   34   35 1    
    72   35   36 1    
    73   36   69 1    
    74   36   70 1    
    75   36   71 1    
@<TRIPOS>SUBSTRUCTURE
     1 UNK         1 GROUP             0       ****    0 ROOT    
