ZINC33058463_4491
                    3D
 Schrodinger Suite 2024-2.
 62 65  0  0  1  0            999 V2000
    1.4742   53.2077   28.8168 C   0  0  0  0  0  0
    2.6400   53.6751   27.9628 C   0  0  0  0  0  0
    3.8303   54.0848   28.5603 C   0  0  0  0  0  0
    4.8979   54.4953   27.7699 C   0  0  0  0  0  0
    4.7866   54.5118   26.3759 C   0  0  0  0  0  0
    3.5892   54.0974   25.7526 C   0  0  0  0  0  0
    2.5275   53.6775   26.5706 C   0  0  0  0  0  0
    3.5400   54.0940   24.3405 N   0  0  0  0  0  0
    2.7084   53.4695   23.4331 C   0  0  0  0  0  0
    3.1166   52.9135   22.2106 C   0  0  0  0  0  0
    2.0819   52.1723   21.6089 C   0  0  0  0  0  0
    0.8671   52.2414   22.2830 C   0  0  0  0  0  0
    0.9952   53.2571   23.6822 S   0  0  0  0  0  0
   -0.4196   51.6409   21.9401 C   0  0  0  0  0  0
   -1.0410   52.0963   20.9759 O   0  0  0  0  0  0
   -0.8971   50.4230   22.6819 C   0  0  0  0  0  0
   -0.3117   49.9899   23.8804 C   0  0  0  0  0  0
   -0.8029   48.8615   24.5389 C   0  0  0  0  0  0
   -1.8725   48.1363   23.9975 C   0  0  0  0  0  0
   -2.4349   48.5475   22.7937 C   0  0  0  0  0  0
   -1.9691   49.6904   22.1513 C   0  0  0  0  0  0
   -2.4247   47.0144   24.5858 O   0  0  0  0  0  0
   -2.3281   46.8922   25.9997 C   0  0  0  0  0  0
    2.2591   51.4147   20.4840 N   0  0  0  0  0  0
    4.8153   53.0068   21.5456 S   0  0  0  0  0  0
    5.6768   53.5581   22.6005 O   0  0  0  0  0  0
    5.1038   51.6967   20.9583 O   0  0  0  0  0  0
    4.8230   54.1738   20.1810 C   0  0  0  0  0  0
    4.0564   53.9300   19.0413 C   0  0  0  0  0  0
    4.0856   54.8260   17.9787 C   0  0  0  0  0  0
    4.8832   55.9684   18.0286 C   0  0  0  0  0  0
    5.6836   56.1911   19.1595 C   0  0  0  0  0  0
    5.6506   55.2972   20.2309 C   0  0  0  0  0  0
    4.8238   56.8003   16.9267 O   0  0  0  0  0  0
    5.5647   58.0178   16.9154 C   0  0  0  0  0  0
    5.9905   55.0011   25.5737 C   0  0  0  0  0  0
    1.7947   52.9205   29.8197 H   0  0  0  0  0  0
    0.7155   53.9872   28.8891 H   0  0  0  0  0  0
    1.0062   52.3275   28.3727 H   0  0  0  0  0  0
    3.9358   54.0776   29.6351 H   0  0  0  0  0  0
    5.8141   54.8125   28.2518 H   0  0  0  0  0  0
    1.5957   53.3414   26.1589 H   0  0  0  0  0  0
    4.4593   54.3300   23.9856 H   0  0  0  0  0  0
    0.5210   50.5181   24.3273 H   0  0  0  0  0  0
   -0.3363   48.5587   25.4640 H   0  0  0  0  0  0
   -3.2544   47.9910   22.3685 H   0  0  0  0  0  0
   -2.4456   49.9875   21.2267 H   0  0  0  0  0  0
   -2.9039   46.0292   26.3377 H   0  0  0  0  0  0
   -2.7458   47.7746   26.4815 H   0  0  0  0  0  0
   -1.3017   46.7505   26.3315 H   0  0  0  0  0  0
    3.1890   51.2475   20.1104 H   0  0  0  0  0  0
    1.4991   50.9199   20.0421 H   0  0  0  0  0  0
    3.4339   53.0532   18.9625 H   0  0  0  0  0  0
    3.4746   54.6361   17.1079 H   0  0  0  0  0  0
    6.3222   57.0579   19.2279 H   0  0  0  0  0  0
    6.2740   55.4833   21.0941 H   0  0  0  0  0  0
    5.4197   58.5128   15.9573 H   0  0  0  0  0  0
    5.2183   58.7106   17.6817 H   0  0  0  0  0  0
    6.6349   57.8473   17.0346 H   0  0  0  0  0  0
    6.7112   55.5311   26.2002 H   0  0  0  0  0  0
    6.4936   54.1639   25.0872 H   0  0  0  0  0  0
    5.6754   55.7033   24.7997 H   0  0  0  0  0  0
  1  2  1  0  0  0
  1 37  1  0  0  0
  1 38  1  0  0  0
  1 39  1  0  0  0
  2  7  2  0  0  0
  2  3  1  0  0  0
  3  4  2  0  0  0
  3 40  1  0  0  0
  4  5  1  0  0  0
  4 41  1  0  0  0
  5  6  2  0  0  0
  5 36  1  0  0  0
  6  7  1  0  0  0
  6  8  1  0  0  0
  7 42  1  0  0  0
  8  9  1  0  0  0
  8 43  1  0  0  0
  9 13  1  0  0  0
  9 10  2  0  0  0
 10 11  1  0  0  0
 10 25  1  0  0  0
 11 12  2  0  0  0
 11 24  1  0  0  0
 12 13  1  0  0  0
 12 14  1  0  0  0
 14 15  2  0  0  0
 14 16  1  0  0  0
 16 21  2  0  0  0
 16 17  1  0  0  0
 17 18  2  0  0  0
 17 44  1  0  0  0
 18 19  1  0  0  0
 18 45  1  0  0  0
 19 20  2  0  0  0
 19 22  1  0  0  0
 20 21  1  0  0  0
 20 46  1  0  0  0
 21 47  1  0  0  0
 22 23  1  0  0  0
 23 48  1  0  0  0
 23 49  1  0  0  0
 23 50  1  0  0  0
 24 51  1  0  0  0
 24 52  1  0  0  0
 25 26  2  0  0  0
 25 27  2  0  0  0
 25 28  1  0  0  0
 28 33  2  0  0  0
 28 29  1  0  0  0
 29 30  2  0  0  0
 29 53  1  0  0  0
 30 31  1  0  0  0
 30 54  1  0  0  0
 31 32  2  0  0  0
 31 34  1  0  0  0
 32 33  1  0  0  0
 32 55  1  0  0  0
 33 56  1  0  0  0
 34 35  1  0  0  0
 35 57  1  0  0  0
 35 58  1  0  0  0
 35 59  1  0  0  0
 36 60  1  0  0  0
 36 61  1  0  0  0
 36 62  1  0  0  0
M  END
> <i_i_glide_confnum>
115

> <i_i_glide_lignum>
4492

> <i_i_glide_posenum>
325

> <i_i_glide_rotatable_bonds>
8

> <i_m_Source_File_Index>
1163

> <b_m_subgroup_collapsed>
0

> <r_i_docking_score>
-5.64707

> <r_i_glide_ecoul>
-5.17501

> <r_i_glide_eff_state_penalty>
0

> <r_i_glide_einternal>
11.0975

> <r_i_glide_emodel>
-65.5679

> <r_i_glide_energy>
-53.0206

> <r_i_glide_erotb>
0.451732

> <r_i_glide_esite>
-0.0311729

> <r_i_glide_evdw>
-47.8456

> <r_i_glide_gscore>
-5.64707

> <r_i_glide_hbond>
0

> <r_i_glide_ligand_efficiency>
-0.156863

> <r_i_glide_ligand_efficiency_ln>
-1.23204

> <r_i_glide_ligand_efficiency_sa>
-0.517951

> <r_i_glide_lipo>
-2.7495

> <r_i_glide_metal>
0

> <r_i_glide_rewards>
-0.149605

> <s_i_glide_gridfile>
wee1_glide-grid

> <s_m_Source_File>
wee1_decoys_glide_SP.sdf

> <s_m_Source_Path>
/Users/zhangxujun/Desktop

> <s_m_entry_id>
1438

> <s_m_entry_name>
wee1_decoys_glide_SP.1163

> <s_m_subgroup_title>
wee1_decoys_glide_SP

> <s_m_subgroupid>
wee1_decoys_glide_SP


$$$$
