@<TRIPOS>MOLECULE
ZINC20830354_2714
39   42    1
SMALL
USER_CHARGES


@<TRIPOS>ATOM
      1 C1          5.6284   57.7681   16.7920 C.ar      1 UNK         0.0000 
      2 C2          5.6276   56.8196   15.7711 C.ar      1 UNK         0.0000 
      3 C3          5.9113   55.4844   16.0603 C.ar      1 UNK         0.0000 
      4 C4          6.1929   55.0911   17.3705 C.ar      1 UNK         0.0000 
      5 C5          6.1753   56.0389   18.4054 C.ar      1 UNK         0.0000 
      6 C6          5.9042   57.3780   18.1018 C.ar      1 UNK         0.0000 
      7 C7          6.4531   55.6812   19.8246 C.ar      1 UNK         0.0000 
      8 N8          7.5043   56.0964   20.4825 N.2       1 UNK         0.0000 
      9 N9          7.4076   55.6004   21.7739 N.2       1 UNK         0.0000 
     10 C10         6.3046   54.8971   21.8492 C.ar      1 UNK         0.0000 
     11 N11         5.6579   54.8959   20.6311 N.pl3     1 UNK         0.0000 
     12 N12         4.4809   54.2469   20.2882 N.3       1 UNK         0.0000 
     13 S13         5.7709   54.0148   23.2821 S.3       1 UNK         0.0000 
     14 C14         6.3660   55.1190   24.6017 C.3       1 UNK         0.0000 
     15 C15         6.0690   54.5685   25.9776 C.2       1 UNK         0.0000 
     16 N16         6.9124   54.1310   26.8785 N.2       1 UNK         0.0000 
     17 N17         6.1402   53.6963   27.9513 N.2       1 UNK         0.0000 
     18 C18         4.8897   53.9059   27.6114 C.2       1 UNK         0.0000 
     19 O19         4.7775   54.4696   26.3787 O.3       1 UNK         0.0000 
     20 C20         3.6523   53.5898   28.3849 C.ar      1 UNK         0.0000 
     21 C21         2.4031   53.9794   27.8880 C.ar      1 UNK         0.0000 
     22 C22         1.2439   53.6955   28.6047 C.ar      1 UNK         0.0000 
     23 C23         1.3305   53.0170   29.8165 C.ar      1 UNK         0.0000 
     24 C24         2.5668   52.6178   30.3187 C.ar      1 UNK         0.0000 
     25 C25         3.7280   52.8999   29.6013 C.ar      1 UNK         0.0000 
     26 F26         0.2051   52.7498   30.5147 F         1 UNK         0.0000 
     27 Br27        6.6307   53.2648   17.7043 Br        1 UNK         0.0000 
     28 H28         5.4134   58.8064   16.5735 H         1 UNK         0.0000 
     29 H29         5.4137   57.1203   14.7562 H         1 UNK         0.0000 
     30 H30         5.9234   54.7532   15.2659 H         1 UNK         0.0000 
     31 H31         5.9040   58.1251   18.8811 H         1 UNK         0.0000 
     32 H32         4.5565   53.2371   20.2854 H         1 UNK         0.0000 
     33 H33         3.6604   54.6129   20.7555 H         1 UNK         0.0000 
     34 H34         5.9055   56.0986   24.4815 H         1 UNK         0.0000 
     35 H35         7.4404   55.2616   24.4772 H         1 UNK         0.0000 
     36 H36         2.3266   54.4988   26.9444 H         1 UNK         0.0000 
     37 H37         0.2795   53.9949   28.2220 H         1 UNK         0.0000 
     38 H38         2.6181   52.0977   31.2644 H         1 UNK         0.0000 
     39 H39         4.6850   52.5808   29.9906 H         1 UNK         0.0000 
@<TRIPOS>BOND
     1    1    6 ar   
     2    1    2 ar   
     3    1   28 1    
     4    2    3 ar   
     5    2   29 1    
     6    3    4 ar   
     7    3   30 1    
     8    4    5 ar   
     9    4   27 1    
    10    5    6 ar   
    11    5    7 1    
    12    6   31 1    
    13    7   11 ar   
    14    7    8 ar   
    15    8    9 ar   
    16    9   10 ar   
    17   10   11 ar   
    18   10   13 1    
    19   11   12 1    
    20   12   32 1    
    21   12   33 1    
    22   13   14 1    
    23   14   15 1    
    24   14   34 1    
    25   14   35 1    
    26   15   19 1    
    27   15   16 2    
    28   16   17 1    
    29   17   18 2    
    30   18   19 1    
    31   18   20 1    
    32   20   25 ar   
    33   20   21 ar   
    34   21   22 ar   
    35   21   36 1    
    36   22   23 ar   
    37   22   37 1    
    38   23   24 ar   
    39   23   26 1    
    40   24   25 ar   
    41   24   38 1    
    42   25   39 1    
@<TRIPOS>SUBSTRUCTURE
     1 UNK         1 GROUP             0       ****    0 ROOT    
