@<TRIPOS>MOLECULE
ZINC33018994_2875
55   58    1
SMALL
USER_CHARGES


@<TRIPOS>ATOM
      1 C1         -0.0461   50.7463   27.0005 C.3       1 UNK         0.0000 
      2 C2          0.3285   51.6314   28.1743 C.ar      1 UNK         0.0000 
      3 C3         -0.4843   51.6967   29.3108 C.ar      1 UNK         0.0000 
      4 C4         -0.1175   52.4971   30.3939 C.ar      1 UNK         0.0000 
      5 C5          1.0445   53.2616   30.3374 C.ar      1 UNK         0.0000 
      6 C6          1.8653   53.1877   29.2109 C.ar      1 UNK         0.0000 
      7 C7          1.5102   52.3716   28.1316 C.ar      1 UNK         0.0000 
      8 N8          3.0129   53.9731   29.1399 N.am      1 UNK         0.0000 
      9 C9          4.2666   53.4848   29.0800 C.2       1 UNK         0.0000 
     10 O10         4.5586   52.3054   29.2817 O.2       1 UNK         0.0000 
     11 C11         5.3421   54.5204   28.7443 C.3       1 UNK         0.0000 
     12 S12         6.7038   53.9440   27.6818 S.3       1 UNK         0.0000 
     13 C13         6.0741   54.3435   26.0854 C.2       1 UNK         0.0000 
     14 N14         6.8525   54.7279   25.1170 N.2       1 UNK         0.0000 
     15 C15         6.2132   54.7159   23.9201 C.ar      1 UNK         0.0000 
     16 C16         6.7964   55.0630   22.6969 C.ar      1 UNK         0.0000 
     17 C17         6.0531   54.8959   21.5318 C.ar      1 UNK         0.0000 
     18 C18         4.7553   54.3596   21.5620 C.ar      1 UNK         0.0000 
     19 C19         4.1244   54.0968   22.7826 C.ar      1 UNK         0.0000 
     20 C20         4.8623   54.2918   23.9598 C.ar      1 UNK         0.0000 
     21 S21         4.3933   54.0967   25.6402 S.3       1 UNK         0.0000 
     22 N22         4.0152   54.0977   20.3957 N.am      1 UNK         0.0000 
     23 C23         4.4845   53.8640   19.1550 C.2       1 UNK         0.0000 
     24 O24         5.6717   53.6964   18.8714 O.2       1 UNK         0.0000 
     25 N25         3.4716   53.8822   18.2709 N.am      1 UNK         0.0000 
     26 C26         3.5233   53.6656   16.8843 C.ar      1 UNK         0.0000 
     27 C27         4.5115   52.8967   16.2500 C.ar      1 UNK         0.0000 
     28 C28         4.4799   52.7153   14.8676 C.ar      1 UNK         0.0000 
     29 C29         3.4644   53.2969   14.1076 C.ar      1 UNK         0.0000 
     30 C30         2.4698   54.0551   14.7336 C.ar      1 UNK         0.0000 
     31 C31         2.4993   54.2297   16.1184 C.ar      1 UNK         0.0000 
     32 S32         1.1550   54.8089   13.8163 S.3       1 UNK         0.0000 
     33 C33         1.4280   54.5160   12.0475 C.3       1 UNK         0.0000 
     34 H34        -0.8950   50.0987   27.2229 H         1 UNK         0.0000 
     35 H35         0.7905   50.0972   26.7393 H         1 UNK         0.0000 
     36 H36        -0.2834   51.3508   26.1242 H         1 UNK         0.0000 
     37 H37        -1.3854   51.1022   29.3715 H         1 UNK         0.0000 
     38 H38        -0.7351   52.5205   31.2804 H         1 UNK         0.0000 
     39 H39         1.3010   53.8903   31.1751 H         1 UNK         0.0000 
     40 H40         2.1455   52.3211   27.2577 H         1 UNK         0.0000 
     41 H41         2.8747   54.9703   29.1151 H         1 UNK         0.0000 
     42 H42         4.8798   55.3586   28.2395 H         1 UNK         0.0000 
     43 H43         5.7671   54.8975   29.6742 H         1 UNK         0.0000 
     44 H44         7.8138   55.4219   22.6441 H         1 UNK         0.0000 
     45 H45         6.5210   55.1574   20.5936 H         1 UNK         0.0000 
     46 H46         3.1059   53.7388   22.8221 H         1 UNK         0.0000 
     47 H47         3.0106   54.0871   20.5064 H         1 UNK         0.0000 
     48 H48         2.5746   54.1799   18.6262 H         1 UNK         0.0000 
     49 H49         5.2958   52.4165   16.8179 H         1 UNK         0.0000 
     50 H50         5.2398   52.1156   14.3893 H         1 UNK         0.0000 
     51 H51         3.4616   53.1426   13.0407 H         1 UNK         0.0000 
     52 H52         1.7248   54.8140   16.5951 H         1 UNK         0.0000 
     53 H53         0.6345   54.9892   11.4690 H         1 UNK         0.0000 
     54 H54         2.3810   54.9392   11.7295 H         1 UNK         0.0000 
     55 H55         1.4180   53.4487   11.8293 H         1 UNK         0.0000 
@<TRIPOS>BOND
     1    1    2 1    
     2    1   34 1    
     3    1   35 1    
     4    1   36 1    
     5    2    7 ar   
     6    2    3 ar   
     7    3    4 ar   
     8    3   37 1    
     9    4    5 ar   
    10    4   38 1    
    11    5    6 ar   
    12    5   39 1    
    13    6    7 ar   
    14    6    8 1    
    15    7   40 1    
    16    8    9 am   BACKBONE|DICT|INTERRES
    17    8   41 1    
    18    9   10 2    
    19    9   11 1    
    20   11   12 1    
    21   11   42 1    
    22   11   43 1    
    23   12   13 1    
    24   13   21 1    
    25   13   14 2    
    26   14   15 1    
    27   15   20 ar   
    28   15   16 ar   
    29   16   17 ar   
    30   16   44 1    
    31   17   18 ar   
    32   17   45 1    
    33   18   19 ar   
    34   18   22 1    
    35   19   20 ar   
    36   19   46 1    
    37   20   21 1    
    38   22   23 am   BACKBONE|DICT|INTERRES
    39   22   47 1    
    40   23   24 2    
    41   23   25 am   BACKBONE|DICT|INTERRES
    42   25   26 1    
    43   25   48 1    
    44   26   31 ar   
    45   26   27 ar   
    46   27   28 ar   
    47   27   49 1    
    48   28   29 ar   
    49   28   50 1    
    50   29   30 ar   
    51   29   51 1    
    52   30   31 ar   
    53   30   32 1    
    54   31   52 1    
    55   32   33 1    
    56   33   53 1    
    57   33   54 1    
    58   33   55 1    
@<TRIPOS>SUBSTRUCTURE
     1 UNK         1 GROUP             0       ****    0 ROOT    
