@<TRIPOS>MOLECULE
ZINC22364938_4029
61   63    1
SMALL
USER_CHARGES


@<TRIPOS>ATOM
      1 C1         11.0925   53.8065   17.3223 C.3       1 UNK         0.0000 
      2 C2          9.5718   53.7448   17.2820 C.ar      1 UNK         0.0000 
      3 C3          8.8265   54.7863   17.8461 C.ar      1 UNK         0.0000 
      4 C4          7.4279   54.7484   17.8536 C.ar      1 UNK         0.0000 
      5 C5          6.7777   53.6525   17.2708 C.ar      1 UNK         0.0000 
      6 C6          7.5110   52.6106   16.7083 C.ar      1 UNK         0.0000 
      7 C7          8.9037   52.6462   16.7196 C.ar      1 UNK         0.0000 
      8 Br8         9.8585   51.1717   15.9760 Br        1 UNK         0.0000 
      9 N9          6.7059   55.7598   18.5180 N.pl3     1 UNK         0.0000 
     10 C10         5.6720   55.3970   19.4665 C.3       1 UNK         0.0000 
     11 C11         6.2137   55.5002   20.9080 C.2       1 UNK         0.0000 
     12 O12         7.2624   56.0972   21.1611 O.2       1 UNK         0.0000 
     13 N13         5.5052   54.8912   21.8764 N.am      1 UNK         0.0000 
     14 C14         5.9975   54.7492   23.2565 C.3       1 UNK         0.0000 
     15 H15         6.4351   55.7082   23.5495 H         1 UNK         0.0000 
     16 C16         7.1051   53.6856   23.3004 C.3       1 UNK         0.0000 
     17 C17         4.9383   54.4746   24.3319 C.ar      1 UNK         0.0000 
     18 C18         3.6388   54.0524   24.0282 C.ar      1 UNK         0.0000 
     19 C19         2.7494   53.7310   25.0540 C.ar      1 UNK         0.0000 
     20 C20         3.1288   53.8593   26.3987 C.ar      1 UNK         0.0000 
     21 C21         4.4103   54.3365   26.6904 C.ar      1 UNK         0.0000 
     22 C22         5.3044   54.6391   25.6711 C.ar      1 UNK         0.0000 
     23 N23         2.2934   53.4905   27.4498 N.pl3     1 UNK         0.0000 
     24 C24         1.1734   52.5497   27.2526 C.3       1 UNK         0.0000 
     25 C25         0.7499   51.8464   28.5608 C.3       1 UNK         0.0000 
     26 C26         0.4166   52.8481   29.6740 C.3       1 UNK         0.0000 
     27 C27         1.5592   53.8587   29.8216 C.3       1 UNK         0.0000 
     28 C28         1.9454   54.4974   28.4702 C.3       1 UNK         0.0000 
     29 S29         6.8285   57.4721   17.9979 S.o2      1 UNK         0.0000 
     30 O30         6.7063   58.2973   19.2060 O.2       1 UNK         0.0000 
     31 O31         7.9872   57.6022   17.1072 O.2       1 UNK         0.0000 
     32 C32         5.2636   57.7095   16.9823 C.3       1 UNK         0.0000 
     33 H33        11.4543   54.5823   17.9972 H         1 UNK         0.0000 
     34 H34        11.4928   53.9809   16.3221 H         1 UNK         0.0000 
     35 H35        11.5030   52.8622   17.6808 H         1 UNK         0.0000 
     36 H36         9.3385   55.6185   18.3096 H         1 UNK         0.0000 
     37 H37         5.6996   53.5870   17.2642 H         1 UNK         0.0000 
     38 H38         6.9937   51.7613   16.2831 H         1 UNK         0.0000 
     39 H39         4.7621   55.9875   19.3757 H         1 UNK         0.0000 
     40 H40         5.3701   54.3522   19.3872 H         1 UNK         0.0000 
     41 H41         4.6548   54.4040   21.6364 H         1 UNK         0.0000 
     42 H42         7.4789   53.5034   24.3082 H         1 UNK         0.0000 
     43 H43         6.7443   52.7455   22.8820 H         1 UNK         0.0000 
     44 H44         7.9496   54.0037   22.6972 H         1 UNK         0.0000 
     45 H45         3.3190   53.9288   23.0048 H         1 UNK         0.0000 
     46 H46         1.7652   53.3737   24.7927 H         1 UNK         0.0000 
     47 H47         4.7357   54.4363   27.7159 H         1 UNK         0.0000 
     48 H48         6.2970   54.9763   25.9309 H         1 UNK         0.0000 
     49 H49         0.3283   53.0688   26.7991 H         1 UNK         0.0000 
     50 H50         1.4878   51.7760   26.5505 H         1 UNK         0.0000 
     51 H51        -0.1219   51.2203   28.3680 H         1 UNK         0.0000 
     52 H52         1.5279   51.1483   28.8735 H         1 UNK         0.0000 
     53 H53         0.2332   52.3282   30.6165 H         1 UNK         0.0000 
     54 H54        -0.5033   53.3776   29.4253 H         1 UNK         0.0000 
     55 H55         2.4367   53.3926   30.2716 H         1 UNK         0.0000 
     56 H56         1.2541   54.6439   30.5145 H         1 UNK         0.0000 
     57 H57         2.7910   55.1637   28.6455 H         1 UNK         0.0000 
     58 H58         1.1342   55.1231   28.0914 H         1 UNK         0.0000 
     59 H59         5.2530   58.7352   16.6097 H         1 UNK         0.0000 
     60 H60         5.2732   57.0053   16.1518 H         1 UNK         0.0000 
     61 H61         4.3954   57.5416   17.6170 H         1 UNK         0.0000 
@<TRIPOS>BOND
     1    1    2 1    
     2    1   33 1    
     3    1   34 1    
     4    1   35 1    
     5    2    7 ar   
     6    2    3 ar   
     7    3    4 ar   
     8    3   36 1    
     9    4    5 ar   
    10    4    9 1    
    11    5    6 ar   
    12    5   37 1    
    13    6    7 ar   
    14    6   38 1    
    15    7    8 1    
    16    9   10 1    
    17    9   29 1    
    18   10   11 1    
    19   10   39 1    
    20   10   40 1    
    21   11   12 2    
    22   11   13 am   BACKBONE|DICT|INTERRES
    23   13   14 1    
    24   13   41 1    
    25   14   15 1    
    26   14   16 1    
    27   14   17 1    
    28   16   42 1    
    29   16   43 1    
    30   16   44 1    
    31   17   22 ar   
    32   17   18 ar   
    33   18   19 ar   
    34   18   45 1    
    35   19   20 ar   
    36   19   46 1    
    37   20   21 ar   
    38   20   23 1    
    39   21   22 ar   
    40   21   47 1    
    41   22   48 1    
    42   23   28 1    
    43   23   24 1    
    44   24   25 1    
    45   24   49 1    
    46   24   50 1    
    47   25   26 1    
    48   25   51 1    
    49   25   52 1    
    50   26   27 1    
    51   26   53 1    
    52   26   54 1    
    53   27   28 1    
    54   27   55 1    
    55   27   56 1    
    56   28   57 1    
    57   28   58 1    
    58   29   30 2    
    59   29   31 2    
    60   29   32 1    
    61   32   59 1    
    62   32   60 1    
    63   32   61 1    
@<TRIPOS>SUBSTRUCTURE
     1 UNK         1 GROUP             0       ****    0 ROOT    
