@<TRIPOS>MOLECULE
ZINC36648069_1103
65   68    1
SMALL
USER_CHARGES


@<TRIPOS>ATOM
      1 C1          0.5197   51.4781   24.3285 C.3       1 UNK         0.0000 
      2 C2          0.4304   52.8995   23.7464 C.3       1 UNK         0.0000 
      3 O3          1.6688   53.3404   23.1889 O.3       1 UNK         0.0000 
      4 C4          2.7230   53.6980   24.0128 C.ar      1 UNK         0.0000 
      5 C5          2.6870   53.7683   25.4156 C.ar      1 UNK         0.0000 
      6 C6          3.8062   54.1552   26.1535 C.ar      1 UNK         0.0000 
      7 C7          5.0117   54.4806   25.5350 C.ar      1 UNK         0.0000 
      8 C8          5.0670   54.4097   24.1369 C.ar      1 UNK         0.0000 
      9 C9          3.9313   54.0304   23.3660 C.ar      1 UNK         0.0000 
     10 N10         4.1326   54.0178   22.0191 N.2       1 UNK         0.0000 
     11 C11         5.3363   54.4116   21.6947 C.2       1 UNK         0.0000 
     12 S12         6.4147   54.7342   23.0586 S.3       1 UNK         0.0000 
     13 N13         5.7636   54.5124   20.3539 N.am      1 UNK         0.0000 
     14 C14         5.1974   53.5123   19.4146 C.3       1 UNK         0.0000 
     15 C15         3.9469   54.0193   18.6578 C.3       1 UNK         0.0000 
     16 N16         3.4557   53.0470   17.5548 N.4       1 UNK         0.0000 
     17 C17         4.5085   52.7311   16.4669 C.3       1 UNK         0.0000 
     18 C18         2.8014   51.7683   18.1265 C.3       1 UNK         0.0000 
     19 C19         6.5213   55.5843   19.9377 C.2       1 UNK         0.0000 
     20 O20         6.8539   56.4964   20.7043 O.2       1 UNK         0.0000 
     21 C21         6.9875   55.7014   18.4511 C.3       1 UNK         0.0000 
     22 H22         6.5204   54.9101   17.8771 H         1 UNK         0.0000 
     23 C23         6.5793   57.0463   17.7807 C.3       1 UNK         0.0000 
     24 C24         7.3559   58.2785   18.2808 C.3       1 UNK         0.0000 
     25 C25         8.8745   58.0253   18.1746 C.3       1 UNK         0.0000 
     26 C26         9.3315   56.6839   18.7981 C.3       1 UNK         0.0000 
     27 N27         8.4722   55.5163   18.4288 N.pl3     1 UNK         0.0000 
     28 S28         9.1464   54.2810   17.3503 S.o2      1 UNK         0.0000 
     29 O29        10.5681   54.0973   17.6576 O.2       1 UNK         0.0000 
     30 O30         8.2161   53.1478   17.2803 O.2       1 UNK         0.0000 
     31 C31         9.0553   55.1302   15.7606 C.2       1 UNK         0.0000 
     32 C32         8.0008   55.0469   14.8608 C.2       1 UNK         0.0000 
     33 C33         8.2174   55.8118   13.7095 C.2       1 UNK         0.0000 
     34 C34         9.4482   56.4571   13.7234 C.2       1 UNK         0.0000 
     35 S35        10.3508   56.1187   15.1646 S.3       1 UNK         0.0000 
     36 H36        -0.4641   51.1253   24.6401 H         1 UNK         0.0000 
     37 H37         1.1736   51.4296   25.1985 H         1 UNK         0.0000 
     38 H38         0.9056   50.7740   23.5861 H         1 UNK         0.0000 
     39 H39        -0.3012   52.8951   22.9361 H         1 UNK         0.0000 
     40 H40         0.0509   53.6128   24.4810 H         1 UNK         0.0000 
     41 H41         1.7844   53.5361   25.9590 H         1 UNK         0.0000 
     42 H42         3.7356   54.1943   27.2302 H         1 UNK         0.0000 
     43 H43         5.8765   54.7664   26.1176 H         1 UNK         0.0000 
     44 H44         5.9675   53.1498   18.7365 H         1 UNK         0.0000 
     45 H45         4.9222   52.6207   19.9776 H         1 UNK         0.0000 
     46 H46         3.1048   54.1384   19.3343 H         1 UNK         0.0000 
     47 H47         4.1068   54.9708   18.1488 H         1 UNK         0.0000 
     48 H48         5.2935   52.0999   16.8818 H         1 UNK         0.0000 
     49 H49         3.9923   52.2036   15.6641 H         1 UNK         0.0000 
     50 H50         4.9122   53.6792   16.1123 H         1 UNK         0.0000 
     51 H51         3.5044   51.2807   18.7972 H         1 UNK         0.0000 
     52 H52         1.9061   52.0793   18.6663 H         1 UNK         0.0000 
     53 H53         2.5483   51.1123   17.2934 H         1 UNK         0.0000 
     54 H54         6.8408   56.9630   16.7245 H         1 UNK         0.0000 
     55 H55         5.4972   57.1860   17.7718 H         1 UNK         0.0000 
     56 H56         7.0853   59.1545   17.6884 H         1 UNK         0.0000 
     57 H57         7.0760   58.5333   19.3015 H         1 UNK         0.0000 
     58 H58         9.1557   58.0362   17.1216 H         1 UNK         0.0000 
     59 H59         9.4275   58.8447   18.6322 H         1 UNK         0.0000 
     60 H60        10.3540   56.4756   18.4805 H         1 UNK         0.0000 
     61 H61         9.3884   56.7294   19.8866 H         1 UNK         0.0000 
     62 H62         7.1112   54.4596   15.0309 H         1 UNK         0.0000 
     63 H63         7.5097   55.8849   12.8953 H         1 UNK         0.0000 
     64 H64         9.8647   57.1015   12.9628 H         1 UNK         0.0000 
     65 H65         2.7115   53.5348   17.0727 H         1 UNK         0.0000 
@<TRIPOS>BOND
     1    1    2 1    
     2    1   36 1    
     3    1   37 1    
     4    1   38 1    
     5    2    3 1    
     6    2   39 1    
     7    2   40 1    
     8    3    4 1    
     9    4    9 ar   
    10    4    5 ar   
    11    5    6 ar   
    12    5   41 1    
    13    6    7 ar   
    14    6   42 1    
    15    7    8 ar   
    16    7   43 1    
    17    8   12 1    
    18    8    9 ar   
    19    9   10 1    
    20   10   11 2    
    21   11   12 1    
    22   11   13 am   BACKBONE|DICT|INTERRES
    23   13   14 1    
    24   13   19 am   BACKBONE|DICT|INTERRES
    25   14   15 1    
    26   14   44 1    
    27   14   45 1    
    28   15   16 1    
    29   15   46 1    
    30   15   47 1    
    31   16   17 1    
    32   16   18 1    
    33   16   65 1    
    34   17   48 1    
    35   17   49 1    
    36   17   50 1    
    37   18   51 1    
    38   18   52 1    
    39   18   53 1    
    40   19   20 2    
    41   19   21 1    
    42   21   22 1    
    43   21   27 1    
    44   21   23 1    
    45   23   24 1    
    46   23   54 1    
    47   23   55 1    
    48   24   25 1    
    49   24   56 1    
    50   24   57 1    
    51   25   26 1    
    52   25   58 1    
    53   25   59 1    
    54   26   27 1    
    55   26   60 1    
    56   26   61 1    
    57   27   28 1    
    58   28   29 2    
    59   28   30 2    
    60   28   31 1    
    61   31   35 1    
    62   31   32 2    
    63   32   33 1    
    64   32   62 1    
    65   33   34 2    
    66   33   63 1    
    67   34   35 1    
    68   34   64 1    
@<TRIPOS>SUBSTRUCTURE
     1 UNK         1 GROUP             0       ****    0 ROOT    
