@<TRIPOS>MOLECULE
ZINC12714652_3114
65   68    1
SMALL
USER_CHARGES


@<TRIPOS>ATOM
      1 C1         -0.5369   47.4226   24.8410 C.3       1 UNK         0.0000 
      2 C2         -0.8953   47.9954   23.4888 C.ar      1 UNK         0.0000 
      3 C3         -1.9004   47.4250   22.7093 C.ar      1 UNK         0.0000 
      4 C4         -2.2092   47.9644   21.4622 C.ar      1 UNK         0.0000 
      5 C5         -1.5252   49.0923   20.9772 C.ar      1 UNK         0.0000 
      6 C6         -0.4976   49.6478   21.7654 C.ar      1 UNK         0.0000 
      7 C7         -0.1839   49.0916   23.0085 C.ar      1 UNK         0.0000 
      8 N8          0.1545   50.8544   21.4015 N.am      1 UNK         0.0000 
      9 C9         -0.1725   52.0940   22.1648 C.3       1 UNK         0.0000 
     10 H10        -0.1132   52.8982   21.4372 H         1 UNK         0.0000 
     11 C11         0.8013   52.4513   23.2485 C.2       1 UNK         0.0000 
     12 C12         1.9446   53.2355   23.2664 C.2       1 UNK         0.0000 
     13 C13         2.3756   53.2981   24.5921 C.2       1 UNK         0.0000 
     14 C14         1.5035   52.5182   25.3341 C.2       1 UNK         0.0000 
     15 O15         0.5739   51.9830   24.5067 O.3       1 UNK         0.0000 
     16 C16         1.3711   52.1743   26.7972 C.3       1 UNK         0.0000 
     17 C17        -1.6679   52.2098   22.5729 C.2       1 UNK         0.0000 
     18 O18        -2.4956   52.0958   21.6752 O.2       1 UNK         0.0000 
     19 N19        -1.9991   52.4744   23.8482 N.am      1 UNK         0.0000 
     20 C20        -3.3534   52.4921   24.4002 C.3       1 UNK         0.0000 
     21 C21        -4.0016   51.0992   24.4259 C.3       1 UNK         0.0000 
     22 C22        -3.4742   50.4371   25.7058 C.3       1 UNK         0.0000 
     23 C23        -3.1134   51.5846   26.6665 C.3       1 UNK         0.0000 
     24 C24        -3.3212   52.8906   25.8816 C.3       1 UNK         0.0000 
     25 C25         1.0393   50.9487   20.3540 C.2       1 UNK         0.0000 
     26 O26         1.6360   51.9896   20.0699 O.2       1 UNK         0.0000 
     27 C27         1.2368   49.8076   19.4906 C.2       1 UNK         0.0000 
     28 C28         0.9202   49.6527   18.1426 C.2       1 UNK         0.0000 
     29 C29         1.2813   48.3669   17.6748 C.2       1 UNK         0.0000 
     30 N30         1.7834   47.5381   18.5780 N.2       1 UNK         0.0000 
     31 S31         1.9053   48.3302   20.0818 S.3       1 UNK         0.0000 
     32 C32         1.0614   47.8523   16.3285 C.2       1 UNK         0.0000 
     33 O33         0.1500   48.2577   15.6099 O.2       1 UNK         0.0000 
     34 N34         1.9060   46.9056   15.9037 N.am      1 UNK         0.0000 
     35 N35         0.3435   50.6383   17.3784 N.pl3     1 UNK         0.0000 
     36 O36        -1.8211   49.7033   19.7726 O.3       1 UNK         0.0000 
     37 C37        -2.7434   49.0922   18.8799 C.3       1 UNK         0.0000 
     38 H38         0.5442   47.2967   24.8815 H         1 UNK         0.0000 
     39 H39        -0.8181   48.1035   25.6454 H         1 UNK         0.0000 
     40 H40        -0.9984   46.4516   25.0204 H         1 UNK         0.0000 
     41 H41        -2.4521   46.5694   23.0706 H         1 UNK         0.0000 
     42 H42        -3.0035   47.5061   20.8938 H         1 UNK         0.0000 
     43 H43         0.5954   49.5276   23.6186 H         1 UNK         0.0000 
     44 H44         2.3843   53.7368   22.4146 H         1 UNK         0.0000 
     45 H45         3.2252   53.8478   24.9685 H         1 UNK         0.0000 
     46 H46         2.2971   52.3592   27.3429 H         1 UNK         0.0000 
     47 H47         0.5886   52.7675   27.2719 H         1 UNK         0.0000 
     48 H48         1.1066   51.1262   26.9438 H         1 UNK         0.0000 
     49 H49        -1.2421   52.5454   24.5147 H         1 UNK         0.0000 
     50 H50        -3.9041   53.2200   23.8006 H         1 UNK         0.0000 
     51 H51        -3.8140   50.5128   23.5253 H         1 UNK         0.0000 
     52 H52        -5.0852   51.2124   24.4891 H         1 UNK         0.0000 
     53 H53        -2.5833   49.8489   25.4791 H         1 UNK         0.0000 
     54 H54        -4.2044   49.7522   26.1390 H         1 UNK         0.0000 
     55 H55        -2.0765   51.4878   26.9925 H         1 UNK         0.0000 
     56 H56        -3.7329   51.5595   27.5643 H         1 UNK         0.0000 
     57 H57        -4.2886   53.3182   26.1511 H         1 UNK         0.0000 
     58 H58        -2.5872   53.6621   26.1142 H         1 UNK         0.0000 
     59 H59         2.7434   46.7241   16.4377 H         1 UNK         0.0000 
     60 H60         1.7939   46.5230   14.9795 H         1 UNK         0.0000 
     61 H61         0.1329   50.4812   16.4013 H         1 UNK         0.0000 
     62 H62         0.1924   51.5687   17.7404 H         1 UNK         0.0000 
     63 H63        -2.7950   49.6810   17.9651 H         1 UNK         0.0000 
     64 H64        -2.4299   48.0830   18.6083 H         1 UNK         0.0000 
     65 H65        -3.7473   49.0558   19.3053 H         1 UNK         0.0000 
@<TRIPOS>BOND
     1    1    2 1    
     2    1   38 1    
     3    1   39 1    
     4    1   40 1    
     5    2    7 ar   
     6    2    3 ar   
     7    3    4 ar   
     8    3   41 1    
     9    4    5 ar   
    10    4   42 1    
    11    5    6 ar   
    12    5   36 1    
    13    6    7 ar   
    14    6    8 1    
    15    7   43 1    
    16    8    9 1    
    17    8   25 am   BACKBONE|DICT|INTERRES
    18    9   10 1    
    19    9   11 1    
    20    9   17 1    
    21   11   15 1    
    22   11   12 2    
    23   12   13 1    
    24   12   44 1    
    25   13   14 2    
    26   13   45 1    
    27   14   15 1    
    28   14   16 1    
    29   16   46 1    
    30   16   47 1    
    31   16   48 1    
    32   17   18 2    
    33   17   19 am   BACKBONE|DICT|INTERRES
    34   19   20 1    
    35   19   49 1    
    36   20   24 1    
    37   20   21 1    
    38   20   50 1    
    39   21   22 1    
    40   21   51 1    
    41   21   52 1    
    42   22   23 1    
    43   22   53 1    
    44   22   54 1    
    45   23   24 1    
    46   23   55 1    
    47   23   56 1    
    48   24   57 1    
    49   24   58 1    
    50   25   26 2    
    51   25   27 1    
    52   27   31 1    
    53   27   28 2    
    54   28   29 1    
    55   28   35 1    
    56   29   30 2    
    57   29   32 1    
    58   30   31 1    
    59   32   33 2    
    60   32   34 am   BACKBONE|DICT|INTERRES
    61   34   59 1    
    62   34   60 1    
    63   35   61 1    
    64   35   62 1    
    65   36   37 1    
    66   37   63 1    
    67   37   64 1    
    68   37   65 1    
@<TRIPOS>SUBSTRUCTURE
     1 UNK         1 GROUP             0       ****    0 ROOT    
