ZINC35363689_6044
                    3D
 Schrodinger Suite 2024-2.
 64 68  0  0  1  0            999 V2000
    1.0824   53.4716   29.9063 C   0  0  0  0  0  0
    1.5078   54.7878   29.7391 C   0  0  0  0  0  0
    2.7780   55.0411   29.2289 C   0  0  0  0  0  0
    3.6171   53.9770   28.8810 C   0  0  0  0  0  0
    3.1907   52.6594   29.0675 C   0  0  0  0  0  0
    1.9161   52.4068   29.5698 C   0  0  0  0  0  0
    4.9969   54.2565   28.2945 C   0  0  0  0  0  0
    5.1294   53.9896   26.7698 N   0  3  1  0  0  0
    4.0290   54.7238   25.9701 C   0  0  0  0  0  0
    4.1383   54.3404   24.4992 C   0  0  0  0  0  0
    5.5289   54.6151   23.9079 C   0  0  1  0  0  0
    6.7034   54.1347   24.7898 C   0  0  0  0  0  0
    6.5362   54.4314   26.2944 C   0  0  0  0  0  0
    5.5833   54.2731   22.4849 N   0  0  0  0  0  0
    6.3039   54.9003   21.5401 C   0  0  0  0  0  0
    7.1051   55.7979   21.7949 O   0  0  0  0  0  0
    6.0444   54.4421   20.0910 C   0  0  0  0  0  0
    7.1301   54.8406   19.0415 C   0  0  1  0  0  0
    8.0906   54.5688   19.4848 H   0  0  0  0  0  0
    7.0002   54.0290   17.7445 C   0  0  0  0  0  0
    8.0829   53.2657   17.2822 C   0  0  0  0  0  0
    7.9739   52.5020   16.1202 C   0  0  0  0  0  0
    6.7850   52.5068   15.3931 C   0  0  0  0  0  0
    5.7109   53.2834   15.8246 C   0  0  0  0  0  0
    5.8135   54.0409   16.9917 C   0  0  0  0  0  0
    4.7510   54.7818   17.3827 F   0  0  0  0  0  0
    7.1339   56.3343   18.7414 C   0  0  0  0  0  0
    6.1264   57.2955   18.7894 C   0  0  0  0  0  0
    6.4996   58.4959   18.4206 N   0  0  0  0  0  0
    7.8003   58.3516   18.0814 C   0  0  0  0  0  0
    8.2383   57.0265   18.2883 N   0  0  0  0  0  0
    9.5348   56.6519   18.0445 C   0  0  0  0  0  0
   10.4423   57.5963   17.5736 C   0  0  0  0  0  0
   10.0288   58.9075   17.3413 C   0  0  0  0  0  0
    8.7117   59.3029   17.5887 C   0  0  0  0  0  0
   12.0801   57.1395   17.2790 Cl  0  0  0  0  0  0
    0.0967   53.2704   30.3014 H   0  0  0  0  0  0
    0.8560   55.6073   30.0054 H   0  0  0  0  0  0
    3.1019   56.0635   29.0970 H   0  0  0  0  0  0
    3.8352   51.8325   28.8094 H   0  0  0  0  0  0
    1.5687   51.3919   29.6938 H   0  0  0  0  0  0
    5.7564   53.6245   28.7632 H   0  0  0  0  0  0
    5.2908   55.2965   28.4442 H   0  0  0  0  0  0
    4.1699   55.7948   26.0817 H   0  0  0  0  0  0
    3.0564   54.4200   26.3583 H   0  0  0  0  0  0
    3.3847   54.8970   23.9399 H   0  0  0  0  0  0
    3.8838   53.2896   24.3912 H   0  0  0  0  0  0
    5.6186   55.6964   24.0023 H   0  0  0  0  0  0
    6.8596   53.0736   24.6608 H   0  0  0  0  0  0
    7.6153   54.6165   24.4484 H   0  0  0  0  0  0
    6.6436   55.4951   26.5203 H   0  0  0  0  0  0
    7.2636   53.8627   26.8776 H   0  0  0  0  0  0
    4.8850   53.6185   22.1650 H   0  0  0  0  0  0
    5.0721   54.8346   19.7929 H   0  0  0  0  0  0
    5.9042   53.3586   20.0846 H   0  0  0  0  0  0
    9.0122   53.2431   17.8335 H   0  0  0  0  0  0
    8.8086   51.9031   15.7869 H   0  0  0  0  0  0
    6.6955   51.9079   14.4977 H   0  0  0  0  0  0
    4.7898   53.2898   15.2623 H   0  0  0  0  0  0
    5.1057   57.1089   19.0844 H   0  0  0  0  0  0
    9.8029   55.6265   18.2424 H   0  0  0  0  0  0
   10.7402   59.6259   16.9610 H   0  0  0  0  0  0
    8.3788   60.3163   17.3993 H   0  0  0  0  0  0
    5.0203   52.9918   26.6195 H   0  0  0  0  0  0
  1  6  2  0  0  0
  1  2  1  0  0  0
  1 37  1  0  0  0
  2  3  2  0  0  0
  2 38  1  0  0  0
  3  4  1  0  0  0
  3 39  1  0  0  0
  4  5  2  0  0  0
  4  7  1  0  0  0
  5  6  1  0  0  0
  5 40  1  0  0  0
  6 41  1  0  0  0
  7  8  1  0  0  0
  7 42  1  0  0  0
  7 43  1  0  0  0
  8 13  1  0  0  0
  8  9  1  0  0  0
  8 64  1  0  0  0
  9 10  1  0  0  0
  9 44  1  0  0  0
  9 45  1  0  0  0
 10 11  1  0  0  0
 10 46  1  0  0  0
 10 47  1  0  0  0
 11 12  1  0  0  0
 11 14  1  0  0  0
 11 48  1  0  0  0
 12 13  1  0  0  0
 12 49  1  0  0  0
 12 50  1  0  0  0
 13 51  1  0  0  0
 13 52  1  0  0  0
 14 15  1  0  0  0
 14 53  1  0  0  0
 15 16  2  0  0  0
 15 17  1  0  0  0
 17 18  1  0  0  0
 17 54  1  0  0  0
 17 55  1  0  0  0
 18 19  1  0  0  0
 18 20  1  0  0  0
 18 27  1  0  0  0
 20 25  2  0  0  0
 20 21  1  0  0  0
 21 22  2  0  0  0
 21 56  1  0  0  0
 22 23  1  0  0  0
 22 57  1  0  0  0
 23 24  2  0  0  0
 23 58  1  0  0  0
 24 25  1  0  0  0
 24 59  1  0  0  0
 25 26  1  0  0  0
 27 31  1  0  0  0
 27 28  2  0  0  0
 28 29  1  0  0  0
 28 60  1  0  0  0
 29 30  2  0  0  0
 30 35  1  0  0  0
 30 31  1  0  0  0
 31 32  1  0  0  0
 32 33  2  0  0  0
 32 61  1  0  0  0
 33 34  1  0  0  0
 33 36  1  0  0  0
 34 35  2  0  0  0
 34 62  1  0  0  0
 35 63  1  0  0  0
M  CHG  1   8   1
M  END
> <i_i_glide_confnum>
10

> <i_i_glide_lignum>
6045

> <i_i_glide_posenum>
288

> <i_i_glide_rotatable_bonds>
8

> <i_m_Source_File_Index>
158

> <b_m_subgroup_collapsed>
0

> <r_i_docking_score>
-4.91004

> <r_i_glide_ecoul>
0.107672

> <r_i_glide_eff_state_penalty>
0

> <r_i_glide_einternal>
8.57784

> <r_i_glide_emodel>
-53.1287

> <r_i_glide_energy>
-41.4002

> <r_i_glide_erotb>
0.672911

> <r_i_glide_esite>
-0.0306082

> <r_i_glide_evdw>
-41.5078

> <r_i_glide_gscore>
-4.91004

> <r_i_glide_hbond>
0

> <r_i_glide_ligand_efficiency>
-0.140287

> <r_i_glide_ligand_efficiency_ln>
-1.07786

> <r_i_glide_ligand_efficiency_sa>
-0.458888

> <r_i_glide_lipo>
-3.01408

> <r_i_glide_metal>
0

> <r_i_glide_rewards>
-0.479023

> <s_i_glide_gridfile>
wee1_glide-grid

> <s_m_Source_File>
wee1_decoys_glide_SP.sdf

> <s_m_Source_Path>
/Users/zhangxujun/Desktop

> <s_m_entry_id>
433

> <s_m_entry_name>
wee1_decoys_glide_SP.158

> <s_m_subgroup_title>
wee1_decoys_glide_SP

> <s_m_subgroupid>
wee1_decoys_glide_SP


$$$$
