@<TRIPOS>MOLECULE
ZINC12347872_3563
42   45    1
SMALL
USER_CHARGES


@<TRIPOS>ATOM
      1 C1          0.8106   50.5220   17.5364 C.3       1 UNK         0.0000 
      2 C2          1.5203   51.4861   18.5105 C.3       1 UNK         0.0000 
      3 C3          2.4065   52.4485   17.6661 C.3       1 UNK         0.0000 
      4 C4          3.4271   53.2175   18.5147 C.2       1 UNK         0.0000 
      5 C5          3.8725   52.7807   19.7331 C.2       1 UNK         0.0000 
      6 C6          4.9086   53.5851   20.5806 C.3       1 UNK         0.0000 
      7 H7          5.7750   52.9235   20.5983 H         1 UNK         0.0000 
      8 C8          5.3070   54.8577   19.8263 C.ar      1 UNK         0.0000 
      9 C9          4.7272   55.2012   18.6199 C.ar      1 UNK         0.0000 
     10 N10         5.2755   56.3875   18.2319 N.pl3     1 UNK         0.0000 
     11 H11         5.0579   56.8800   17.3774 H         1 UNK         0.0000 
     12 N12         6.1673   56.8389   19.1206 N.2       1 UNK         0.0000 
     13 C13         6.1735   55.9429   20.0871 C.ar      1 UNK         0.0000 
     14 O14         6.9616   56.0986   21.1945 O.3       1 UNK         0.0000 
     15 N15         3.7955   54.4378   17.9642 N.pl3     1 UNK         0.0000 
     16 C16         4.6009   53.8442   22.0635 C.ar      1 UNK         0.0000 
     17 C17         5.6505   53.8725   22.9911 C.ar      1 UNK         0.0000 
     18 C18         5.3897   54.0971   24.3395 C.ar      1 UNK         0.0000 
     19 C19         4.0750   54.2642   24.7700 C.ar      1 UNK         0.0000 
     20 C20         3.0231   54.2414   23.8564 C.ar      1 UNK         0.0000 
     21 C21         3.2869   54.0444   22.5022 C.ar      1 UNK         0.0000 
     22 Br22        3.7246   54.4966   26.6255 Br        1 UNK         0.0000 
     23 C23         3.4361   51.4629   20.2606 C.2       1 UNK         0.0000 
     24 O24         3.9088   50.9688   21.2826 O.2       1 UNK         0.0000 
     25 C25         2.4588   50.6406   19.4038 C.3       1 UNK         0.0000 
     26 C26         0.5189   52.2621   19.3988 C.3       1 UNK         0.0000 
     27 H27         0.1438   51.0600   16.8606 H         1 UNK         0.0000 
     28 H28         1.5230   49.9707   16.9200 H         1 UNK         0.0000 
     29 H29         0.2059   49.7880   18.0727 H         1 UNK         0.0000 
     30 H30         1.7148   53.1384   17.1755 H         1 UNK         0.0000 
     31 H31         2.9792   51.9267   16.8943 H         1 UNK         0.0000 
     32 H32         6.6609   55.4959   21.8789 H         1 UNK         0.0000 
     33 H33         3.4226   54.7162   17.0729 H         1 UNK         0.0000 
     34 H34         6.6695   53.7027   22.6732 H         1 UNK         0.0000 
     35 H35         6.1980   54.1036   25.0544 H         1 UNK         0.0000 
     36 H36         2.0056   54.3742   24.1956 H         1 UNK         0.0000 
     37 H37         2.4701   54.0319   21.7951 H         1 UNK         0.0000 
     38 H38         3.0999   50.0392   18.7537 H         1 UNK         0.0000 
     39 H39         1.9224   49.9385   20.0413 H         1 UNK         0.0000 
     40 H40        -0.1283   52.8994   18.7955 H         1 UNK         0.0000 
     41 H41        -0.1263   51.5793   19.9553 H         1 UNK         0.0000 
     42 H42         1.0147   52.8971   20.1303 H         1 UNK         0.0000 
@<TRIPOS>BOND
     1    1    2 1    
     2    1   27 1    
     3    1   28 1    
     4    1   29 1    
     5    2   25 1    
     6    2    3 1    
     7    2   26 1    
     8    3    4 1    
     9    3   30 1    
    10    3   31 1    
    11    4   15 1    
    12    4    5 2    
    13    5    6 1    
    14    5   23 1    
    15    6    7 1    
    16    6    8 1    
    17    6   16 1    
    18    8   13 ar   
    19    8    9 ar   
    20    9   10 ar   
    21    9   15 1    
    22   10   11 1    
    23   10   12 ar   
    24   12   13 ar   
    25   13   14 1    
    26   14   32 1    
    27   15   33 1    
    28   16   21 ar   
    29   16   17 ar   
    30   17   18 ar   
    31   17   34 1    
    32   18   19 ar   
    33   18   35 1    
    34   19   20 ar   
    35   19   22 1    
    36   20   21 ar   
    37   20   36 1    
    38   21   37 1    
    39   23   24 2    
    40   23   25 1    
    41   25   38 1    
    42   25   39 1    
    43   26   40 1    
    44   26   41 1    
    45   26   42 1    
@<TRIPOS>SUBSTRUCTURE
     1 UNK         1 GROUP             0       ****    0 ROOT    
