@<TRIPOS>MOLECULE
ZINC17287336_5528
75   80    1
SMALL
USER_CHARGES


@<TRIPOS>ATOM
      1 C1          6.7202   54.7634   27.2819 C.3       1 UNK         0.0000 
      2 O2          6.7102   55.2732   25.9537 O.3       1 UNK         0.0000 
      3 C3          5.7438   54.7918   25.1019 C.ar      1 UNK         0.0000 
      4 C4          4.4467   54.4776   25.5277 C.ar      1 UNK         0.0000 
      5 C5          3.4993   53.9481   24.6520 C.ar      1 UNK         0.0000 
      6 C6          3.8619   53.7206   23.3157 C.ar      1 UNK         0.0000 
      7 C7          5.1708   54.0972   22.8922 C.ar      1 UNK         0.0000 
      8 C8          6.1190   54.6346   23.7681 C.ar      1 UNK         0.0000 
      9 N9          5.2396   53.8267   21.5448 N.pl3     1 UNK         0.0000 
     10 H10         6.0207   53.9942   20.9283 H         1 UNK         0.0000 
     11 C11         4.0783   53.2383   21.1131 C.ar      1 UNK         0.0000 
     12 C12         3.1998   53.1413   22.1810 C.ar      1 UNK         0.0000 
     13 C13         1.8113   52.5440   22.0346 C.3       1 UNK         0.0000 
     14 C14         1.7541   51.6752   20.7543 C.3       1 UNK         0.0000 
     15 C15         3.8293   52.7522   19.6895 C.3       1 UNK         0.0000 
     16 H16         4.3039   51.7807   19.5335 H         1 UNK         0.0000 
     17 C17         4.2286   53.7511   18.5828 C.3       1 UNK         0.0000 
     18 C18         3.8727   53.2471   17.1564 C.3       1 UNK         0.0000 
     19 H19         4.4416   52.3226   17.0201 H         1 UNK         0.0000 
     20 C20         2.3820   52.8263   17.0602 C.3       1 UNK         0.0000 
     21 H21         2.2685   52.2852   16.1183 H         1 UNK         0.0000 
     22 C22         1.9926   51.8451   18.1914 C.3       1 UNK         0.0000 
     23 C23         1.4653   54.0682   16.9949 C.3       1 UNK         0.0000 
     24 C24         1.8025   54.9723   15.7876 C.3       1 UNK         0.0000 
     25 H25         1.6692   54.4079   14.8620 H         1 UNK         0.0000 
     26 C26         3.2895   55.4267   15.8373 C.3       1 UNK         0.0000 
     27 H27         3.4316   56.0871   16.6973 H         1 UNK         0.0000 
     28 C28         4.2410   54.1957   15.9705 C.3       1 UNK         0.0000 
     29 H29         4.1193   53.6170   15.0540 H         1 UNK         0.0000 
     30 C30         5.7347   54.5847   15.9923 C.2       1 UNK         0.0000 
     31 O31         6.5679   53.9051   15.3913 O.2       1 UNK         0.0000 
     32 O32         5.9998   55.7014   16.7102 O.3       1 UNK         0.0000 
     33 C33         7.3278   56.1942   16.8080 C.3       1 UNK         0.0000 
     34 O34         3.6420   56.1181   14.6356 O.3       1 UNK         0.0000 
     35 C35         3.5246   57.5359   14.6729 C.3       1 UNK         0.0000 
     36 O36         0.9174   56.0962   15.7521 O.3       1 UNK         0.0000 
     37 C37        -0.3645   55.9919   15.2996 C.2       1 UNK         0.0000 
     38 O38        -0.8650   54.9294   14.9214 O.2       1 UNK         0.0000 
     39 C39        -1.1176   57.2890   15.3269 C.ar      1 UNK         0.0000 
     40 C40        -0.4986   58.4976   15.6818 C.ar      1 UNK         0.0000 
     41 C41        -1.2216   59.6868   15.6815 C.ar      1 UNK         0.0000 
     42 C42        -2.5684   59.6803   15.3329 C.ar      1 UNK         0.0000 
     43 C43        -3.1987   58.4904   14.9818 C.ar      1 UNK         0.0000 
     44 C44        -2.4757   57.3000   14.9757 C.ar      1 UNK         0.0000 
     45 N45        -3.2915   60.8704   15.3428 N.pl3     1 UNK         0.0000 
     46 H46         7.7223   54.8964   27.6830 H         1 UNK         0.0000 
     47 H47         6.0176   55.2974   27.9224 H         1 UNK         0.0000 
     48 H48         6.5002   53.6943   27.3243 H         1 UNK         0.0000 
     49 H49         4.1659   54.6327   26.5587 H         1 UNK         0.0000 
     50 H50         2.5128   53.6876   25.0061 H         1 UNK         0.0000 
     51 H51         7.1156   54.9002   23.4455 H         1 UNK         0.0000 
     52 H52         1.0861   53.3550   21.9738 H         1 UNK         0.0000 
     53 H53         1.5444   51.9421   22.9041 H         1 UNK         0.0000 
     54 H54         0.7194   51.4179   20.5219 H         1 UNK         0.0000 
     55 H55         2.3570   50.7659   20.8144 H         1 UNK         0.0000 
     56 H56         5.2974   53.9537   18.6483 H         1 UNK         0.0000 
     57 H57         3.7516   54.7150   18.7666 H         1 UNK         0.0000 
     58 H58         0.9179   51.6576   18.1772 H         1 UNK         0.0000 
     59 H59         2.5338   50.8959   18.1410 H         1 UNK         0.0000 
     60 H60         1.5520   54.6242   17.9256 H         1 UNK         0.0000 
     61 H61         0.4325   53.7235   16.9355 H         1 UNK         0.0000 
     62 H62         7.3427   57.1028   17.4097 H         1 UNK         0.0000 
     63 H63         7.9850   55.4619   17.2797 H         1 UNK         0.0000 
     64 H64         7.7299   56.4343   15.8224 H         1 UNK         0.0000 
     65 H65         3.8524   57.9493   13.7190 H         1 UNK         0.0000 
     66 H66         2.4993   57.8629   14.8357 H         1 UNK         0.0000 
     67 H67         4.1568   57.9652   15.4518 H         1 UNK         0.0000 
     68 H68         0.5427   58.5385   15.9709 H         1 UNK         0.0000 
     69 H69        -0.7262   60.6048   15.9624 H         1 UNK         0.0000 
     70 H70        -4.2442   58.4804   14.7109 H         1 UNK         0.0000 
     71 H71        -2.9852   56.3886   14.6928 H         1 UNK         0.0000 
     72 H72        -4.1893   60.8719   14.8814 H         1 UNK         0.0000 
     73 H73        -2.7611   61.7283   15.3871 H         1 UNK         0.0000 
     74 N74         2.3023   52.4962   19.5621 N.4       1 UNK         0.0000 
     75 H75         1.8237   53.3913   19.5861 H         1 UNK         0.0000 
@<TRIPOS>BOND
     1    1    2 1    
     2    1   46 1    
     3    1   47 1    
     4    1   48 1    
     5    2    3 1    
     6    3    8 ar   
     7    3    4 ar   
     8    4    5 ar   
     9    4   49 1    
    10    5    6 ar   
    11    5   50 1    
    12    6   12 ar   
    13    6    7 ar   
    14    7    8 ar   
    15    7    9 ar   
    16    8   51 1    
    17    9   10 1    
    18    9   11 ar   
    19   11   15 1    
    20   11   12 ar   
    21   12   13 1    
    22   13   14 1    
    23   13   52 1    
    24   13   53 1    
    25   14   54 1    
    26   14   55 1    
    27   14   74 1    
    28   15   16 1    
    29   15   17 1    
    30   15   74 1    
    31   17   18 1    
    32   17   56 1    
    33   17   57 1    
    34   18   19 1    
    35   18   28 1    
    36   18   20 1    
    37   20   21 1    
    38   20   22 1    
    39   20   23 1    
    40   22   58 1    
    41   22   59 1    
    42   22   74 1    
    43   23   24 1    
    44   23   60 1    
    45   23   61 1    
    46   24   25 1    
    47   24   26 1    
    48   24   36 1    
    49   26   27 1    
    50   26   28 1    
    51   26   34 1    
    52   28   29 1    
    53   28   30 1    
    54   30   31 2    
    55   30   32 1    
    56   32   33 1    
    57   33   62 1    
    58   33   63 1    
    59   33   64 1    
    60   34   35 1    
    61   35   65 1    
    62   35   66 1    
    63   35   67 1    
    64   36   37 1    
    65   37   38 2    
    66   37   39 1    
    67   39   44 ar   
    68   39   40 ar   
    69   40   41 ar   
    70   40   68 1    
    71   41   42 ar   
    72   41   69 1    
    73   42   43 ar   
    74   42   45 1    
    75   43   44 ar   
    76   43   70 1    
    77   44   71 1    
    78   45   72 1    
    79   45   73 1    
    80   74   75 1    
@<TRIPOS>SUBSTRUCTURE
     1 UNK         1 GROUP             0       ****    0 ROOT    
