@<TRIPOS>MOLECULE
ZINC11730525_12
47   50    1
SMALL
USER_CHARGES


@<TRIPOS>ATOM
      1 C1         11.2376   50.2901   16.1315 C.3       1 UNK         0.0000 
      2 O2         11.2741   51.6804   16.4408 O.3       1 UNK         0.0000 
      3 C3         10.0906   52.3447   16.6970 C.ar      1 UNK         0.0000 
      4 C4          8.8202   51.7536   16.6150 C.ar      1 UNK         0.0000 
      5 C5          7.6794   52.4989   16.8996 C.ar      1 UNK         0.0000 
      6 C6          7.8037   53.8390   17.2700 C.ar      1 UNK         0.0000 
      7 C7          9.0626   54.4330   17.3608 C.ar      1 UNK         0.0000 
      8 C8         10.1993   53.6851   17.0707 C.ar      1 UNK         0.0000 
      9 S9          6.3450   54.8185   17.6061 S.o2      1 UNK         0.0000 
     10 O10         6.6214   56.1769   17.1240 O.2       1 UNK         0.0000 
     11 O11         5.1834   54.0715   17.1165 O.2       1 UNK         0.0000 
     12 C12         6.2613   54.9262   19.4244 C.ar      1 UNK         0.0000 
     13 C13         5.4936   54.2094   20.3633 C.ar      1 UNK         0.0000 
     14 N14         5.9062   54.7487   21.5780 N.pl3     1 UNK         0.0000 
     15 N15         6.8351   55.6964   21.3807 N.2       1 UNK         0.0000 
     16 N16         7.0496   55.7918   20.0289 N.2       1 UNK         0.0000 
     17 C17         5.4985   54.4723   22.9089 C.ar      1 UNK         0.0000 
     18 C18         4.1432   54.2725   23.2046 C.ar      1 UNK         0.0000 
     19 C19         3.7379   54.0971   24.5253 C.ar      1 UNK         0.0000 
     20 C20         4.6826   54.1195   25.5495 C.ar      1 UNK         0.0000 
     21 C21         6.0344   54.2954   25.2635 C.ar      1 UNK         0.0000 
     22 C22         6.4459   54.4661   23.9446 C.ar      1 UNK         0.0000 
     23 N23         4.2733   53.9646   26.8711 N.pl3     1 UNK         0.0000 
     24 C24         4.4675   53.1284   20.2112 C.ar      1 UNK         0.0000 
     25 C25         4.5075   51.9696   20.9958 C.ar      1 UNK         0.0000 
     26 C26         3.5040   51.0078   20.8775 C.ar      1 UNK         0.0000 
     27 C27         2.4814   51.1848   19.9516 C.ar      1 UNK         0.0000 
     28 C28         2.4420   52.3240   19.1558 C.ar      1 UNK         0.0000 
     29 C29         3.4276   53.2966   19.2956 C.ar      1 UNK         0.0000 
     30 F30         1.5099   50.2511   19.8391 F         1 UNK         0.0000 
     31 H31        12.2545   49.9271   15.9834 H         1 UNK         0.0000 
     32 H32        10.6832   50.0965   15.2115 H         1 UNK         0.0000 
     33 H33        10.7961   49.7108   16.9445 H         1 UNK         0.0000 
     34 H34         8.7019   50.7182   16.3355 H         1 UNK         0.0000 
     35 H35         6.7051   52.0330   16.8389 H         1 UNK         0.0000 
     36 H36         9.1625   55.4703   17.6484 H         1 UNK         0.0000 
     37 H37        11.1750   54.1432   17.1424 H         1 UNK         0.0000 
     38 H38         3.3949   54.2918   22.4245 H         1 UNK         0.0000 
     39 H39         2.6898   53.9615   24.7478 H         1 UNK         0.0000 
     40 H40         6.7656   54.3011   26.0578 H         1 UNK         0.0000 
     41 H41         7.4999   54.6124   23.7386 H         1 UNK         0.0000 
     42 H42         3.3478   53.5908   27.0194 H         1 UNK         0.0000 
     43 H43         4.9886   53.7647   27.5545 H         1 UNK         0.0000 
     44 H44         5.3019   51.8230   21.7126 H         1 UNK         0.0000 
     45 H45         3.5043   50.1224   21.4937 H         1 UNK         0.0000 
     46 H46         1.6411   52.4615   18.4457 H         1 UNK         0.0000 
     47 H47         3.3553   54.1984   18.7070 H         1 UNK         0.0000 
@<TRIPOS>BOND
     1    1    2 1    
     2    1   31 1    
     3    1   32 1    
     4    1   33 1    
     5    2    3 1    
     6    3    8 ar   
     7    3    4 ar   
     8    4    5 ar   
     9    4   34 1    
    10    5    6 ar   
    11    5   35 1    
    12    6    7 ar   
    13    6    9 1    
    14    7    8 ar   
    15    7   36 1    
    16    8   37 1    
    17    9   10 2    
    18    9   11 2    
    19    9   12 1    
    20   12   16 ar   
    21   12   13 ar   
    22   13   14 ar   
    23   13   24 1    
    24   14   15 ar   
    25   14   17 1    
    26   15   16 ar   
    27   17   22 ar   
    28   17   18 ar   
    29   18   19 ar   
    30   18   38 1    
    31   19   20 ar   
    32   19   39 1    
    33   20   21 ar   
    34   20   23 1    
    35   21   22 ar   
    36   21   40 1    
    37   22   41 1    
    38   23   42 1    
    39   23   43 1    
    40   24   29 ar   
    41   24   25 ar   
    42   25   26 ar   
    43   25   44 1    
    44   26   27 ar   
    45   26   45 1    
    46   27   28 ar   
    47   27   30 1    
    48   28   29 ar   
    49   28   46 1    
    50   29   47 1    
@<TRIPOS>SUBSTRUCTURE
     1 UNK         1 GROUP             0       ****    0 ROOT    
