@<TRIPOS>MOLECULE
ZINC06296742_5474
53   56    1
SMALL
USER_CHARGES


@<TRIPOS>ATOM
      1 C1         -4.6517   49.0429   25.4904 C.3       1 UNK         0.0000 
      2 N2         -4.0448   49.9440   24.5092 N.pl3     1 UNK         0.0000 
      3 C3         -3.1984   49.3725   23.5332 C.ar      1 UNK         0.0000 
      4 C4         -3.1300   49.9705   22.2680 C.ar      1 UNK         0.0000 
      5 C5         -2.3728   49.3945   21.2517 C.ar      1 UNK         0.0000 
      6 C6         -1.6867   48.2069   21.4904 C.ar      1 UNK         0.0000 
      7 C7         -1.7391   47.6045   22.7454 C.ar      1 UNK         0.0000 
      8 C8         -2.4818   48.1896   23.7673 C.ar      1 UNK         0.0000 
      9 Br9        -0.6984   47.3909   20.0808 Br        1 UNK         0.0000 
     10 S10        -3.8289   51.6374   25.0602 S.o2      1 UNK         0.0000 
     11 O11        -5.1381   52.0999   25.5331 O.2       1 UNK         0.0000 
     12 O12        -3.1134   52.3811   24.0147 O.2       1 UNK         0.0000 
     13 C13        -2.7713   51.5749   26.5058 C.ar      1 UNK         0.0000 
     14 C14        -3.3031   51.1659   27.7287 C.ar      1 UNK         0.0000 
     15 C15        -2.5237   51.2205   28.8814 C.ar      1 UNK         0.0000 
     16 C16        -1.2166   51.6968   28.8200 C.ar      1 UNK         0.0000 
     17 C17        -0.6459   52.0770   27.5897 C.ar      1 UNK         0.0000 
     18 C18        -1.4353   51.9829   26.4322 C.ar      1 UNK         0.0000 
     19 C19         0.7605   52.6124   27.5008 C.ar      1 UNK         0.0000 
     20 C20         1.4271   52.8551   28.8289 C.ar      1 UNK         0.0000 
     21 C21         0.7658   52.4940   29.9637 C.ar      1 UNK         0.0000 
     22 N22        -0.4795   51.9047   29.9942 N.pl3     1 UNK         0.0000 
     23 C23         2.7517   53.4697   28.9793 C.2       1 UNK         0.0000 
     24 O24         3.2592   53.6995   30.0800 O.2       1 UNK         0.0000 
     25 N25         3.3961   53.7763   27.8394 N.am      1 UNK         0.0000 
     26 C26         4.7311   54.3520   27.6987 C.3       1 UNK         0.0000 
     27 C27         5.8383   53.3945   28.1566 C.3       1 UNK         0.0000 
     28 C28         7.0677   53.7613   27.3339 C.3       1 UNK         0.0000 
     29 C29         6.5111   54.1562   25.9671 C.3       1 UNK         0.0000 
     30 C30         5.0576   54.5957   26.2095 C.3       1 UNK         0.0000 
     31 O31         1.2599   52.8593   26.3994 O.2       1 UNK         0.0000 
     32 H32        -3.9223   48.7212   26.2365 H         1 UNK         0.0000 
     33 H33        -5.4730   49.5346   26.0103 H         1 UNK         0.0000 
     34 H34        -5.0634   48.1583   25.0034 H         1 UNK         0.0000 
     35 H35        -3.6850   50.8727   22.0601 H         1 UNK         0.0000 
     36 H36        -2.3355   49.8564   20.2759 H         1 UNK         0.0000 
     37 H37        -1.2167   46.6768   22.9244 H         1 UNK         0.0000 
     38 H38        -2.5077   47.7074   24.7327 H         1 UNK         0.0000 
     39 H39        -4.3277   50.8291   27.7972 H         1 UNK         0.0000 
     40 H40        -2.9404   50.8951   29.8232 H         1 UNK         0.0000 
     41 H41        -1.0327   52.2852   25.4732 H         1 UNK         0.0000 
     42 H42         1.1832   52.6391   30.9539 H         1 UNK         0.0000 
     43 H43         2.9123   53.5623   26.9767 H         1 UNK         0.0000 
     44 H44         4.8634   55.2955   28.2316 H         1 UNK         0.0000 
     45 H45         5.5501   52.3650   27.9523 H         1 UNK         0.0000 
     46 H46         6.0039   53.4585   29.2292 H         1 UNK         0.0000 
     47 H47         7.7736   52.9321   27.2729 H         1 UNK         0.0000 
     48 H48         7.5837   54.6058   27.7897 H         1 UNK         0.0000 
     49 H49         6.5366   53.2971   25.2962 H         1 UNK         0.0000 
     50 H50         7.1036   54.9408   25.4961 H         1 UNK         0.0000 
     51 H51         4.8864   55.6345   25.9295 H         1 UNK         0.0000 
     52 H52         4.4135   53.9986   25.5601 H         1 UNK         0.0000 
     53 H53        -0.8945   51.6520   30.8880 H         1 UNK         0.0000 
@<TRIPOS>BOND
     1    1    2 1    
     2    1   32 1    
     3    1   33 1    
     4    1   34 1    
     5    2    3 1    
     6    2   10 1    
     7    3    8 ar   
     8    3    4 ar   
     9    4    5 ar   
    10    4   35 1    
    11    5    6 ar   
    12    5   36 1    
    13    6    7 ar   
    14    6    9 1    
    15    7    8 ar   
    16    7   37 1    
    17    8   38 1    
    18   10   11 2    
    19   10   12 2    
    20   10   13 1    
    21   13   18 ar   
    22   13   14 ar   
    23   14   15 ar   
    24   14   39 1    
    25   15   16 ar   
    26   15   40 1    
    27   16   22 ar   
    28   16   17 ar   
    29   17   18 ar   
    30   17   19 ar   
    31   18   41 1    
    32   19   31 2    
    33   19   20 ar   
    34   20   23 1    
    35   20   21 ar   
    36   21   42 1    
    37   21   22 ar   
    38   22   53 1    
    39   23   24 2    
    40   23   25 am   BACKBONE|DICT|INTERRES
    41   25   26 1    
    42   25   43 1    
    43   26   30 1    
    44   26   27 1    
    45   26   44 1    
    46   27   28 1    
    47   27   45 1    
    48   27   46 1    
    49   28   29 1    
    50   28   47 1    
    51   28   48 1    
    52   29   30 1    
    53   29   49 1    
    54   29   50 1    
    55   30   51 1    
    56   30   52 1    
@<TRIPOS>SUBSTRUCTURE
     1 UNK         1 GROUP             0       ****    0 ROOT    
