@<TRIPOS>MOLECULE
ZINC63752799_5367
64   68    1
SMALL
USER_CHARGES


@<TRIPOS>ATOM
      1 C1          2.6757   54.7034   12.6846 C.3       1 UNK         0.0000 
      2 C2          2.9265   54.6526   14.1793 C.2       1 UNK         0.0000 
      3 C3          1.9723   55.2127   15.1333 C.2       1 UNK         0.0000 
      4 C4          2.1082   55.0936   16.4789 C.2       1 UNK         0.0000 
      5 C5          3.2123   54.4297   17.0143 C.2       1 UNK         0.0000 
      6 N6          3.5039   54.1966   18.2747 N.pl3     1 UNK         0.0000 
      7 C7          4.7942   53.4788   18.3910 C.3       1 UNK         0.0000 
      8 H8          4.6265   52.5028   18.8508 H         1 UNK         0.0000 
      9 C9          5.1658   53.3475   16.9188 C.2       1 UNK         0.0000 
     10 C10         4.1930   53.9058   16.1659 C.2       1 UNK         0.0000 
     11 C11         3.9891   54.0063   14.7121 C.2       1 UNK         0.0000 
     12 N12         6.2911   52.6285   16.6282 N.am      1 UNK         0.0000 
     13 C13         7.1489   52.8116   15.6037 C.2       1 UNK         0.0000 
     14 O14         7.0447   53.6989   14.7559 O.2       1 UNK         0.0000 
     15 C15         8.2909   51.8255   15.5321 C.ar      1 UNK         0.0000 
     16 C16         8.7849   51.4209   14.2835 C.ar      1 UNK         0.0000 
     17 C17         9.8358   50.5078   14.2020 C.ar      1 UNK         0.0000 
     18 C18        10.4033   50.0048   15.3686 C.ar      1 UNK         0.0000 
     19 C19         9.9258   50.4009   16.6140 C.ar      1 UNK         0.0000 
     20 C20         8.8801   51.3140   16.6988 C.ar      1 UNK         0.0000 
     21 F21        11.4333   49.1327   15.2932 F         1 UNK         0.0000 
     22 C22         5.7468   54.3539   19.2522 C.2       1 UNK         0.0000 
     23 O23         6.5449   55.0889   18.6644 O.2       1 UNK         0.0000 
     24 N24         5.5784   54.4111   20.6041 N.am      1 UNK         0.0000 
     25 C25         4.8629   53.3405   21.3229 C.3       1 UNK         0.0000 
     26 C26         4.4159   53.8679   22.7027 C.3       1 UNK         0.0000 
     27 N27         5.4381   54.4962   23.5625 N.pl3     1 UNK         0.0000 
     28 C28         6.6400   54.8981   22.8119 C.3       1 UNK         0.0000 
     29 C29         6.4003   55.3771   21.3651 C.3       1 UNK         0.0000 
     30 C30         5.4309   54.3726   24.9630 C.ar      1 UNK         0.0000 
     31 C31         6.6499   54.3867   25.6652 C.ar      1 UNK         0.0000 
     32 C32         6.7035   54.2556   27.0499 C.ar      1 UNK         0.0000 
     33 C33         5.5319   54.1041   27.7766 C.ar      1 UNK         0.0000 
     34 C34         4.3086   54.0980   27.1165 C.ar      1 UNK         0.0000 
     35 C35         4.2375   54.2370   25.7181 C.ar      1 UNK         0.0000 
     36 O36         3.0163   54.2672   25.0686 O.3       1 UNK         0.0000 
     37 C37         1.9044   53.5895   25.6490 C.3       1 UNK         0.0000 
     38 H38         2.7947   55.7196   12.3081 H         1 UNK         0.0000 
     39 H39         3.3066   54.0054   12.1248 H         1 UNK         0.0000 
     40 H40         1.6425   54.4183   12.4829 H         1 UNK         0.0000 
     41 H41         1.1133   55.7460   14.7513 H         1 UNK         0.0000 
     42 H42         1.3567   55.5310   17.1211 H         1 UNK         0.0000 
     43 H43         4.6815   53.5438   14.0240 H         1 UNK         0.0000 
     44 H44         6.4562   51.8472   17.2515 H         1 UNK         0.0000 
     45 H45         8.3565   51.8086   13.3704 H         1 UNK         0.0000 
     46 H46        10.2172   50.1938   13.2400 H         1 UNK         0.0000 
     47 H47        10.3761   50.0118   17.5159 H         1 UNK         0.0000 
     48 H48         8.5451   51.6137   17.6815 H         1 UNK         0.0000 
     49 H49         5.5083   52.4824   21.5069 H         1 UNK         0.0000 
     50 H50         3.9350   53.0496   20.8292 H         1 UNK         0.0000 
     51 H51         3.9051   53.0607   23.2272 H         1 UNK         0.0000 
     52 H52         3.6803   54.6560   22.5322 H         1 UNK         0.0000 
     53 H53         7.1831   55.6772   23.3467 H         1 UNK         0.0000 
     54 H54         7.2640   54.0052   22.7584 H         1 UNK         0.0000 
     55 H55         5.9028   56.3456   21.3690 H         1 UNK         0.0000 
     56 H56         7.3814   55.5187   20.9066 H         1 UNK         0.0000 
     57 H57         7.5835   54.4938   25.1383 H         1 UNK         0.0000 
     58 H58         7.6504   54.2710   27.5668 H         1 UNK         0.0000 
     59 H59         5.5729   54.0039   28.8518 H         1 UNK         0.0000 
     60 H60         3.4145   54.0001   27.7129 H         1 UNK         0.0000 
     61 H61         1.0902   53.5607   24.9238 H         1 UNK         0.0000 
     62 H62         2.1539   52.5590   25.9082 H         1 UNK         0.0000 
     63 H63         1.5321   54.0968   26.5389 H         1 UNK         0.0000 
     64 H64         2.9304   54.4894   19.0672 H         1 UNK         0.0000 
@<TRIPOS>BOND
     1    1    2 1    
     2    1   38 1    
     3    1   39 1    
     4    1   40 1    
     5    2   11 2    
     6    2    3 1    
     7    3    4 2    
     8    3   41 1    
     9    4    5 1    
    10    4   42 1    
    11    5   10 1    
    12    5    6 2    
    13    6    7 1    
    14    6   64 1    
    15    7    8 1    
    16    7    9 1    
    17    7   22 1    
    18    9   10 2    
    19    9   12 1    
    20   10   11 1    
    21   11   43 1    
    22   12   13 am   BACKBONE|DICT|INTERRES
    23   12   44 1    
    24   13   14 2    
    25   13   15 1    
    26   15   20 ar   
    27   15   16 ar   
    28   16   17 ar   
    29   16   45 1    
    30   17   18 ar   
    31   17   46 1    
    32   18   19 ar   
    33   18   21 1    
    34   19   20 ar   
    35   19   47 1    
    36   20   48 1    
    37   22   23 2    
    38   22   24 am   BACKBONE|DICT|INTERRES
    39   24   29 1    
    40   24   25 1    
    41   25   26 1    
    42   25   49 1    
    43   25   50 1    
    44   26   27 1    
    45   26   51 1    
    46   26   52 1    
    47   27   28 1    
    48   27   30 1    
    49   28   29 1    
    50   28   53 1    
    51   28   54 1    
    52   29   55 1    
    53   29   56 1    
    54   30   35 ar   
    55   30   31 ar   
    56   31   32 ar   
    57   31   57 1    
    58   32   33 ar   
    59   32   58 1    
    60   33   34 ar   
    61   33   59 1    
    62   34   35 ar   
    63   34   60 1    
    64   35   36 1    
    65   36   37 1    
    66   37   61 1    
    67   37   62 1    
    68   37   63 1    
@<TRIPOS>SUBSTRUCTURE
     1 UNK         1 GROUP             0       ****    0 ROOT    
