@<TRIPOS>MOLECULE
ZINC12329554_2139
62   65    1
SMALL
USER_CHARGES


@<TRIPOS>ATOM
      1 C1         -6.9853   43.7445   23.3263 C.3       1 UNK         0.0000 
      2 C2         -6.0281   44.5399   24.2161 C.3       1 UNK         0.0000 
      3 O3         -5.0562   45.1664   23.3839 O.3       1 UNK         0.0000 
      4 C4         -4.0961   45.9793   23.9536 C.ar      1 UNK         0.0000 
      5 C5         -3.9845   46.2251   25.3303 C.ar      1 UNK         0.0000 
      6 C6         -2.9632   47.0363   25.8151 C.ar      1 UNK         0.0000 
      7 C7         -2.0403   47.6115   24.9374 C.ar      1 UNK         0.0000 
      8 C8         -2.1510   47.3687   23.5643 C.ar      1 UNK         0.0000 
      9 C9         -3.1738   46.5562   23.0813 C.ar      1 UNK         0.0000 
     10 C10        -0.9441   48.5127   25.5068 C.3       1 UNK         0.0000 
     11 H11        -0.6599   48.0967   26.4732 H         1 UNK         0.0000 
     12 C12        -1.4420   49.9742   25.6990 C.3       1 UNK         0.0000 
     13 C13        -1.1693   52.2154   26.9032 C.3       1 UNK         0.0000 
     14 C14        -0.4599   52.9301   28.0806 C.3       1 UNK         0.0000 
     15 C15         1.0822   52.8318   28.0128 C.3       1 UNK         0.0000 
     16 C16         1.3928   51.3220   28.0344 C.3       1 UNK         0.0000 
     17 C17         0.7976   50.6005   26.8172 C.3       1 UNK         0.0000 
     18 C18         1.7578   53.6008   29.1739 C.3       1 UNK         0.0000 
     19 C19         3.2868   53.4882   29.0847 C.3       1 UNK         0.0000 
     20 H20         3.6070   52.4715   29.3127 H         1 UNK         0.0000 
     21 C21         3.7476   53.8389   27.6745 C.ar      1 UNK         0.0000 
     22 C22         5.0867   54.1240   27.3729 C.ar      1 UNK         0.0000 
     23 C23         5.5114   54.2996   26.0577 C.ar      1 UNK         0.0000 
     24 C24         4.6077   54.1643   24.9943 C.ar      1 UNK         0.0000 
     25 C25         3.2781   53.8542   25.2812 C.ar      1 UNK         0.0000 
     26 C26         2.8573   53.6659   26.5975 C.ar      1 UNK         0.0000 
     27 O27         1.5035   53.4120   26.7637 O.3       1 UNK         0.0000 
     28 O28         4.9459   54.3015   23.6624 O.3       1 UNK         0.0000 
     29 C29         6.3015   54.5681   23.3120 C.3       1 UNK         0.0000 
     30 O30         3.9037   54.2590   30.0817 O.3       1 UNK         0.0000 
     31 O31         0.2428   48.5042   24.7276 O.3       1 UNK         0.0000 
     32 H32        -7.7370   43.2277   23.9242 H         1 UNK         0.0000 
     33 H33        -6.4495   42.9956   22.7438 H         1 UNK         0.0000 
     34 H34        -7.5067   44.4005   22.6304 H         1 UNK         0.0000 
     35 H35        -6.5889   45.2819   24.7854 H         1 UNK         0.0000 
     36 H36        -5.5425   43.8661   24.9228 H         1 UNK         0.0000 
     37 H37        -4.6771   45.7999   26.0410 H         1 UNK         0.0000 
     38 H38        -2.8915   47.2231   26.8788 H         1 UNK         0.0000 
     39 H39        -1.4507   47.8107   22.8708 H         1 UNK         0.0000 
     40 H40        -3.2536   46.3741   22.0200 H         1 UNK         0.0000 
     41 H41        -1.3017   50.5751   24.7989 H         1 UNK         0.0000 
     42 H42        -2.4928   49.9951   25.9938 H         1 UNK         0.0000 
     43 H43        -0.9191   52.6554   25.9362 H         1 UNK         0.0000 
     44 H44        -2.2511   52.2218   27.0474 H         1 UNK         0.0000 
     45 H45        -0.7361   53.9843   28.0816 H         1 UNK         0.0000 
     46 H46        -0.8241   52.5276   29.0275 H         1 UNK         0.0000 
     47 H47         1.0142   50.8921   28.9608 H         1 UNK         0.0000 
     48 H48         2.4625   51.1415   28.0407 H         1 UNK         0.0000 
     49 H49         1.0547   49.5448   26.8816 H         1 UNK         0.0000 
     50 H50         1.1043   51.0112   25.8547 H         1 UNK         0.0000 
     51 H51         1.4844   54.6563   29.1361 H         1 UNK         0.0000 
     52 H52         1.4056   53.2583   30.1475 H         1 UNK         0.0000 
     53 H53         5.8215   54.2017   28.1605 H         1 UNK         0.0000 
     54 H54         6.5520   54.5215   25.8816 H         1 UNK         0.0000 
     55 H55         2.5703   53.7498   24.4724 H         1 UNK         0.0000 
     56 H56         6.3869   54.6362   22.2276 H         1 UNK         0.0000 
     57 H57         6.6461   55.5163   23.7278 H         1 UNK         0.0000 
     58 H58         6.9668   53.7688   23.6438 H         1 UNK         0.0000 
     59 H59         4.8260   54.3797   29.8426 H         1 UNK         0.0000 
     60 H60         0.8251   47.8153   25.0679 H         1 UNK         0.0000 
     61 N61        -0.7376   50.7245   26.8677 N.4       1 UNK         0.0000 
     62 H62        -1.0398   50.2675   27.7247 H         1 UNK         0.0000 
@<TRIPOS>BOND
     1    1    2 1    
     2    1   32 1    
     3    1   33 1    
     4    1   34 1    
     5    2    3 1    
     6    2   35 1    
     7    2   36 1    
     8    3    4 1    
     9    4    9 ar   
    10    4    5 ar   
    11    5    6 ar   
    12    5   37 1    
    13    6    7 ar   
    14    6   38 1    
    15    7    8 ar   
    16    7   10 1    
    17    8    9 ar   
    18    8   39 1    
    19    9   40 1    
    20   10   11 1    
    21   10   12 1    
    22   10   31 1    
    23   12   41 1    
    24   12   42 1    
    25   12   61 1    
    26   13   14 1    
    27   13   43 1    
    28   13   44 1    
    29   13   61 1    
    30   14   15 1    
    31   14   45 1    
    32   14   46 1    
    33   15   27 1    
    34   15   16 1    
    35   15   18 1    
    36   16   17 1    
    37   16   47 1    
    38   16   48 1    
    39   17   49 1    
    40   17   50 1    
    41   17   61 1    
    42   18   19 1    
    43   18   51 1    
    44   18   52 1    
    45   19   20 1    
    46   19   21 1    
    47   19   30 1    
    48   21   26 ar   
    49   21   22 ar   
    50   22   23 ar   
    51   22   53 1    
    52   23   24 ar   
    53   23   54 1    
    54   24   25 ar   
    55   24   28 1    
    56   25   26 ar   
    57   25   55 1    
    58   26   27 1    
    59   28   29 1    
    60   29   56 1    
    61   29   57 1    
    62   29   58 1    
    63   30   59 1    
    64   31   60 1    
    65   61   62 1    
@<TRIPOS>SUBSTRUCTURE
     1 UNK         1 GROUP             0       ****    0 ROOT    
