ZINC40823293_994
                    3D
 Schrodinger Suite 2024-2.
 57 59  0  0  1  0            999 V2000
    6.4455   53.5603   28.0755 C   0  0  0  0  0  0
    5.5307   54.7693   27.8333 C   0  0  0  0  0  0
    4.1996   54.3948   27.3234 N   0  0  0  0  0  0
    3.2715   54.0289   28.3177 C   0  0  0  0  0  0
    3.0398   52.6826   28.6197 C   0  0  0  0  0  0
    2.0867   52.3317   29.5708 C   0  0  0  0  0  0
    1.4003   53.3196   30.2714 C   0  0  0  0  0  0
    1.6650   54.6702   30.0170 C   0  0  0  0  0  0
    2.5897   55.0219   29.0304 C   0  0  0  0  0  0
    0.9728   55.7436   30.8306 C   0  0  0  0  0  0
    4.0203   54.2592   25.9645 C   0  0  0  0  0  0
    4.9101   54.5953   25.1774 O   0  0  0  0  0  0
    2.7854   53.6925   25.4010 C   0  0  0  0  0  0
    2.4203   53.4006   24.0625 C   0  0  0  0  0  0
    1.1586   52.7576   24.1541 C   0  0  0  0  0  0
    0.8107   52.7505   25.4953 C   0  0  0  0  0  0
    1.7655   53.3500   26.2293 O   0  0  0  0  0  0
   -0.4467   52.2158   26.1451 C   0  0  0  0  0  0
   -1.5080   52.1184   25.0338 C   0  0  0  0  0  0
   -0.9778   51.4370   23.7482 C   0  0  0  0  0  0
    0.2477   52.1849   23.1366 C   0  0  0  0  0  0
    0.5697   52.3246   21.9056 N   0  0  0  0  0  0
   -0.2713   51.8454   21.0046 N   0  5  0  0  0  0
    0.3043   51.7083   19.8161 C   0  0  0  0  0  0
    1.4990   51.9040   19.5328 O   0  0  0  0  0  0
   -0.5867   51.2438   18.6258 C   0  0  0  0  0  0
   -2.1365   51.2128   18.8662 C   0  0  0  0  0  0
   -2.9440   50.7702   17.6171 C   0  0  0  0  0  0
   -4.2562   50.7693   17.8688 F   0  0  0  0  0  0
   -2.6218   49.5380   17.2159 F   0  0  0  0  0  0
   -2.7504   51.5795   16.5733 F   0  0  0  0  0  0
   -2.5647   52.4274   19.2348 F   0  0  0  0  0  0
   -2.4586   50.3846   19.8685 F   0  0  0  0  0  0
   -0.1608   50.0308   18.2590 F   0  0  0  0  0  0
   -0.3190   52.0462   17.5869 F   0  0  0  0  0  0
    3.2384   53.6133   22.7940 C   0  0  0  0  0  0
    7.4233   53.8823   28.4366 H   0  0  0  0  0  0
    6.0177   52.8968   28.8288 H   0  0  0  0  0  0
    6.6018   52.9871   27.1591 H   0  0  0  0  0  0
    6.0187   55.4798   27.1633 H   0  0  0  0  0  0
    5.4117   55.2977   28.7815 H   0  0  0  0  0  0
    3.5638   51.9113   28.0814 H   0  0  0  0  0  0
    1.8646   51.2947   29.7542 H   0  0  0  0  0  0
    0.6761   53.0323   31.0220 H   0  0  0  0  0  0
    2.7757   56.0653   28.8193 H   0  0  0  0  0  0
    0.4061   55.2930   31.6483 H   0  0  0  0  0  0
    1.7108   56.4249   31.2601 H   0  0  0  0  0  0
    0.3120   56.3413   30.2106 H   0  0  0  0  0  0
   -0.7965   52.8825   26.9346 H   0  0  0  0  0  0
   -0.2637   51.2390   26.5959 H   0  0  0  0  0  0
   -1.8723   53.1174   24.7922 H   0  0  0  0  0  0
   -2.3731   51.5709   25.4089 H   0  0  0  0  0  0
   -1.7944   51.3862   23.0289 H   0  0  0  0  0  0
   -0.6954   50.4042   23.9558 H   0  0  0  0  0  0
    4.3025   53.7601   22.9648 H   0  0  0  0  0  0
    3.1817   52.7457   22.1351 H   0  0  0  0  0  0
    2.8616   54.4542   22.2099 H   0  0  0  0  0  0
  1  2  1  0  0  0
  1 37  1  0  0  0
  1 38  1  0  0  0
  1 39  1  0  0  0
  2  3  1  0  0  0
  2 40  1  0  0  0
  2 41  1  0  0  0
  3  4  1  0  0  0
  3 11  1  0  0  0
  4  9  2  0  0  0
  4  5  1  0  0  0
  5  6  2  0  0  0
  5 42  1  0  0  0
  6  7  1  0  0  0
  6 43  1  0  0  0
  7  8  2  0  0  0
  7 44  1  0  0  0
  8  9  1  0  0  0
  8 10  1  0  0  0
  9 45  1  0  0  0
 10 46  1  0  0  0
 10 47  1  0  0  0
 10 48  1  0  0  0
 11 12  2  0  0  0
 11 13  1  0  0  0
 13 17  1  0  0  0
 13 14  2  0  0  0
 14 15  1  0  0  0
 14 36  1  0  0  0
 15 21  1  0  0  0
 15 16  2  0  0  0
 16 17  1  0  0  0
 16 18  1  0  0  0
 18 19  1  0  0  0
 18 49  1  0  0  0
 18 50  1  0  0  0
 19 20  1  0  0  0
 19 51  1  0  0  0
 19 52  1  0  0  0
 20 21  1  0  0  0
 20 53  1  0  0  0
 20 54  1  0  0  0
 21 22  2  0  0  0
 22 23  1  0  0  0
 23 24  1  0  0  0
 24 25  2  0  0  0
 24 26  1  0  0  0
 26 27  1  0  0  0
 26 34  1  0  0  0
 26 35  1  0  0  0
 27 28  1  0  0  0
 27 32  1  0  0  0
 27 33  1  0  0  0
 28 29  1  0  0  0
 28 30  1  0  0  0
 28 31  1  0  0  0
 36 55  1  0  0  0
 36 56  1  0  0  0
 36 57  1  0  0  0
M  CHG  1  23  -1
M  END
> <i_i_glide_confnum>
254

> <i_i_glide_lignum>
995

> <i_i_glide_posenum>
364

> <i_i_glide_rotatable_bonds>
9

> <i_m_Source_File_Index>
2531

> <b_m_subgroup_collapsed>
0

> <r_i_docking_score>
-3.37432

> <r_i_glide_ecoul>
-0.850417

> <r_i_glide_eff_state_penalty>
0

> <r_i_glide_einternal>
6.5802

> <r_i_glide_emodel>
-40.9848

> <r_i_glide_energy>
-40.4724

> <r_i_glide_erotb>
0.531159

> <r_i_glide_esite>
-0.111497

> <r_i_glide_evdw>
-39.6219

> <r_i_glide_gscore>
-3.37432

> <r_i_glide_hbond>
0

> <r_i_glide_ligand_efficiency>
-0.093731

> <r_i_glide_ligand_efficiency_ln>
-0.736185

> <r_i_glide_ligand_efficiency_sa>
-0.309493

> <r_i_glide_lipo>
-2.68103

> <r_i_glide_metal>
0

> <r_i_glide_rewards>
0.995707

> <s_i_glide_gridfile>
wee1_glide-grid

> <s_m_Source_File>
wee1_decoys_glide_SP.sdf

> <s_m_Source_Path>
/Users/zhangxujun/Desktop

> <s_m_entry_id>
2806

> <s_m_entry_name>
wee1_decoys_glide_SP.2531

> <s_m_subgroup_title>
wee1_decoys_glide_SP

> <s_m_subgroupid>
wee1_decoys_glide_SP


$$$$
