@<TRIPOS>MOLECULE
ZINC02170042_444
65   68    1
SMALL
USER_CHARGES


@<TRIPOS>ATOM
      1 C1         -5.2884   51.2750   24.0580 C.3       1 UNK         0.0000 
      2 C2         -4.6124   51.6039   25.4153 C.3       1 UNK         0.0000 
      3 C3         -3.6928   50.4265   25.8404 C.3       1 UNK         0.0000 
      4 C4         -2.3998   50.3523   24.9980 C.2       1 UNK         0.0000 
      5 C5         -1.8709   51.4135   24.3152 C.2       1 UNK         0.0000 
      6 C6         -0.5725   51.3100   23.4656 C.3       1 UNK         0.0000 
      7 H7         -0.8534   51.5878   22.4468 H         1 UNK         0.0000 
      8 C8         -0.0183   49.8866   23.4708 C.2       1 UNK         0.0000 
      9 C9         -0.5182   48.9062   24.2452 C.2       1 UNK         0.0000 
     10 N10        -1.7320   49.1016   24.9344 N.pl3     1 UNK         0.0000 
     11 N11        -2.2657   47.9582   25.6919 N.pl3     1 UNK         0.0000 
     12 C12        -3.2511   47.0786   25.2272 C.ar      1 UNK         0.0000 
     13 C13        -3.6352   47.0344   23.8814 C.ar      1 UNK         0.0000 
     14 C14        -4.6193   46.1434   23.4649 C.ar      1 UNK         0.0000 
     15 C15        -5.2217   45.2940   24.3912 C.ar      1 UNK         0.0000 
     16 C16        -4.8380   45.3231   25.7310 C.ar      1 UNK         0.0000 
     17 C17        -3.8494   46.2128   26.1457 C.ar      1 UNK         0.0000 
     18 N18         0.1190   47.7167   24.4817 N.pl3     1 UNK         0.0000 
     19 C19         1.1775   49.6459   22.7216 C.1       1 UNK         0.0000 
     20 N20         2.1241   49.4634   22.0806 N.1       1 UNK         0.0000 
     21 C21         0.5600   52.2845   23.8277 C.ar      1 UNK         0.0000 
     22 C22         0.8671   52.5491   25.1662 C.ar      1 UNK         0.0000 
     23 C23         1.9920   53.3013   25.4964 C.ar      1 UNK         0.0000 
     24 C24         2.8420   53.7909   24.4926 C.ar      1 UNK         0.0000 
     25 C25         2.5453   53.5299   23.1479 C.ar      1 UNK         0.0000 
     26 C26         1.3916   52.7979   22.8270 C.ar      1 UNK         0.0000 
     27 O27         3.4481   53.9722   22.1988 O.3       1 UNK         0.0000 
     28 C28         3.5808   53.2300   20.9887 C.3       1 UNK         0.0000 
     29 O29         4.0021   54.4951   24.7498 O.3       1 UNK         0.0000 
     30 C30         4.6039   54.4340   26.0407 C.3       1 UNK         0.0000 
     31 C31         6.0509   54.8976   25.9816 C.2       1 UNK         0.0000 
     32 C32         6.6958   55.2857   24.8664 C.2       1 UNK         0.0000 
     33 C33        -2.5414   52.7316   24.3585 C.2       1 UNK         0.0000 
     34 O34        -2.1713   53.6880   23.6817 O.2       1 UNK         0.0000 
     35 C35        -3.7504   52.8835   25.2926 C.3       1 UNK         0.0000 
     36 C36        -5.6409   51.8470   26.5397 C.3       1 UNK         0.0000 
     37 H37        -5.9198   52.0967   23.7201 H         1 UNK         0.0000 
     38 H38        -4.5723   51.0683   23.2622 H         1 UNK         0.0000 
     39 H39        -5.9295   50.3965   24.1422 H         1 UNK         0.0000 
     40 H40        -4.2790   49.5080   25.8060 H         1 UNK         0.0000 
     41 H41        -3.3466   50.5461   26.8689 H         1 UNK         0.0000 
     42 H42        -2.1154   48.0967   26.6977 H         1 UNK         0.0000 
     43 H43        -3.1714   47.6924   23.1607 H         1 UNK         0.0000 
     44 H44        -4.9172   46.1176   22.4268 H         1 UNK         0.0000 
     45 H45        -5.9940   44.6113   24.0698 H         1 UNK         0.0000 
     46 H46        -5.3041   44.6625   26.4468 H         1 UNK         0.0000 
     47 H47        -3.5540   46.2323   27.1862 H         1 UNK         0.0000 
     48 H48         1.1095   47.6647   24.2823 H         1 UNK         0.0000 
     49 H49        -0.2068   47.1541   25.2567 H         1 UNK         0.0000 
     50 H50         0.2524   52.1418   25.9548 H         1 UNK         0.0000 
     51 H51         2.2046   53.4821   26.5392 H         1 UNK         0.0000 
     52 H52         1.1635   52.5756   21.7954 H         1 UNK         0.0000 
     53 H53         4.4256   53.6214   20.4221 H         1 UNK         0.0000 
     54 H54         3.7816   52.1760   21.1915 H         1 UNK         0.0000 
     55 H55         2.7025   53.2978   20.3491 H         1 UNK         0.0000 
     56 H56         4.5956   53.4151   26.4336 H         1 UNK         0.0000 
     57 H57         4.0559   55.0747   26.7320 H         1 UNK         0.0000 
     58 H58         6.5760   54.9057   26.9263 H         1 UNK         0.0000 
     59 H59         6.2010   55.2904   23.9047 H         1 UNK         0.0000 
     60 H60         7.7229   55.6060   24.8816 H         1 UNK         0.0000 
     61 H61        -4.3345   53.7531   24.9871 H         1 UNK         0.0000 
     62 H62        -3.3285   53.1209   26.2688 H         1 UNK         0.0000 
     63 H63        -6.3038   52.6778   26.2938 H         1 UNK         0.0000 
     64 H64        -6.2668   50.9669   26.6976 H         1 UNK         0.0000 
     65 H65        -5.1618   52.0844   27.4917 H         1 UNK         0.0000 
@<TRIPOS>BOND
     1    1    2 1    
     2    1   37 1    
     3    1   38 1    
     4    1   39 1    
     5    2   35 1    
     6    2    3 1    
     7    2   36 1    
     8    3    4 1    
     9    3   40 1    
    10    3   41 1    
    11    4   10 1    
    12    4    5 2    
    13    5    6 1    
    14    5   33 1    
    15    6    7 1    
    16    6    8 1    
    17    6   21 1    
    18    8    9 2    
    19    8   19 1    
    20    9   10 1    
    21    9   18 1    
    22   10   11 1    
    23   11   12 1    
    24   11   42 1    
    25   12   17 ar   
    26   12   13 ar   
    27   13   14 ar   
    28   13   43 1    
    29   14   15 ar   
    30   14   44 1    
    31   15   16 ar   
    32   15   45 1    
    33   16   17 ar   
    34   16   46 1    
    35   17   47 1    
    36   18   48 1    
    37   18   49 1    
    38   19   20 3    
    39   21   26 ar   
    40   21   22 ar   
    41   22   23 ar   
    42   22   50 1    
    43   23   24 ar   
    44   23   51 1    
    45   24   25 ar   
    46   24   29 1    
    47   25   26 ar   
    48   25   27 1    
    49   26   52 1    
    50   27   28 1    
    51   28   53 1    
    52   28   54 1    
    53   28   55 1    
    54   29   30 1    
    55   30   31 1    
    56   30   56 1    
    57   30   57 1    
    58   31   32 2    
    59   31   58 1    
    60   32   59 1    
    61   32   60 1    
    62   33   34 2    
    63   33   35 1    
    64   35   61 1    
    65   35   62 1    
    66   36   63 1    
    67   36   64 1    
    68   36   65 1    
@<TRIPOS>SUBSTRUCTURE
     1 UNK         1 GROUP             0       ****    0 ROOT    
