@<TRIPOS>MOLECULE
ZINC59015564_3751
44   46    1
SMALL
USER_CHARGES


@<TRIPOS>ATOM
      1 C1          6.6274   54.8399   23.7613 C.ar      1 UNK         0.0000 
      2 C2          6.7131   54.8969   22.3728 C.ar      1 UNK         0.0000 
      3 C3          5.6151   54.5413   21.5930 C.ar      1 UNK         0.0000 
      4 C4          4.4272   54.1335   22.1902 C.ar      1 UNK         0.0000 
      5 C5          4.3364   54.0957   23.5783 C.ar      1 UNK         0.0000 
      6 C6          5.4341   54.4392   24.3783 C.ar      1 UNK         0.0000 
      7 C7          5.2949   54.3522   25.8336 C.2       1 UNK         0.0000 
      8 N8          6.2079   54.6420   26.6790 N.2       1 UNK         0.0000 
      9 N9          5.9677   54.4970   28.0751 N.pl3     1 UNK         0.0000 
     10 C10         4.8036   54.0818   28.6888 C.ar      1 UNK         0.0000 
     11 N11         3.8135   54.8254   29.1026 N.2       1 UNK         0.0000 
     12 C12         2.9285   53.9283   29.5201 C.ar      1 UNK         0.0000 
     13 N13         3.3094   52.6633   29.4474 N.2       1 UNK         0.0000 
     14 N14         4.5141   52.7698   28.8915 N.pl3     1 UNK         0.0000 
     15 S15         1.3307   54.4450   30.0816 S.3       1 UNK         0.0000 
     16 C16         0.5000   52.8429   30.4023 C.3       1 UNK         0.0000 
     17 C17        -0.1495   52.2187   29.1623 C.2       1 UNK         0.0000 
     18 O18        -1.2554   51.6967   29.2751 O.2       1 UNK         0.0000 
     19 N19         0.5406   52.3304   28.0077 N.am      1 UNK         0.0000 
     20 C20         0.2144   51.8870   26.7190 C.ar      1 UNK         0.0000 
     21 C21        -0.7391   50.8966   26.4489 C.ar      1 UNK         0.0000 
     22 C22        -0.9860   50.5100   25.1345 C.ar      1 UNK         0.0000 
     23 C23        -0.2882   51.1096   24.0797 C.ar      1 UNK         0.0000 
     24 C24         0.6702   52.0898   24.3550 C.ar      1 UNK         0.0000 
     25 C25         0.9253   52.4727   25.6688 C.ar      1 UNK         0.0000 
     26 C26        -0.5463   50.7002   22.6304 C.3       1 UNK         0.0000 
     27 F27        -1.3048   49.6061   22.5366 F         1 UNK         0.0000 
     28 F28         0.6094   50.4570   22.0098 F         1 UNK         0.0000 
     29 F29        -1.1671   51.6990   21.9997 F         1 UNK         0.0000 
     30 Br30        5.7449   54.6133   19.6966 Br        1 UNK         0.0000 
     31 H31         7.4993   55.1054   24.3446 H         1 UNK         0.0000 
     32 H32         7.6364   55.2080   21.9033 H         1 UNK         0.0000 
     33 H33         3.5774   53.8619   21.5782 H         1 UNK         0.0000 
     34 H34         3.4023   53.7821   24.0225 H         1 UNK         0.0000 
     35 H35         4.3173   54.0023   26.1576 H         1 UNK         0.0000 
     36 H36         6.7357   54.8431   28.6434 H         1 UNK         0.0000 
     37 H37        -0.2835   53.0208   31.1408 H         1 UNK         0.0000 
     38 H38         1.1752   52.1255   30.8678 H         1 UNK         0.0000 
     39 H39         1.3895   52.8728   28.0670 H         1 UNK         0.0000 
     40 H40        -1.2817   50.4006   27.2404 H         1 UNK         0.0000 
     41 H41        -1.7205   49.7394   24.9511 H         1 UNK         0.0000 
     42 H42         1.2203   52.5543   23.5489 H         1 UNK         0.0000 
     43 H43         1.6698   53.2304   25.8645 H         1 UNK         0.0000 
     44 H44         5.0987   51.9846   28.6400 H         1 UNK         0.0000 
@<TRIPOS>BOND
     1    1    6 ar   
     2    1    2 ar   
     3    1   31 1    
     4    2    3 ar   
     5    2   32 1    
     6    3    4 ar   
     7    3   30 1    
     8    4    5 ar   
     9    4   33 1    
    10    5    6 ar   
    11    5   34 1    
    12    6    7 1    
    13    7    8 2    
    14    7   35 1    
    15    8    9 1    
    16    9   10 1    
    17    9   36 1    
    18   10   14 ar   
    19   10   11 ar   
    20   11   12 ar   
    21   12   13 ar   
    22   12   15 1    
    23   13   14 ar   
    24   14   44 1    
    25   15   16 1    
    26   16   17 1    
    27   16   37 1    
    28   16   38 1    
    29   17   18 2    
    30   17   19 am   BACKBONE|DICT|INTERRES
    31   19   20 1    
    32   19   39 1    
    33   20   25 ar   
    34   20   21 ar   
    35   21   22 ar   
    36   21   40 1    
    37   22   23 ar   
    38   22   41 1    
    39   23   24 ar   
    40   23   26 1    
    41   24   25 ar   
    42   24   42 1    
    43   25   43 1    
    44   26   27 1    
    45   26   28 1    
    46   26   29 1    
@<TRIPOS>SUBSTRUCTURE
     1 UNK         1 GROUP             0       ****    0 ROOT    
