@<TRIPOS>MOLECULE
ZINC39667017_3683
68   71    1
SMALL
USER_CHARGES


@<TRIPOS>ATOM
      1 C1          3.5045   53.1676   30.1411 C.3       1 UNK         0.0000 
      2 C2          3.5296   53.3990   28.6452 C.ar      1 UNK         0.0000 
      3 C3          2.3371   53.5098   27.9355 C.ar      1 UNK         0.0000 
      4 C4          2.3615   53.6972   26.5568 C.ar      1 UNK         0.0000 
      5 C5          3.5705   53.7763   25.8522 C.ar      1 UNK         0.0000 
      6 C6          4.7772   53.7019   26.5843 C.ar      1 UNK         0.0000 
      7 C7          4.7442   53.5163   27.9707 C.ar      1 UNK         0.0000 
      8 C8          6.1445   53.7971   25.9160 C.3       1 UNK         0.0000 
      9 C9          3.5908   53.8852   24.3146 C.3       1 UNK         0.0000 
     10 C10         2.3910   54.5254   23.5794 C.3       1 UNK         0.0000 
     11 N11         1.1090   53.8251   23.6293 N.am      1 UNK         0.0000 
     12 C12         0.8071   52.6885   22.9760 C.2       1 UNK         0.0000 
     13 O13         1.6362   52.0785   22.3049 O.2       1 UNK         0.0000 
     14 C14        -0.6308   52.1050   23.0890 C.3       1 UNK         0.0000 
     15 H15        -0.8882   51.7487   22.0900 H         1 UNK         0.0000 
     16 C16        -1.6744   53.2009   23.4178 C.3       1 UNK         0.0000 
     17 N17        -2.6857   52.5159   24.2191 N.am      1 UNK         0.0000 
     18 C18        -2.3515   51.1032   24.4121 C.3       1 UNK         0.0000 
     19 C19        -0.8236   51.0173   24.1733 C.3       1 UNK         0.0000 
     20 C20        -0.0396   51.3188   25.4879 C.3       1 UNK         0.0000 
     21 C21        -0.3661   50.3219   26.6069 C.3       1 UNK         0.0000 
     22 N22        -0.0957   48.8967   26.0817 N.4       1 UNK         0.0000 
     23 C23        -0.7285   48.5382   24.7213 C.3       1 UNK         0.0000 
     24 C24        -0.3285   49.6273   23.7103 C.3       1 UNK         0.0000 
     25 C25        -3.8277   53.1485   24.5960 C.2       1 UNK         0.0000 
     26 O26        -4.0957   54.2954   24.2289 O.2       1 UNK         0.0000 
     27 C27        -4.8053   52.4450   25.5038 C.ar      1 UNK         0.0000 
     28 C28        -6.1691   52.4372   25.1805 C.ar      1 UNK         0.0000 
     29 C29        -7.1085   51.8435   26.0319 C.ar      1 UNK         0.0000 
     30 C30        -6.6711   51.2637   27.2297 C.ar      1 UNK         0.0000 
     31 C31        -5.3204   51.2856   27.5722 C.ar      1 UNK         0.0000 
     32 C32        -4.3931   51.8751   26.7164 C.ar      1 UNK         0.0000 
     33 F33        -4.9116   50.7536   28.7448 F         1 UNK         0.0000 
     34 C34        -8.5869   51.8498   25.6435 C.3       1 UNK         0.0000 
     35 F35        -8.9915   53.1029   25.4337 F         1 UNK         0.0000 
     36 F36        -8.7547   51.1497   24.5219 F         1 UNK         0.0000 
     37 F37        -9.3625   51.3161   26.5889 F         1 UNK         0.0000 
     38 H38         4.3025   53.7296   30.6268 H         1 UNK         0.0000 
     39 H39         2.5588   53.5010   30.5707 H         1 UNK         0.0000 
     40 H40         3.6401   52.1077   30.3657 H         1 UNK         0.0000 
     41 H41         1.3883   53.4409   28.4463 H         1 UNK         0.0000 
     42 H42         1.4163   53.7724   26.0553 H         1 UNK         0.0000 
     43 H43         5.6694   53.4459   28.5245 H         1 UNK         0.0000 
     44 H44         6.1528   53.3037   24.9461 H         1 UNK         0.0000 
     45 H45         6.4256   54.8404   25.7691 H         1 UNK         0.0000 
     46 H46         6.9127   53.3009   26.5084 H         1 UNK         0.0000 
     47 H47         4.4528   54.4837   24.0215 H         1 UNK         0.0000 
     48 H48         3.7704   52.8976   23.8938 H         1 UNK         0.0000 
     49 H49         2.1944   55.4698   24.0815 H         1 UNK         0.0000 
     50 H50         2.6593   54.8071   22.5581 H         1 UNK         0.0000 
     51 H51         0.3903   54.2668   24.1797 H         1 UNK         0.0000 
     52 H52        -1.2829   53.9829   24.0671 H         1 UNK         0.0000 
     53 H53        -2.1153   53.5887   22.5014 H         1 UNK         0.0000 
     54 H54        -2.8592   50.5537   23.6180 H         1 UNK         0.0000 
     55 H55        -2.6872   50.6304   25.3301 H         1 UNK         0.0000 
     56 H56         1.0387   51.3524   25.3229 H         1 UNK         0.0000 
     57 H57        -0.3149   52.3082   25.8532 H         1 UNK         0.0000 
     58 H58         0.2708   50.4572   27.4817 H         1 UNK         0.0000 
     59 H59        -1.4022   50.3363   26.9426 H         1 UNK         0.0000 
     60 H60         0.9004   48.7334   26.0324 H         1 UNK         0.0000 
     61 H61        -0.3389   47.5540   24.4577 H         1 UNK         0.0000 
     62 H62        -1.8041   48.4647   24.8910 H         1 UNK         0.0000 
     63 H63        -0.7982   49.3744   22.7587 H         1 UNK         0.0000 
     64 H64         0.7460   49.6263   23.5110 H         1 UNK         0.0000 
     65 H65        -6.5063   52.8967   24.2593 H         1 UNK         0.0000 
     66 H66        -7.3712   50.8012   27.9105 H         1 UNK         0.0000 
     67 H67        -3.3573   51.9065   27.0226 H         1 UNK         0.0000 
     68 H68        -0.4432   48.2548   26.7946 H         1 UNK         0.0000 
@<TRIPOS>BOND
     1    1    2 1    
     2    1   38 1    
     3    1   39 1    
     4    1   40 1    
     5    2    7 ar   
     6    2    3 ar   
     7    3    4 ar   
     8    3   41 1    
     9    4    5 ar   
    10    4   42 1    
    11    5    6 ar   
    12    5    9 1    
    13    6    7 ar   
    14    6    8 1    
    15    7   43 1    
    16    8   44 1    
    17    8   45 1    
    18    8   46 1    
    19    9   10 1    
    20    9   47 1    
    21    9   48 1    
    22   10   11 1    
    23   10   49 1    
    24   10   50 1    
    25   11   12 am   BACKBONE|DICT|INTERRES
    26   11   51 1    
    27   12   13 2    
    28   12   14 1    
    29   14   15 1    
    30   14   19 1    
    31   14   16 1    
    32   16   17 1    
    33   16   52 1    
    34   16   53 1    
    35   17   18 1    
    36   17   25 am   BACKBONE|DICT|INTERRES
    37   18   19 1    
    38   18   54 1    
    39   18   55 1    
    40   19   24 1    
    41   19   20 1    
    42   20   21 1    
    43   20   56 1    
    44   20   57 1    
    45   21   22 1    
    46   21   58 1    
    47   21   59 1    
    48   22   23 1    
    49   22   60 1    
    50   22   68 1    
    51   23   24 1    
    52   23   61 1    
    53   23   62 1    
    54   24   63 1    
    55   24   64 1    
    56   25   26 2    
    57   25   27 1    
    58   27   32 ar   
    59   27   28 ar   
    60   28   29 ar   
    61   28   65 1    
    62   29   30 ar   
    63   29   34 1    
    64   30   31 ar   
    65   30   66 1    
    66   31   32 ar   
    67   31   33 1    
    68   32   67 1    
    69   34   35 1    
    70   34   36 1    
    71   34   37 1    
@<TRIPOS>SUBSTRUCTURE
     1 UNK         1 GROUP             0       ****    0 ROOT    
