@<TRIPOS>MOLECULE
ZINC40180275_2777
49   52    1
SMALL
USER_CHARGES


@<TRIPOS>ATOM
      1 C1         -8.3187   51.5063   29.5822 C.3       1 UNK         0.0000 
      2 C2         -6.8403   51.7232   29.2899 C.2       1 UNK         0.0000 
      3 O3         -6.0953   52.0986   30.1964 O.2       1 UNK         0.0000 
      4 N4         -6.4587   51.5115   28.0132 N.am      1 UNK         0.0000 
      5 C5         -5.1560   51.6199   27.5059 C.ar      1 UNK         0.0000 
      6 C6         -4.0441   51.1154   28.1919 C.ar      1 UNK         0.0000 
      7 C7         -2.7715   51.2648   27.6535 C.ar      1 UNK         0.0000 
      8 C8         -2.5950   51.9064   26.4248 C.ar      1 UNK         0.0000 
      9 C9         -3.7153   52.3824   25.7236 C.ar      1 UNK         0.0000 
     10 C10        -4.9910   52.2270   26.2608 C.ar      1 UNK         0.0000 
     11 N11        -1.2642   52.0869   26.0125 N.am      1 UNK         0.0000 
     12 C12        -0.7796   52.4958   24.8175 C.2       1 UNK         0.0000 
     13 O13        -1.4565   52.5762   23.7887 O.2       1 UNK         0.0000 
     14 C14         0.6747   52.9349   24.8120 C.ar      1 UNK         0.0000 
     15 C15         1.1896   53.5769   23.6803 C.ar      1 UNK         0.0000 
     16 C16         2.4730   54.1027   23.6726 C.ar      1 UNK         0.0000 
     17 C17         3.3065   53.9338   24.7785 C.ar      1 UNK         0.0000 
     18 C18         2.8027   53.2972   25.9196 C.ar      1 UNK         0.0000 
     19 C19         1.5043   52.8032   25.9383 C.ar      1 UNK         0.0000 
     20 N20         4.6452   54.4087   24.7542 N.pl3     1 UNK         0.0000 
     21 C21         5.5488   54.5646   23.7052 C.ar      1 UNK         0.0000 
     22 C22         6.6297   55.1671   24.3313 C.ar      1 UNK         0.0000 
     23 N23         6.4644   55.2992   25.6238 N.2       1 UNK         0.0000 
     24 N24         5.2037   54.8280   25.9063 N.2       1 UNK         0.0000 
     25 C25         5.3945   54.2738   22.2402 C.ar      1 UNK         0.0000 
     26 C26         5.9862   55.1442   21.3156 C.ar      1 UNK         0.0000 
     27 C27         5.8728   54.9060   19.9493 C.ar      1 UNK         0.0000 
     28 C28         5.1721   53.7893   19.4995 C.ar      1 UNK         0.0000 
     29 C29         4.5947   52.9056   20.4061 C.ar      1 UNK         0.0000 
     30 C30         4.7060   53.1522   21.7727 C.ar      1 UNK         0.0000 
     31 Cl31        5.0222   53.5065   17.8025 Cl        1 UNK         0.0000 
     32 H32        -8.5550   50.4395   29.5843 H         1 UNK         0.0000 
     33 H33        -8.9432   51.9998   28.8350 H         1 UNK         0.0000 
     34 H34        -8.5806   51.9122   30.5631 H         1 UNK         0.0000 
     35 H35        -7.1853   51.3516   27.3326 H         1 UNK         0.0000 
     36 H36        -4.1554   50.6160   29.1441 H         1 UNK         0.0000 
     37 H37        -1.9252   50.8759   28.2034 H         1 UNK         0.0000 
     38 H38        -3.6203   52.8983   24.7803 H         1 UNK         0.0000 
     39 H39        -5.8435   52.6084   25.7177 H         1 UNK         0.0000 
     40 H40        -0.5855   51.9260   26.7375 H         1 UNK         0.0000 
     41 H41         0.5949   53.6961   22.7931 H         1 UNK         0.0000 
     42 H42         2.8066   54.6305   22.7921 H         1 UNK         0.0000 
     43 H43         3.4229   53.1562   26.7954 H         1 UNK         0.0000 
     44 H44         1.1649   52.3217   26.8429 H         1 UNK         0.0000 
     45 H45         7.5062   55.5205   23.8261 H         1 UNK         0.0000 
     46 H46         6.5282   56.0153   21.6536 H         1 UNK         0.0000 
     47 H47         6.3218   55.5852   19.2407 H         1 UNK         0.0000 
     48 H48         4.0530   52.0401   20.0476 H         1 UNK         0.0000 
     49 H49         4.2364   52.4956   22.4796 H         1 UNK         0.0000 
@<TRIPOS>BOND
     1    1    2 1    
     2    1   32 1    
     3    1   33 1    
     4    1   34 1    
     5    2    3 2    
     6    2    4 am   BACKBONE|DICT|INTERRES
     7    4    5 1    
     8    4   35 1    
     9    5   10 ar   
    10    5    6 ar   
    11    6    7 ar   
    12    6   36 1    
    13    7    8 ar   
    14    7   37 1    
    15    8    9 ar   
    16    8   11 1    
    17    9   10 ar   
    18    9   38 1    
    19   10   39 1    
    20   11   12 am   BACKBONE|DICT|INTERRES
    21   11   40 1    
    22   12   13 2    
    23   12   14 1    
    24   14   19 ar   
    25   14   15 ar   
    26   15   16 ar   
    27   15   41 1    
    28   16   17 ar   
    29   16   42 1    
    30   17   18 ar   
    31   17   20 1    
    32   18   19 ar   
    33   18   43 1    
    34   19   44 1    
    35   20   24 ar   
    36   20   21 ar   
    37   21   22 ar   
    38   21   25 1    
    39   22   23 ar   
    40   22   45 1    
    41   23   24 ar   
    42   25   30 ar   
    43   25   26 ar   
    44   26   27 ar   
    45   26   46 1    
    46   27   28 ar   
    47   27   47 1    
    48   28   29 ar   
    49   28   31 1    
    50   29   30 ar   
    51   29   48 1    
    52   30   49 1    
@<TRIPOS>SUBSTRUCTURE
     1 UNK         1 GROUP             0       ****    0 ROOT    
