@<TRIPOS>MOLECULE
ZINC12691969_566
66   69    1
SMALL
USER_CHARGES


@<TRIPOS>ATOM
      1 C1          3.6405   54.8842   28.8193 C.3       1 UNK         0.0000 
      2 O2          2.7528   53.8476   29.2279 O.3       1 UNK         0.0000 
      3 C3          2.0346   53.1687   28.2615 C.ar      1 UNK         0.0000 
      4 C4          2.1296   53.4220   26.8843 C.ar      1 UNK         0.0000 
      5 C5          1.3890   52.6751   25.9742 C.ar      1 UNK         0.0000 
      6 C6          0.5340   51.6611   26.4207 C.ar      1 UNK         0.0000 
      7 C7          0.4322   51.4186   27.7954 C.ar      1 UNK         0.0000 
      8 C8          1.1733   52.1678   28.7050 C.ar      1 UNK         0.0000 
      9 C9         -0.2244   50.7370   25.4493 C.3       1 UNK         0.0000 
     10 H10        -0.2917   49.7887   25.9896 H         1 UNK         0.0000 
     11 C11        -1.6787   51.1692   25.1938 C.ar      1 UNK         0.0000 
     12 C12        -1.9912   52.4967   24.8674 C.ar      1 UNK         0.0000 
     13 C13        -3.3140   52.8810   24.6746 C.ar      1 UNK         0.0000 
     14 C14        -4.3356   51.9456   24.8334 C.ar      1 UNK         0.0000 
     15 C15        -4.0420   50.6284   25.1862 C.ar      1 UNK         0.0000 
     16 C16        -2.7173   50.2430   25.3684 C.ar      1 UNK         0.0000 
     17 N17         0.5320   50.3248   24.2476 N.am      1 UNK         0.0000 
     18 C18         0.7386   51.0131   23.1092 C.2       1 UNK         0.0000 
     19 O19         0.2451   52.1183   22.8807 O.2       1 UNK         0.0000 
     20 C20         1.6686   50.3639   22.0666 C.3       1 UNK         0.0000 
     21 C21         3.4874   52.1344   21.8938 C.3       1 UNK         0.0000 
     22 C22         3.9780   53.3202   21.0546 C.3       1 UNK         0.0000 
     23 C23         4.3610   52.8304   19.6390 C.3       1 UNK         0.0000 
     24 C24         3.1816   52.1200   18.9213 C.3       1 UNK         0.0000 
     25 C25         2.7105   50.9259   19.7768 C.3       1 UNK         0.0000 
     26 C26         4.9010   54.0413   18.8459 C.2       1 UNK         0.0000 
     27 O27         6.1173   54.2045   18.7744 O.2       1 UNK         0.0000 
     28 N28         3.9804   54.8681   18.3049 N.am      1 UNK         0.0000 
     29 C29         4.1609   56.0786   17.6151 C.ar      1 UNK         0.0000 
     30 C30         5.3306   56.8559   17.6708 C.ar      1 UNK         0.0000 
     31 C31         5.3933   58.0641   16.9778 C.ar      1 UNK         0.0000 
     32 C32         4.2945   58.4953   16.2394 C.ar      1 UNK         0.0000 
     33 C33         3.1284   57.7374   16.1896 C.ar      1 UNK         0.0000 
     34 C34         3.0633   56.5288   16.8785 C.ar      1 UNK         0.0000 
     35 H35         4.1589   55.2958   29.6818 H         1 UNK         0.0000 
     36 H36         3.0913   55.6965   28.3451 H         1 UNK         0.0000 
     37 H37         4.4055   54.5186   28.1332 H         1 UNK         0.0000 
     38 H38         2.7828   54.1896   26.4992 H         1 UNK         0.0000 
     39 H39         1.4969   52.8946   24.9250 H         1 UNK         0.0000 
     40 H40        -0.2185   50.6365   28.1656 H         1 UNK         0.0000 
     41 H41         1.0863   51.9654   29.7620 H         1 UNK         0.0000 
     42 H42        -1.2047   53.2291   24.7542 H         1 UNK         0.0000 
     43 H43        -3.5505   53.9020   24.4116 H         1 UNK         0.0000 
     44 H44        -5.3640   52.2458   24.6902 H         1 UNK         0.0000 
     45 H45        -4.8412   49.9123   25.3217 H         1 UNK         0.0000 
     46 H46        -2.5002   49.2237   25.6603 H         1 UNK         0.0000 
     47 H47         1.0002   49.4347   24.3408 H         1 UNK         0.0000 
     48 H48         2.4760   49.7637   22.4930 H         1 UNK         0.0000 
     49 H49         1.0685   49.7331   21.4077 H         1 UNK         0.0000 
     50 H50         3.1236   52.4965   22.8577 H         1 UNK         0.0000 
     51 H51         4.2557   51.3730   22.0400 H         1 UNK         0.0000 
     52 H52         3.1541   54.0379   21.0295 H         1 UNK         0.0000 
     53 H53         4.8416   53.7323   21.5819 H         1 UNK         0.0000 
     54 H54         5.2046   52.1358   19.6845 H         1 UNK         0.0000 
     55 H55         3.4972   51.7034   17.9603 H         1 UNK         0.0000 
     56 H56         2.3095   52.7667   18.8105 H         1 UNK         0.0000 
     57 H57         3.4885   50.1705   19.9156 H         1 UNK         0.0000 
     58 H58         1.8283   50.4684   19.3253 H         1 UNK         0.0000 
     59 H59         3.0169   54.5852   18.3998 H         1 UNK         0.0000 
     60 H60         6.1864   56.5553   18.2531 H         1 UNK         0.0000 
     61 H61         6.2815   58.6786   17.0250 H         1 UNK         0.0000 
     62 H62         4.3431   59.4397   15.7127 H         1 UNK         0.0000 
     63 H63         2.2791   58.0905   15.6271 H         1 UNK         0.0000 
     64 H64         2.1500   55.9509   16.8382 H         1 UNK         0.0000 
     65 N65         2.2919   51.4685   21.1670 N.4       1 UNK         0.0000 
     66 H66         1.5663   52.1645   21.0327 H         1 UNK         0.0000 
@<TRIPOS>BOND
     1    1    2 1    
     2    1   35 1    
     3    1   36 1    
     4    1   37 1    
     5    2    3 1    
     6    3    8 ar   
     7    3    4 ar   
     8    4    5 ar   
     9    4   38 1    
    10    5    6 ar   
    11    5   39 1    
    12    6    7 ar   
    13    6    9 1    
    14    7    8 ar   
    15    7   40 1    
    16    8   41 1    
    17    9   10 1    
    18    9   11 1    
    19    9   17 1    
    20   11   16 ar   
    21   11   12 ar   
    22   12   13 ar   
    23   12   42 1    
    24   13   14 ar   
    25   13   43 1    
    26   14   15 ar   
    27   14   44 1    
    28   15   16 ar   
    29   15   45 1    
    30   16   46 1    
    31   17   18 am   BACKBONE|DICT|INTERRES
    32   17   47 1    
    33   18   19 2    
    34   18   20 1    
    35   20   48 1    
    36   20   49 1    
    37   20   65 1    
    38   21   22 1    
    39   21   50 1    
    40   21   51 1    
    41   21   65 1    
    42   22   23 1    
    43   22   52 1    
    44   22   53 1    
    45   23   24 1    
    46   23   26 1    
    47   23   54 1    
    48   24   25 1    
    49   24   55 1    
    50   24   56 1    
    51   25   57 1    
    52   25   58 1    
    53   25   65 1    
    54   26   27 2    
    55   26   28 am   BACKBONE|DICT|INTERRES
    56   28   29 1    
    57   28   59 1    
    58   29   34 ar   
    59   29   30 ar   
    60   30   31 ar   
    61   30   60 1    
    62   31   32 ar   
    63   31   61 1    
    64   32   33 ar   
    65   32   62 1    
    66   33   34 ar   
    67   33   63 1    
    68   34   64 1    
    69   65   66 1    
@<TRIPOS>SUBSTRUCTURE
     1 UNK         1 GROUP             0       ****    0 ROOT    
