ZINC60775132_1392
                    3D
 Schrodinger Suite 2024-2.
 42 45  0  0  1  0            999 V2000
    0.0239   52.4971   30.7434 C   0  0  0  0  0  0
   -0.8956   51.6968   30.0806 C   0  0  0  0  0  0
   -0.7545   51.4518   28.7204 C   0  0  0  0  0  0
    0.3409   51.9593   28.0135 C   0  0  0  0  0  0
    1.3012   52.7513   28.6886 C   0  0  0  0  0  0
    1.1118   53.0176   30.0565 C   0  0  0  0  0  0
    2.4404   53.1903   27.9853 N   0  0  0  0  0  0
    3.4329   54.0228   28.3650 C   0  0  0  0  0  0
    3.5034   54.6042   29.4510 O   0  0  0  0  0  0
    4.5440   54.1778   27.3607 C   0  0  0  0  0  0
    5.8515   54.3888   27.8142 C   0  0  0  0  0  0
    6.9022   54.4967   26.9118 C   0  0  0  0  0  0
    6.6647   54.4326   25.5406 C   0  0  0  0  0  0
    5.3594   54.2388   25.0620 C   0  0  0  0  0  0
    4.3101   54.1074   25.9756 C   0  0  0  0  0  0
    5.0391   54.0964   23.6984 N   0  0  0  0  0  0
    5.7513   54.4963   22.6243 C   0  0  0  0  0  0
    6.7701   55.1830   22.6716 O   0  0  0  0  0  0
    5.2068   54.0989   21.3516 C   0  0  0  0  0  0
    5.4972   54.6756   20.1134 C   0  0  0  0  0  0
    4.8969   54.0092   19.0403 C   0  0  0  0  0  0
    4.1744   52.8971   19.4432 C   0  0  0  0  0  0
    4.2296   52.6622   21.1593 S   0  0  0  0  0  0
    0.4335   51.6095   26.6452 N   0  0  0  0  0  0
    0.1936   50.3877   26.0547 C   0  0  0  0  0  0
    0.3551   50.4571   24.7576 N   0  0  0  0  0  0
    0.7109   51.7797   24.5066 N   0  0  0  0  0  0
    0.7509   52.4961   25.6876 N   0  0  0  0  0  0
   -0.0954   52.6837   31.8003 H   0  0  0  0  0  0
   -1.7035   51.2426   30.6358 H   0  0  0  0  0  0
   -1.4871   50.8223   28.2334 H   0  0  0  0  0  0
    1.8010   53.6004   30.6378 H   0  0  0  0  0  0
    2.5285   52.8005   27.0598 H   0  0  0  0  0  0
    6.0695   54.4524   28.8724 H   0  0  0  0  0  0
    7.9038   54.6205   27.2926 H   0  0  0  0  0  0
    7.5039   54.4986   24.8673 H   0  0  0  0  0  0
    3.3096   53.9492   25.5965 H   0  0  0  0  0  0
    4.1684   53.6258   23.5032 H   0  0  0  0  0  0
    6.1233   55.5468   19.9928 H   0  0  0  0  0  0
    5.0050   54.3111   18.0083 H   0  0  0  0  0  0
    3.6549   52.1872   18.8135 H   0  0  0  0  0  0
   -0.0968   49.5253   26.6429 H   0  0  0  0  0  0
  1  6  2  0  0  0
  1  2  1  0  0  0
  1 29  1  0  0  0
  2  3  2  0  0  0
  2 30  1  0  0  0
  3  4  1  0  0  0
  3 31  1  0  0  0
  4  5  2  0  0  0
  4 24  1  0  0  0
  5  6  1  0  0  0
  5  7  1  0  0  0
  6 32  1  0  0  0
  7  8  1  0  0  0
  7 33  1  0  0  0
  8  9  2  0  0  0
  8 10  1  0  0  0
 10 15  2  0  0  0
 10 11  1  0  0  0
 11 12  2  0  0  0
 11 34  1  0  0  0
 12 13  1  0  0  0
 12 35  1  0  0  0
 13 14  2  0  0  0
 13 36  1  0  0  0
 14 15  1  0  0  0
 14 16  1  0  0  0
 15 37  1  0  0  0
 16 17  1  0  0  0
 16 38  1  0  0  0
 17 18  2  0  0  0
 17 19  1  0  0  0
 19 23  1  0  0  0
 19 20  2  0  0  0
 20 21  1  0  0  0
 20 39  1  0  0  0
 21 22  2  0  0  0
 21 40  1  0  0  0
 22 23  1  0  0  0
 22 41  1  0  0  0
 24 28  1  0  0  0
 24 25  1  0  0  0
 25 26  2  0  0  0
 25 42  1  0  0  0
 26 27  1  0  0  0
 27 28  2  0  0  0
M  END
> <i_i_glide_confnum>
178

> <i_i_glide_lignum>
1393

> <i_i_glide_posenum>
67

> <i_i_glide_rotatable_bonds>
7

> <i_m_Source_File_Index>
1329

> <b_m_subgroup_collapsed>
0

> <r_i_docking_score>
-5.73906

> <r_i_glide_ecoul>
-4.75462

> <r_i_glide_eff_state_penalty>
0

> <r_i_glide_einternal>
6.53709

> <r_i_glide_emodel>
-67.3157

> <r_i_glide_energy>
-51.7632

> <r_i_glide_erotb>
0.895705

> <r_i_glide_esite>
-0.046701

> <r_i_glide_evdw>
-47.0086

> <r_i_glide_gscore>
-5.73906

> <r_i_glide_hbond>
-0.0254279

> <r_i_glide_ligand_efficiency>
-0.204966

> <r_i_glide_ligand_efficiency_ln>
-1.32474

> <r_i_glide_ligand_efficiency_sa>
-0.622399

> <r_i_glide_lipo>
-2.15075

> <r_i_glide_metal>
0

> <r_i_glide_rewards>
-1.34827

> <s_i_glide_gridfile>
wee1_glide-grid

> <s_m_Source_File>
wee1_decoys_glide_SP.sdf

> <s_m_Source_Path>
/Users/zhangxujun/Desktop

> <s_m_entry_id>
1604

> <s_m_entry_name>
wee1_decoys_glide_SP.1329

> <s_m_subgroup_title>
wee1_decoys_glide_SP

> <s_m_subgroupid>
wee1_decoys_glide_SP


$$$$
