@<TRIPOS>MOLECULE
ZINC49165175_1646
33   34    1
SMALL
USER_CHARGES


@<TRIPOS>ATOM
      1 C1          1.5045   56.0399   30.0591 C.3       1 UNK         0.0000 
      2 C2          1.1905   54.5605   30.0816 C.2       1 UNK         0.0000 
      3 C3          1.9314   53.4113   29.7924 C.2       1 UNK         0.0000 
      4 C4          1.0443   52.3457   29.9842 C.2       1 UNK         0.0000 
      5 C5         -0.1229   52.8676   30.4816 C.2       1 UNK         0.0000 
      6 O6         -0.0503   54.2195   30.5144 O.3       1 UNK         0.0000 
      7 C7          3.3268   53.3161   29.3964 C.2       1 UNK         0.0000 
      8 O8          3.9044   52.9354   30.4796 O.co2     1 UNK         0.0000 
      9 C9          3.8719   53.5664   28.1759 C.2       1 UNK         0.0000 
     10 C10         5.2827   53.4116   28.0289 C.1       1 UNK         0.0000 
     11 N11         6.4336   53.3138   27.9443 N.1       1 UNK         0.0000 
     12 C12         3.0710   53.9582   26.9844 C.2       1 UNK         0.0000 
     13 O13         1.8530   54.0966   27.0964 O.2       1 UNK         0.0000 
     14 C14         3.6432   54.0284   25.5899 C.ar      1 UNK         0.0000 
     15 C15         4.9321   54.4963   25.2988 C.ar      1 UNK         0.0000 
     16 C16         5.4058   54.4967   23.9883 C.ar      1 UNK         0.0000 
     17 C17         4.5806   54.0942   22.9307 C.ar      1 UNK         0.0000 
     18 C18         3.2673   53.6986   23.2078 C.ar      1 UNK         0.0000 
     19 C19         2.8077   53.6706   24.5192 C.ar      1 UNK         0.0000 
     20 C20         5.1046   54.1162   21.5159 C.2       1 UNK         0.0000 
     21 O21         5.9851   54.8996   21.1684 O.2       1 UNK         0.0000 
     22 N22         4.6039   53.2157   20.6683 N.am      1 UNK         0.0000 
     23 H23         0.8158   56.5886   29.4185 H         1 UNK         0.0000 
     24 H24         1.4441   56.4816   31.0544 H         1 UNK         0.0000 
     25 H25         2.5078   56.2349   29.6800 H         1 UNK         0.0000 
     26 H26         1.2623   51.3000   29.8276 H         1 UNK         0.0000 
     27 H27        -1.0383   52.4110   30.8252 H         1 UNK         0.0000 
     28 H28         5.5893   54.8668   26.0689 H         1 UNK         0.0000 
     29 H29         6.4156   54.8356   23.7991 H         1 UNK         0.0000 
     30 H30         2.5897   53.4128   22.4156 H         1 UNK         0.0000 
     31 H31         1.7915   53.3435   24.6938 H         1 UNK         0.0000 
     32 H32         3.8880   52.5736   20.9671 H         1 UNK         0.0000 
     33 H33         4.9458   53.1804   19.7196 H         1 UNK         0.0000 
@<TRIPOS>BOND
     1    1    2 1    
     2    1   23 1    
     3    1   24 1    
     4    1   25 1    
     5    2    6 1    
     6    2    3 2    
     7    3    4 1    
     8    3    7 1    
     9    4    5 2    
    10    4   26 1    
    11    5    6 1    
    12    5   27 1    
    13    7    8 1    
    14    7    9 2    
    15    9   10 1    
    16    9   12 1    
    17   10   11 3    
    18   12   13 2    
    19   12   14 1    
    20   14   19 ar   
    21   14   15 ar   
    22   15   16 ar   
    23   15   28 1    
    24   16   17 ar   
    25   16   29 1    
    26   17   18 ar   
    27   17   20 1    
    28   18   19 ar   
    29   18   30 1    
    30   19   31 1    
    31   20   21 2    
    32   20   22 am   BACKBONE|DICT|INTERRES
    33   22   32 1    
    34   22   33 1    
@<TRIPOS>SUBSTRUCTURE
     1 UNK         1 GROUP             0       ****    0 ROOT    
