ZINC03217491_3811
                    3D
 Schrodinger Suite 2024-2.
 33 34  0  0  1  0            999 V2000
    6.3699   54.5251   27.5773 C   0  0  0  0  0  0
    5.6834   54.4101   26.2277 C   0  0  0  0  0  0
    4.2932   54.3185   26.1572 C   0  0  0  0  0  0
    3.6646   54.1728   24.9217 C   0  0  0  0  0  0
    4.4227   54.0969   23.7422 C   0  0  0  0  0  0
    5.8157   54.2281   23.8256 C   0  0  0  0  0  0
    6.4397   54.3896   25.0574 C   0  0  0  0  0  0
    3.7851   53.9393   22.3727 C   0  0  0  0  0  0
    4.3056   54.4966   21.4068 O   0  0  0  0  0  0
    2.7052   53.1500   22.1747 N   0  0  0  0  0  0
    2.1303   52.3594   23.1058 N   0  0  0  0  0  0
    1.3083   51.5197   22.6178 C   0  0  0  0  0  0
    0.5322   50.5770   23.4351 C   0  0  0  0  0  0
    0.4103   50.7123   24.8277 C   0  0  0  0  0  0
   -0.3447   49.8055   25.5730 C   0  0  0  0  0  0
   -0.9902   48.7462   24.9386 C   0  0  0  0  0  0
   -0.8652   48.5846   23.5555 C   0  0  0  0  0  0
   -0.1159   49.5004   22.8143 C   0  0  0  0  0  0
   -1.6971   47.1226   22.6559 Br  0  0  0  0  0  0
   -1.7467   47.8800   25.6817 O   0  0  0  0  0  0
    6.2871   53.5844   28.1230 H   0  0  0  0  0  0
    7.4250   54.7856   27.4857 H   0  0  0  0  0  0
    5.8977   55.2971   28.1834 H   0  0  0  0  0  0
    3.6986   54.3522   27.0583 H   0  0  0  0  0  0
    2.5859   54.1226   24.8980 H   0  0  0  0  0  0
    6.4281   54.2011   22.9345 H   0  0  0  0  0  0
    7.5120   54.4787   25.0922 H   0  0  0  0  0  0
    2.3461   53.0467   21.2365 H   0  0  0  0  0  0
    1.1323   51.4296   21.5460 H   0  0  0  0  0  0
    0.8990   51.5266   25.3442 H   0  0  0  0  0  0
   -0.4317   49.9258   26.6441 H   0  0  0  0  0  0
   -0.0362   49.3563   21.7457 H   0  0  0  0  0  0
   -1.6954   48.0599   26.6387 H   0  0  0  0  0  0
  1  2  1  0  0  0
  1 21  1  0  0  0
  1 22  1  0  0  0
  1 23  1  0  0  0
  2  7  2  0  0  0
  2  3  1  0  0  0
  3  4  2  0  0  0
  3 24  1  0  0  0
  4  5  1  0  0  0
  4 25  1  0  0  0
  5  6  2  0  0  0
  5  8  1  0  0  0
  6  7  1  0  0  0
  6 26  1  0  0  0
  7 27  1  0  0  0
  8  9  2  0  0  0
  8 10  1  0  0  0
 10 11  1  0  0  0
 10 28  1  0  0  0
 11 12  2  0  0  0
 12 13  1  0  0  0
 12 29  1  0  0  0
 13 18  2  0  0  0
 13 14  1  0  0  0
 14 15  2  0  0  0
 14 30  1  0  0  0
 15 16  1  0  0  0
 15 31  1  0  0  0
 16 17  2  0  0  0
 16 20  1  0  0  0
 17 18  1  0  0  0
 17 19  1  0  0  0
 18 32  1  0  0  0
 20 33  1  0  0  0
M  END
> <i_i_glide_confnum>
15

> <i_i_glide_lignum>
3812

> <i_i_glide_posenum>
96

> <i_i_glide_rotatable_bonds>
5

> <i_m_Source_File_Index>
6056

> <b_m_subgroup_collapsed>
0

> <r_i_docking_score>
-5.40045

> <r_i_glide_ecoul>
-5.72722

> <r_i_glide_eff_state_penalty>
0

> <r_i_glide_einternal>
3.72001

> <r_i_glide_emodel>
-45.739

> <r_i_glide_energy>
-35.4717

> <r_i_glide_erotb>
0.679014

> <r_i_glide_esite>
0

> <r_i_glide_evdw>
-29.7445

> <r_i_glide_gscore>
-5.40045

> <r_i_glide_hbond>
-0.16

> <r_i_glide_ligand_efficiency>
-0.270023

> <r_i_glide_ligand_efficiency_ln>
-1.35155

> <r_i_glide_ligand_efficiency_sa>
-0.732954

> <r_i_glide_lipo>
-1.98653

> <r_i_glide_metal>
0

> <r_i_glide_rewards>
-1.58663

> <s_i_glide_gridfile>
wee1_glide-grid

> <s_m_Source_File>
wee1_decoys_glide_SP.sdf

> <s_m_Source_Path>
/Users/zhangxujun/Desktop

> <s_m_entry_id>
6331

> <s_m_entry_name>
wee1_decoys_glide_SP.6056

> <s_m_subgroup_title>
wee1_decoys_glide_SP

> <s_m_subgroupid>
wee1_decoys_glide_SP


$$$$
