@<TRIPOS>MOLECULE
ZINC65493116_1501
53   57    1
SMALL
USER_CHARGES


@<TRIPOS>ATOM
      1 C1         -0.0894   52.3292   30.8788 C.3       1 UNK         0.0000 
      2 C2          0.9801   53.1677   30.2130 C.2       1 UNK         0.0000 
      3 N3          0.8693   54.4410   30.2504 N.2       1 UNK         0.0000 
      4 C4          1.9037   55.1828   29.6827 C.2       1 UNK         0.0000 
      5 N5          3.0515   54.7967   29.2646 N.am      1 UNK         0.0000 
      6 C6          3.3751   53.4380   29.2870 C.2       1 UNK         0.0000 
      7 O7          4.4846   52.9439   29.1044 O.2       1 UNK         0.0000 
      8 C8          2.1719   52.4644   29.5369 C.3       1 UNK         0.0000 
      9 H9          2.5536   51.7096   30.2227 H         1 UNK         0.0000 
     10 C10         1.7800   51.7782   28.1883 C.3       1 UNK         0.0000 
     11 C11         0.8115   52.5412   27.2282 C.3       1 UNK         0.0000 
     12 H12         0.8451   53.6108   27.4380 H         1 UNK         0.0000 
     13 N13        -0.5598   52.0952   27.3969 N.3       1 UNK         0.0000 
     14 C14        -1.1594   52.2491   26.0951 C.3       1 UNK         0.0000 
     15 H15        -1.4107   53.2965   25.9461 H         1 UNK         0.0000 
     16 N16        -0.1042   51.9037   25.1713 N.3       1 UNK         0.0000 
     17 N17         1.1059   52.4071   25.8017 N.pl3     1 UNK         0.0000 
     18 C18         2.0646   53.0717   25.0051 C.ar      1 UNK         0.0000 
     19 C19         2.0410   53.0358   23.5974 C.ar      1 UNK         0.0000 
     20 C20         3.0943   53.5559   22.8368 C.ar      1 UNK         0.0000 
     21 C21         4.2089   54.0965   23.4755 C.ar      1 UNK         0.0000 
     22 C22         4.2348   54.1693   24.8736 C.ar      1 UNK         0.0000 
     23 C23         3.1587   53.6972   25.6207 C.ar      1 UNK         0.0000 
     24 O24         5.3226   54.6735   25.5545 O.3       1 UNK         0.0000 
     25 C25         6.5504   54.4760   24.8487 C.3       1 UNK         0.0000 
     26 C26         6.4130   55.0062   23.4033 C.3       1 UNK         0.0000 
     27 O27         5.3040   54.4256   22.6966 O.3       1 UNK         0.0000 
     28 C28        -2.4317   51.4099   25.9068 C.3       1 UNK         0.0000 
     29 C29        -3.7568   51.9523   26.3822 C.3       1 UNK         0.0000 
     30 C30        -3.4671   51.8393   24.8963 C.3       1 UNK         0.0000 
     31 C31         1.6747   56.6713   29.6298 C.3       1 UNK         0.0000 
     32 H32         0.3251   51.7556   31.7071 H         1 UNK         0.0000 
     33 H33        -0.8951   52.9363   31.2819 H         1 UNK         0.0000 
     34 H34        -0.5350   51.6258   30.1774 H         1 UNK         0.0000 
     35 H35         2.7016   51.5321   27.6700 H         1 UNK         0.0000 
     36 H36         1.3607   50.7982   28.4085 H         1 UNK         0.0000 
     37 H37        -0.5445   51.1021   27.5831 H         1 UNK         0.0000 
     38 H38         0.0189   50.9013   25.1629 H         1 UNK         0.0000 
     39 H39         1.2222   52.5649   23.0750 H         1 UNK         0.0000 
     40 H40         3.0703   53.4848   21.7588 H         1 UNK         0.0000 
     41 H41         3.2253   53.7535   26.6899 H         1 UNK         0.0000 
     42 H42         6.7992   53.4136   24.8239 H         1 UNK         0.0000 
     43 H43         7.3560   54.9896   25.3713 H         1 UNK         0.0000 
     44 H44         7.3257   54.7999   22.8441 H         1 UNK         0.0000 
     45 H45         6.3046   56.0891   23.4351 H         1 UNK         0.0000 
     46 H46        -2.2565   50.3395   26.0345 H         1 UNK         0.0000 
     47 H47        -4.4598   51.2586   26.8450 H         1 UNK         0.0000 
     48 H48        -3.7772   52.9367   26.8505 H         1 UNK         0.0000 
     49 H49        -3.2878   52.7466   24.3186 H         1 UNK         0.0000 
     50 H50        -3.9706   51.0681   24.3127 H         1 UNK         0.0000 
     51 H51         0.6447   56.9025   29.8766 H         1 UNK         0.0000 
     52 H52         2.3027   57.1901   30.3533 H         1 UNK         0.0000 
     53 H53         1.8872   57.0738   28.6396 H         1 UNK         0.0000 
@<TRIPOS>BOND
     1    1    2 1    
     2    1   32 1    
     3    1   33 1    
     4    1   34 1    
     5    2    8 1    
     6    2    3 2    
     7    3    4 1    
     8    4    5 2    
     9    4   31 1    
    10    5    6 am   BACKBONE|DICT|INTERRES
    11    6    7 2    
    12    6    8 1    
    13    8    9 1    
    14    8   10 1    
    15   10   11 1    
    16   10   35 1    
    17   10   36 1    
    18   11   12 1    
    19   11   17 1    
    20   11   13 1    
    21   13   14 1    
    22   13   37 1    
    23   14   15 1    
    24   14   16 1    
    25   14   28 1    
    26   16   17 1    
    27   16   38 1    
    28   17   18 1    
    29   18   23 ar   
    30   18   19 ar   
    31   19   20 ar   
    32   19   39 1    
    33   20   21 ar   
    34   20   40 1    
    35   21   27 1    
    36   21   22 ar   
    37   22   23 ar   
    38   22   24 1    
    39   23   41 1    
    40   24   25 1    
    41   25   26 1    
    42   25   42 1    
    43   25   43 1    
    44   26   27 1    
    45   26   44 1    
    46   26   45 1    
    47   28   30 1    
    48   28   29 1    
    49   28   46 1    
    50   29   30 1    
    51   29   47 1    
    52   29   48 1    
    53   30   49 1    
    54   30   50 1    
    55   31   51 1    
    56   31   52 1    
    57   31   53 1    
@<TRIPOS>SUBSTRUCTURE
     1 UNK         1 GROUP             0       ****    0 ROOT    
