@<TRIPOS>MOLECULE
ZINC13631650_4269
43   44    1
SMALL
USER_CHARGES


@<TRIPOS>ATOM
      1 C1          2.8954   50.0966   20.1705 C.3       1 UNK         0.0000 
      2 C2          1.7024   51.0390   20.3753 C.3       1 UNK         0.0000 
      3 N3          1.4130   51.2869   21.7874 N.am      1 UNK         0.0000 
      4 C4          0.7302   50.4583   22.6009 C.2       1 UNK         0.0000 
      5 O5          0.2759   49.3789   22.2154 O.2       1 UNK         0.0000 
      6 C6          0.5538   50.9073   24.0385 C.ar      1 UNK         0.0000 
      7 C7          0.8607   52.2160   24.4447 C.ar      1 UNK         0.0000 
      8 C8          0.7309   52.5866   25.7780 C.ar      1 UNK         0.0000 
      9 C9          0.3032   51.6625   26.7313 C.ar      1 UNK         0.0000 
     10 C10        -0.0754   50.3892   26.3251 C.ar      1 UNK         0.0000 
     11 C11         0.0626   50.0046   24.9943 C.ar      1 UNK         0.0000 
     12 N12         0.2307   51.9740   28.1028 N.pl3     1 UNK         0.0000 
     13 C13         1.1417   52.6129   28.8984 C.2       1 UNK         0.0000 
     14 S14         0.6914   52.8968   30.4813 S.2       1 UNK         0.0000 
     15 N15         2.3405   52.9276   28.3042 N.am      1 UNK         0.0000 
     16 C16         3.4150   53.6529   28.7072 C.2       1 UNK         0.0000 
     17 O17         3.6355   54.0129   29.8678 O.2       1 UNK         0.0000 
     18 C18         4.3877   54.0166   27.6032 C.ar      1 UNK         0.0000 
     19 C19         5.6642   54.4962   27.9161 C.ar      1 UNK         0.0000 
     20 C20         6.5422   54.8968   26.9101 C.ar      1 UNK         0.0000 
     21 C21         6.1651   54.8312   25.5640 C.ar      1 UNK         0.0000 
     22 C22         4.9084   54.3176   25.2357 C.ar      1 UNK         0.0000 
     23 C23         4.0399   53.9232   26.2463 C.ar      1 UNK         0.0000 
     24 I24         4.2568   54.0948   23.2531 I         1 UNK         0.0000 
     25 C25         7.0998   55.3322   24.4829 C.3       1 UNK         0.0000 
     26 H26         3.1034   49.9541   19.1078 H         1 UNK         0.0000 
     27 H27         3.8039   50.4983   20.6219 H         1 UNK         0.0000 
     28 H28         2.7046   49.1124   20.5988 H         1 UNK         0.0000 
     29 H29         0.8180   50.6447   19.8692 H         1 UNK         0.0000 
     30 H30         1.9158   51.9987   19.9013 H         1 UNK         0.0000 
     31 H31         1.7896   52.1372   22.1736 H         1 UNK         0.0000 
     32 H32         1.2055   52.9615   23.7447 H         1 UNK         0.0000 
     33 H33         0.9757   53.5962   26.0685 H         1 UNK         0.0000 
     34 H34        -0.4575   49.6944   27.0517 H         1 UNK         0.0000 
     35 H35        -0.2060   48.9944   24.7193 H         1 UNK         0.0000 
     36 H36        -0.5985   51.6340   28.5676 H         1 UNK         0.0000 
     37 H37         2.3932   52.6427   27.3390 H         1 UNK         0.0000 
     38 H38         5.9835   54.5842   28.9461 H         1 UNK         0.0000 
     39 H39         7.5044   55.2829   27.2047 H         1 UNK         0.0000 
     40 H40         3.0910   53.5378   25.9323 H         1 UNK         0.0000 
     41 H41         7.5044   54.4942   23.9167 H         1 UNK         0.0000 
     42 H42         6.5609   55.9669   23.7805 H         1 UNK         0.0000 
     43 H43         7.9042   55.9469   24.8814 H         1 UNK         0.0000 
@<TRIPOS>BOND
     1    1    2 1    
     2    1   26 1    
     3    1   27 1    
     4    1   28 1    
     5    2    3 1    
     6    2   29 1    
     7    2   30 1    
     8    3    4 am   BACKBONE|DICT|INTERRES
     9    3   31 1    
    10    4    5 2    
    11    4    6 1    
    12    6   11 ar   
    13    6    7 ar   
    14    7    8 ar   
    15    7   32 1    
    16    8    9 ar   
    17    8   33 1    
    18    9   10 ar   
    19    9   12 1    
    20   10   11 ar   
    21   10   34 1    
    22   11   35 1    
    23   12   13 1    
    24   12   36 1    
    25   13   14 2    
    26   13   15 am   BACKBONE|DICT|INTERRES
    27   15   16 am   BACKBONE|DICT|INTERRES
    28   15   37 1    
    29   16   17 2    
    30   16   18 1    
    31   18   23 ar   
    32   18   19 ar   
    33   19   20 ar   
    34   19   38 1    
    35   20   21 ar   
    36   20   39 1    
    37   21   22 ar   
    38   21   25 1    
    39   22   23 ar   
    40   22   24 1    
    41   23   40 1    
    42   25   41 1    
    43   25   42 1    
    44   25   43 1    
@<TRIPOS>SUBSTRUCTURE
     1 UNK         1 GROUP             0       ****    0 ROOT    
