@<TRIPOS>MOLECULE
ZINC43746539_5253
76   81    1
SMALL
USER_CHARGES


@<TRIPOS>ATOM
      1 C1          2.1621   54.7293   22.9481 C.3       1 UNK         0.0000 
      2 C2          2.9198   53.4382   23.2504 C.3       1 UNK         0.0000 
      3 C3          4.3958   53.7878   23.6040 C.3       1 UNK         0.0000 
      4 C4          4.5441   54.4966   24.9584 C.3       1 UNK         0.0000 
      5 C5          3.9011   53.7151   26.1096 C.3       1 UNK         0.0000 
      6 C6          2.4586   53.2967   25.8019 C.2       1 UNK         0.0000 
      7 C7          1.5044   53.4323   26.7394 C.2       1 UNK         0.0000 
      8 C8          2.2243   52.6541   24.4099 C.3       1 UNK         0.0000 
      9 H9          2.7044   51.6964   24.4817 H         1 UNK         0.0000 
     10 C10         0.7517   52.2987   24.0379 C.3       1 UNK         0.0000 
     11 C11         0.6101   51.5750   22.6633 C.3       1 UNK         0.0000 
     12 H12        -0.4307   51.6505   22.3398 H         1 UNK         0.0000 
     13 C13         1.4917   52.1475   21.5342 C.3       1 UNK         0.0000 
     14 H14         1.0239   53.0077   21.0534 H         1 UNK         0.0000 
     15 C15         2.9222   52.5156   22.0002 C.3       1 UNK         0.0000 
     16 O16         1.5755   51.0737   20.5997 O.3       1 UNK         0.0000 
     17 C17         1.4232   49.8805   21.2122 C.2       1 UNK         0.0000 
     18 O18         1.5051   48.8133   20.6096 O.2       1 UNK         0.0000 
     19 C19         1.0691   50.1224   22.6781 C.3       1 UNK         0.0000 
     20 H20         2.0146   50.0398   23.2139 H         1 UNK         0.0000 
     21 C21         0.1076   49.1001   23.3152 C.3       1 UNK         0.0000 
     22 N22        -1.3554   49.0621   22.7768 N.4       1 UNK         0.0000 
     23 C23        -1.5265   48.6435   21.3021 C.3       1 UNK         0.0000 
     24 C24        -2.9744   48.1840   21.1805 C.3       1 UNK         0.0000 
     25 C25        -3.4089   47.7195   22.5699 C.3       1 UNK         0.0000 
     26 C26        -2.2584   48.0540   23.5495 C.3       1 UNK         0.0000 
     27 H27        -1.6451   47.1467   23.5269 H         1 UNK         0.0000 
     28 C28        -2.6180   48.3751   25.0563 C.3       1 UNK         0.0000 
     29 C29        -2.8882   49.8986   25.2689 C.ar      1 UNK         0.0000 
     30 C30        -2.2553   50.6007   26.3099 C.ar      1 UNK         0.0000 
     31 C31        -2.4501   51.9673   26.4814 C.ar      1 UNK         0.0000 
     32 C32        -3.2965   52.6562   25.6215 C.ar      1 UNK         0.0000 
     33 C33        -3.9384   51.9899   24.5846 C.ar      1 UNK         0.0000 
     34 C34        -3.7300   50.6249   24.4073 C.ar      1 UNK         0.0000 
     35 C35        -3.7536   47.4525   25.5911 C.ar      1 UNK         0.0000 
     36 C36        -5.1067   47.7839   25.4142 C.ar      1 UNK         0.0000 
     37 C37        -6.1168   46.9515   25.8898 C.ar      1 UNK         0.0000 
     38 C38        -5.7889   45.7739   26.5543 C.ar      1 UNK         0.0000 
     39 C39        -4.4584   45.4223   26.7469 C.ar      1 UNK         0.0000 
     40 C40        -3.4511   46.2521   26.2642 C.ar      1 UNK         0.0000 
     41 O41        -1.3943   48.0186   25.6817 O.3       1 UNK         0.0000 
     42 H42         1.1572   54.5806   22.5634 H         1 UNK         0.0000 
     43 H43         2.0543   55.2967   23.8663 H         1 UNK         0.0000 
     44 H44         2.7061   55.2966   22.1946 H         1 UNK         0.0000 
     45 H45         4.8396   54.3960   22.8140 H         1 UNK         0.0000 
     46 H46         5.0186   52.8968   23.6236 H         1 UNK         0.0000 
     47 H47         5.6006   54.6645   25.1725 H         1 UNK         0.0000 
     48 H48         4.0963   55.4794   24.9251 H         1 UNK         0.0000 
     49 H49         4.5169   52.8529   26.3424 H         1 UNK         0.0000 
     50 H50         3.9431   54.3223   27.0145 H         1 UNK         0.0000 
     51 H51         0.4869   53.1159   26.5740 H         1 UNK         0.0000 
     52 H52         1.7281   53.8649   27.7036 H         1 UNK         0.0000 
     53 H53         0.3111   51.6759   24.8169 H         1 UNK         0.0000 
     54 H54         0.1477   53.2054   23.9990 H         1 UNK         0.0000 
     55 H55         3.4196   53.0418   21.1826 H         1 UNK         0.0000 
     56 H56         3.5059   51.6192   22.2048 H         1 UNK         0.0000 
     57 H57         0.5038   48.0966   23.2821 H         1 UNK         0.0000 
     58 H58         0.0182   49.3807   24.3617 H         1 UNK         0.0000 
     59 H59        -1.2628   49.4806   20.6543 H         1 UNK         0.0000 
     60 H60        -0.8275   47.8211   21.1347 H         1 UNK         0.0000 
     61 H61        -3.5988   49.0083   20.8309 H         1 UNK         0.0000 
     62 H62        -3.0676   47.3835   20.4445 H         1 UNK         0.0000 
     63 H63        -4.3310   48.2402   22.8102 H         1 UNK         0.0000 
     64 H64        -3.6506   46.6553   22.5945 H         1 UNK         0.0000 
     65 H65        -1.5979   50.0976   27.0032 H         1 UNK         0.0000 
     66 H66        -1.9467   52.4865   27.2822 H         1 UNK         0.0000 
     67 H67        -3.4579   53.7138   25.7616 H         1 UNK         0.0000 
     68 H68        -4.5992   52.5287   23.9212 H         1 UNK         0.0000 
     69 H69        -4.2427   50.1562   23.5876 H         1 UNK         0.0000 
     70 H70        -5.4017   48.6911   24.9140 H         1 UNK         0.0000 
     71 H71        -7.1531   47.2225   25.7504 H         1 UNK         0.0000 
     72 H72        -6.5740   45.1328   26.9279 H         1 UNK         0.0000 
     73 H73        -4.2014   44.5173   27.2812 H         1 UNK         0.0000 
     74 H74        -2.4287   45.9513   26.4408 H         1 UNK         0.0000 
     75 H75        -1.4961   48.0967   26.6514 H         1 UNK         0.0000 
     76 H76        -1.7493   49.9851   22.9020 H         1 UNK         0.0000 
@<TRIPOS>BOND
     1    1    2 1    
     2    1   42 1    
     3    1   43 1    
     4    1   44 1    
     5    2    8 1    
     6    2   15 1    
     7    2    3 1    
     8    3    4 1    
     9    3   45 1    
    10    3   46 1    
    11    4    5 1    
    12    4   47 1    
    13    4   48 1    
    14    5    6 1    
    15    5   49 1    
    16    5   50 1    
    17    6    7 2    
    18    6    8 1    
    19    7   51 1    
    20    7   52 1    
    21    8    9 1    
    22    8   10 1    
    23   10   11 1    
    24   10   53 1    
    25   10   54 1    
    26   11   12 1    
    27   11   19 1    
    28   11   13 1    
    29   13   14 1    
    30   13   15 1    
    31   13   16 1    
    32   15   55 1    
    33   15   56 1    
    34   16   17 1    
    35   17   18 2    
    36   17   19 1    
    37   19   20 1    
    38   19   21 1    
    39   21   22 1    
    40   21   57 1    
    41   21   58 1    
    42   22   26 1    
    43   22   23 1    
    44   22   76 1    
    45   23   24 1    
    46   23   59 1    
    47   23   60 1    
    48   24   25 1    
    49   24   61 1    
    50   24   62 1    
    51   25   26 1    
    52   25   63 1    
    53   25   64 1    
    54   26   27 1    
    55   26   28 1    
    56   28   29 1    
    57   28   35 1    
    58   28   41 1    
    59   29   34 ar   
    60   29   30 ar   
    61   30   31 ar   
    62   30   65 1    
    63   31   32 ar   
    64   31   66 1    
    65   32   33 ar   
    66   32   67 1    
    67   33   34 ar   
    68   33   68 1    
    69   34   69 1    
    70   35   40 ar   
    71   35   36 ar   
    72   36   37 ar   
    73   36   70 1    
    74   37   38 ar   
    75   37   71 1    
    76   38   39 ar   
    77   38   72 1    
    78   39   40 ar   
    79   39   73 1    
    80   40   74 1    
    81   41   75 1    
@<TRIPOS>SUBSTRUCTURE
     1 UNK         1 GROUP             0       ****    0 ROOT    
