ZINC01884936_3339
                    3D
 Schrodinger Suite 2024-2.
 47 50  0  0  1  0            999 V2000
    5.1173   55.0081   25.6019 C   0  0  0  0  0  0
    3.9240   54.2584   25.0362 C   0  0  0  0  0  0
    2.9771   53.6998   25.8992 C   0  0  0  0  0  0
    1.9039   52.9802   25.3801 C   0  0  0  0  0  0
    1.7808   52.8190   23.9995 C   0  0  0  0  0  0
    2.7152   53.3879   23.1330 C   0  0  0  0  0  0
    3.7929   54.0976   23.6547 C   0  0  0  0  0  0
    0.4587   51.8076   23.3538 S   0  0  0  0  0  0
    0.3424   52.0964   21.9209 O   0  0  0  0  0  0
    0.7412   50.4532   23.8395 O   0  0  0  0  0  0
   -1.0048   52.4222   24.1288 N   0  0  0  0  0  0
   -2.0338   51.5132   24.7241 C   0  0  1  0  0  0
   -2.2291   50.1940   24.0100 C   0  0  0  0  0  0
   -2.6382   49.8554   22.6496 C   0  0  0  0  0  0
   -2.7023   48.5608   22.3385 N   0  5  0  0  0  0
   -2.4335   47.5588   23.1884 C   0  0  0  0  0  0
   -2.4909   46.3627   22.8840 O   0  0  0  0  0  0
   -2.0733   47.8649   24.4960 N   0  0  0  0  0  0
   -1.9749   49.1931   24.8712 C   0  0  0  0  0  0
   -1.6219   49.6971   26.0816 N   0  0  0  0  0  0
   -1.5406   51.0397   26.1024 C   0  0  0  0  0  0
   -1.1525   51.7463   27.0331 O   0  0  0  0  0  0
   -1.9076   46.8043   25.5117 C   0  0  0  0  0  0
   -3.2191   46.3417   26.1086 C   0  0  0  0  0  0
   -3.7722   46.4386   27.3742 C   0  0  0  0  0  0
   -5.0384   45.8554   27.3140 C   0  0  0  0  0  0
   -5.1932   45.4030   26.0153 C   0  0  0  0  0  0
   -4.0879   45.6968   25.2850 O   0  0  0  0  0  0
   -2.8923   50.7994   21.9046 O   0  0  0  0  0  0
   -3.3692   52.3093   24.9135 C   0  0  0  0  0  0
   -4.3908   51.5306   25.2807 F   0  0  0  0  0  0
   -3.2906   53.2901   25.8180 F   0  0  0  0  0  0
   -3.7217   52.9001   23.7723 F   0  0  0  0  0  0
    5.9950   54.8728   24.9678 H   0  0  0  0  0  0
    5.3877   54.6276   26.5881 H   0  0  0  0  0  0
    4.9042   56.0746   25.6817 H   0  0  0  0  0  0
    3.0776   53.8085   26.9686 H   0  0  0  0  0  0
    1.1872   52.5289   26.0506 H   0  0  0  0  0  0
    2.6249   53.2620   22.0620 H   0  0  0  0  0  0
    4.5253   54.5204   22.9823 H   0  0  0  0  0  0
   -1.4568   53.1247   23.5392 H   0  0  0  0  0  0
   -1.4400   49.1246   26.9125 H   0  0  0  0  0  0
   -1.3469   45.9679   25.0952 H   0  0  0  0  0  0
   -1.2759   47.1833   26.3145 H   0  0  0  0  0  0
   -3.2978   46.8972   28.2324 H   0  0  0  0  0  0
   -5.7591   45.7780   28.1139 H   0  0  0  0  0  0
   -5.9950   44.9004   25.4933 H   0  0  0  0  0  0
  1  2  1  0  0  0
  1 34  1  0  0  0
  1 35  1  0  0  0
  1 36  1  0  0  0
  2  7  2  0  0  0
  2  3  1  0  0  0
  3  4  2  0  0  0
  3 37  1  0  0  0
  4  5  1  0  0  0
  4 38  1  0  0  0
  5  6  2  0  0  0
  5  8  1  0  0  0
  6  7  1  0  0  0
  6 39  1  0  0  0
  7 40  1  0  0  0
  8  9  2  0  0  0
  8 10  2  0  0  0
  8 11  1  0  0  0
 11 12  1  0  0  0
 11 41  1  0  0  0
 12 21  1  0  0  0
 12 13  1  0  0  0
 12 30  1  0  0  0
 13 19  2  0  0  0
 13 14  1  0  0  0
 14 15  1  0  0  0
 14 29  2  0  0  0
 15 16  1  0  0  0
 16 18  1  0  0  0
 16 17  2  0  0  0
 18 19  1  0  0  0
 18 23  1  0  0  0
 19 20  1  0  0  0
 20 21  1  0  0  0
 20 42  1  0  0  0
 21 22  2  0  0  0
 23 24  1  0  0  0
 23 43  1  0  0  0
 23 44  1  0  0  0
 24 28  1  0  0  0
 24 25  2  0  0  0
 25 26  1  0  0  0
 25 45  1  0  0  0
 26 27  2  0  0  0
 26 46  1  0  0  0
 27 28  1  0  0  0
 27 47  1  0  0  0
 30 31  1  0  0  0
 30 32  1  0  0  0
 30 33  1  0  0  0
M  CHG  1  15  -1
M  END
> <i_i_glide_confnum>
55

> <i_i_glide_lignum>
3340

> <i_i_glide_posenum>
317

> <i_i_glide_rotatable_bonds>
6

> <i_m_Source_File_Index>
3651

> <b_m_subgroup_collapsed>
0

> <r_i_docking_score>
-3.35072

> <r_i_glide_ecoul>
-7.39984

> <r_i_glide_eff_state_penalty>
0

> <r_i_glide_einternal>
8.81223

> <r_i_glide_emodel>
-40.1958

> <r_i_glide_energy>
-39.366

> <r_i_glide_erotb>
0.434375

> <r_i_glide_esite>
-0.195185

> <r_i_glide_evdw>
-31.9662

> <r_i_glide_gscore>
-3.35072

> <r_i_glide_hbond>
-0.32

> <r_i_glide_ligand_efficiency>
-0.101537

> <r_i_glide_ligand_efficiency_ln>
-0.745183

> <r_i_glide_ligand_efficiency_sa>
-0.325683

> <r_i_glide_lipo>
-1.51469

> <r_i_glide_metal>
0

> <r_i_glide_rewards>
0.95307

> <s_i_glide_gridfile>
wee1_glide-grid

> <s_m_Source_File>
wee1_decoys_glide_SP.sdf

> <s_m_Source_Path>
/Users/zhangxujun/Desktop

> <s_m_entry_id>
3926

> <s_m_entry_name>
wee1_decoys_glide_SP.3651

> <s_m_subgroup_title>
wee1_decoys_glide_SP

> <s_m_subgroupid>
wee1_decoys_glide_SP


$$$$
