ZINC20579727_4026
                    3D
 Schrodinger Suite 2024-2.
 56 60  0  0  1  0            999 V2000
    5.1671   54.2822   26.7197 C   0  0  0  0  0  0
    6.2983   54.0974   25.9305 C   0  0  0  0  0  0
    6.1835   54.1049   24.5412 C   0  0  0  0  0  0
    4.9376   54.3281   23.9335 C   0  0  0  0  0  0
    3.8060   54.4964   24.7429 C   0  0  0  0  0  0
    3.9212   54.4785   26.1310 C   0  0  0  0  0  0
    4.7793   54.3542   22.4021 C   0  0  2  0  0  0
    3.9870   55.0720   22.1829 H   0  0  0  0  0  0
    4.2941   52.9816   21.8951 C   0  0  0  0  0  0
    5.1049   52.0800   21.6809 O   0  0  0  0  0  0
    2.9656   52.8712   21.6908 N   0  0  0  0  0  0
    2.3108   51.7559   21.2024 C   0  0  0  0  0  0
    2.7076   50.5017   21.2366 N   0  0  0  0  0  0
    1.8160   49.6576   20.5905 N   0  0  0  0  0  0
    0.7731   50.2853   20.0867 C   0  0  0  0  0  0
    0.7978   52.0010   20.3984 S   0  0  0  0  0  0
   -0.3335   49.5983   19.3016 C   0  0  2  0  0  0
   -1.0028   50.3858   18.9507 H   0  0  0  0  0  0
   -1.0789   48.5635   20.1232 C   0  0  0  0  0  0
   -0.6222   47.1981   19.6225 C   0  0  0  0  0  0
   -0.8975   46.1437   20.1985 O   0  0  0  0  0  0
    0.1185   47.3865   18.4907 N   0  0  0  0  0  0
    0.1905   48.8067   18.1191 C   0  0  0  0  0  0
    0.6782   46.3606   17.6870 C   0  0  0  0  0  0
    1.8098   46.6365   16.9009 C   0  0  0  0  0  0
    2.3575   45.6526   16.0816 C   0  0  0  0  0  0
    1.7769   44.3865   16.0405 C   0  0  0  0  0  0
    0.6520   44.0983   16.8043 C   0  0  0  0  0  0
    0.1032   45.0790   17.6201 C   0  0  0  0  0  0
    2.3043   43.4232   15.2549 F   0  0  0  0  0  0
    6.2564   55.0258   21.5406 S   0  0  0  0  0  0
    5.9123   55.4148   19.8417 C   0  0  0  0  0  0
    4.7487   54.9797   19.1959 C   0  0  0  0  0  0
    4.5208   55.3265   17.8673 C   0  0  0  0  0  0
    5.4548   56.1022   17.1850 C   0  0  0  0  0  0
    6.6213   56.5283   17.8186 C   0  0  0  0  0  0
    6.8519   56.1786   19.1464 C   0  0  0  0  0  0
    5.2569   54.2621   27.7955 H   0  0  0  0  0  0
    7.2556   53.9283   26.3968 H   0  0  0  0  0  0
    7.0700   53.9473   23.9450 H   0  0  0  0  0  0
    2.8331   54.6488   24.2987 H   0  0  0  0  0  0
    3.0455   54.6074   26.7512 H   0  0  0  0  0  0
    2.4090   53.7122   21.7483 H   0  0  0  0  0  0
   -0.8542   48.6288   21.1889 H   0  0  0  0  0  0
   -2.1580   48.6605   20.0094 H   0  0  0  0  0  0
   -0.4577   48.9565   17.2538 H   0  0  0  0  0  0
    1.1876   49.1413   17.8261 H   0  0  0  0  0  0
    2.3011   47.6011   16.9258 H   0  0  0  0  0  0
    3.2381   45.8695   15.4936 H   0  0  0  0  0  0
    0.2050   43.1149   16.7541 H   0  0  0  0  0  0
   -0.7852   44.8282   18.1784 H   0  0  0  0  0  0
    4.0008   54.3899   19.6974 H   0  0  0  0  0  0
    3.6217   54.9932   17.3697 H   0  0  0  0  0  0
    5.2770   56.3717   16.1526 H   0  0  0  0  0  0
    7.3434   57.1277   17.2824 H   0  0  0  0  0  0
    7.7595   56.5018   19.6336 H   0  0  0  0  0  0
  1  6  2  0  0  0
  1  2  1  0  0  0
  1 38  1  0  0  0
  2  3  2  0  0  0
  2 39  1  0  0  0
  3  4  1  0  0  0
  3 40  1  0  0  0
  4  5  2  0  0  0
  4  7  1  0  0  0
  5  6  1  0  0  0
  5 41  1  0  0  0
  6 42  1  0  0  0
  7  8  1  0  0  0
  7  9  1  0  0  0
  7 31  1  0  0  0
  9 10  2  0  0  0
  9 11  1  0  0  0
 11 12  1  0  0  0
 11 43  1  0  0  0
 12 16  1  0  0  0
 12 13  2  0  0  0
 13 14  1  0  0  0
 14 15  2  0  0  0
 15 16  1  0  0  0
 15 17  1  0  0  0
 17 18  1  0  0  0
 17 23  1  0  0  0
 17 19  1  0  0  0
 19 20  1  0  0  0
 19 44  1  0  0  0
 19 45  1  0  0  0
 20 21  2  0  0  0
 20 22  1  0  0  0
 22 23  1  0  0  0
 22 24  1  0  0  0
 23 46  1  0  0  0
 23 47  1  0  0  0
 24 29  2  0  0  0
 24 25  1  0  0  0
 25 26  2  0  0  0
 25 48  1  0  0  0
 26 27  1  0  0  0
 26 49  1  0  0  0
 27 28  2  0  0  0
 27 30  1  0  0  0
 28 29  1  0  0  0
 28 50  1  0  0  0
 29 51  1  0  0  0
 31 32  1  0  0  0
 32 37  2  0  0  0
 32 33  1  0  0  0
 33 34  2  0  0  0
 33 52  1  0  0  0
 34 35  1  0  0  0
 34 53  1  0  0  0
 35 36  2  0  0  0
 35 54  1  0  0  0
 36 37  1  0  0  0
 36 55  1  0  0  0
 37 56  1  0  0  0
M  END
> <i_i_glide_confnum>
44

> <i_i_glide_lignum>
4027

> <i_i_glide_posenum>
395

> <i_i_glide_rotatable_bonds>
8

> <i_m_Source_File_Index>
4807

> <b_m_subgroup_collapsed>
0

> <r_i_docking_score>
-4.66025

> <r_i_glide_ecoul>
-3.79747

> <r_i_glide_eff_state_penalty>
0

> <r_i_glide_einternal>
9.3103

> <r_i_glide_emodel>
-53.4351

> <r_i_glide_energy>
-45.0719

> <r_i_glide_erotb>
0.64245

> <r_i_glide_esite>
-0.0108929

> <r_i_glide_evdw>
-41.2744

> <r_i_glide_gscore>
-4.66025

> <r_i_glide_hbond>
0

> <r_i_glide_ligand_efficiency>
-0.13315

> <r_i_glide_ligand_efficiency_ln>
-1.02303

> <r_i_glide_ligand_efficiency_sa>
-0.435543

> <r_i_glide_lipo>
-2.30807

> <r_i_glide_metal>
0

> <r_i_glide_rewards>
-0.350398

> <s_i_glide_gridfile>
wee1_glide-grid

> <s_m_Source_File>
wee1_decoys_glide_SP.sdf

> <s_m_Source_Path>
/Users/zhangxujun/Desktop

> <s_m_entry_id>
5082

> <s_m_entry_name>
wee1_decoys_glide_SP.4807

> <s_m_subgroup_title>
wee1_decoys_glide_SP

> <s_m_subgroupid>
wee1_decoys_glide_SP


$$$$
