@<TRIPOS>MOLECULE
ZINC52120585_1753
36   37    1
SMALL
USER_CHARGES


@<TRIPOS>ATOM
      1 C1          0.2250   53.6812   32.6456 C.3       1 UNK         0.0000 
      2 N2          0.2936   53.3090   31.2422 N.am      1 UNK         0.0000 
      3 C3          1.2398   52.5369   30.6921 C.2       1 UNK         0.0000 
      4 O4          2.1944   52.0984   31.3402 O.2       1 UNK         0.0000 
      5 C5          1.0093   52.0931   29.2220 C.3       1 UNK         0.0000 
      6 C6          0.5766   53.2901   28.3256 C.3       1 UNK         0.0000 
      7 C7          1.7302   54.2210   27.8758 C.3       1 UNK         0.0000 
      8 N8          2.8150   53.4376   27.2693 N.pl3     1 UNK         0.0000 
      9 C9          3.3621   52.5557   28.3040 C.3       1 UNK         0.0000 
     10 C10         2.3040   51.4898   28.6335 C.3       1 UNK         0.0000 
     11 C11         3.6999   53.9886   26.3495 C.ar      1 UNK         0.0000 
     12 C12         4.9480   54.4692   26.7700 C.ar      1 UNK         0.0000 
     13 C13         5.8916   54.8970   25.8436 C.ar      1 UNK         0.0000 
     14 C14         5.5931   54.8969   24.4860 C.ar      1 UNK         0.0000 
     15 C15         4.3294   54.4963   24.0561 C.ar      1 UNK         0.0000 
     16 C16         3.3747   54.0605   24.9766 C.ar      1 UNK         0.0000 
     17 N17         2.1299   53.6543   24.4828 N.pl3     1 UNK         0.0000 
     18 F18         7.1043   55.2999   26.2661 F         1 UNK         0.0000 
     19 H19        -0.8188   53.6967   32.9504 H         1 UNK         0.0000 
     20 H20         0.6665   54.6612   32.8181 H         1 UNK         0.0000 
     21 H21         0.7044   52.9411   33.2815 H         1 UNK         0.0000 
     22 H22        -0.4961   53.5644   30.6731 H         1 UNK         0.0000 
     23 H23         0.1895   51.3789   29.3200 H         1 UNK         0.0000 
     24 H24         0.0184   52.9087   27.4695 H         1 UNK         0.0000 
     25 H25        -0.2384   53.8540   28.7792 H         1 UNK         0.0000 
     26 H26         1.3276   54.8966   27.1326 H         1 UNK         0.0000 
     27 H27         2.1073   54.8332   28.6971 H         1 UNK         0.0000 
     28 H28         4.2867   52.0967   27.9643 H         1 UNK         0.0000 
     29 H29         3.6274   53.1408   29.1866 H         1 UNK         0.0000 
     30 H30         2.7014   50.7155   29.2805 H         1 UNK         0.0000 
     31 H31         2.0428   50.8838   27.7649 H         1 UNK         0.0000 
     32 H32         5.2166   54.4617   27.8161 H         1 UNK         0.0000 
     33 H33         6.3344   55.2244   23.7716 H         1 UNK         0.0000 
     34 H34         4.0987   54.5213   23.0006 H         1 UNK         0.0000 
     35 H35         1.9889   53.5882   23.4854 H         1 UNK         0.0000 
     36 H36         1.4973   53.2004   25.1269 H         1 UNK         0.0000 
@<TRIPOS>BOND
     1    1    2 1    
     2    1   19 1    
     3    1   20 1    
     4    1   21 1    
     5    2    3 am   BACKBONE|DICT|INTERRES
     6    2   22 1    
     7    3    4 2    
     8    3    5 1    
     9    5   10 1    
    10    5    6 1    
    11    5   23 1    
    12    6    7 1    
    13    6   24 1    
    14    6   25 1    
    15    7    8 1    
    16    7   26 1    
    17    7   27 1    
    18    8    9 1    
    19    8   11 1    
    20    9   10 1    
    21    9   28 1    
    22    9   29 1    
    23   10   30 1    
    24   10   31 1    
    25   11   16 ar   
    26   11   12 ar   
    27   12   13 ar   
    28   12   32 1    
    29   13   14 ar   
    30   13   18 1    
    31   14   15 ar   
    32   14   33 1    
    33   15   16 ar   
    34   15   34 1    
    35   16   17 1    
    36   17   35 1    
    37   17   36 1    
@<TRIPOS>SUBSTRUCTURE
     1 UNK         1 GROUP             0       ****    0 ROOT    
