@<TRIPOS>MOLECULE
ZINC13139372_2331
43   45    1
SMALL
USER_CHARGES


@<TRIPOS>ATOM
      1 C1          4.7993   52.8804   28.9711 C.3       1 UNK         0.0000 
      2 C2          5.5088   54.2214   28.7249 C.3       1 UNK         0.0000 
      3 O3          6.6481   54.1026   27.8693 O.3       1 UNK         0.0000 
      4 C4          6.3994   53.7973   26.5014 C.3       1 UNK         0.0000 
      5 C5          5.7520   54.9559   25.7146 C.3       1 UNK         0.0000 
      6 N6          4.7740   54.4966   24.7178 N.pl3     1 UNK         0.0000 
      7 C7          5.0731   54.4959   23.3473 C.ar      1 UNK         0.0000 
      8 C8          6.2568   54.8952   22.7094 C.ar      1 UNK         0.0000 
      9 C9          6.3304   54.8971   21.3160 C.ar      1 UNK         0.0000 
     10 C10         5.2544   54.4256   20.5572 C.ar      1 UNK         0.0000 
     11 C11         4.0780   54.0252   21.1915 C.ar      1 UNK         0.0000 
     12 C12         3.9917   54.0858   22.5793 C.ar      1 UNK         0.0000 
     13 S13         2.6014   53.7256   23.5708 S.3       1 UNK         0.0000 
     14 C14         3.5046   54.0727   25.1058 C.2       1 UNK         0.0000 
     15 N15         3.1037   53.9590   26.3177 N.am      1 UNK         0.0000 
     16 C16         1.8566   53.4835   26.6934 C.2       1 UNK         0.0000 
     17 O17         1.1140   52.7608   26.0240 O.2       1 UNK         0.0000 
     18 C18         1.5415   53.8453   28.0556 C.2       1 UNK         0.0000 
     19 C19         1.7181   55.1308   28.6039 C.2       1 UNK         0.0000 
     20 C20         1.3107   55.2402   29.9166 C.2       1 UNK         0.0000 
     21 S21         0.6968   53.7438   30.5300 S.3       1 UNK         0.0000 
     22 C22         1.0073   52.9689   29.0083 C.2       1 UNK         0.0000 
     23 Cl23        0.6308   51.2983   28.8428 Cl        1 UNK         0.0000 
     24 Cl24        1.3657   56.6510   30.8859 Cl        1 UNK         0.0000 
     25 S25         5.3649   54.3743   18.7758 S.o2      1 UNK         0.0000 
     26 O26         4.5486   55.4923   18.2946 O.2       1 UNK         0.0000 
     27 O27         6.7865   54.2610   18.4363 O.2       1 UNK         0.0000 
     28 N28         4.5742   52.8968   18.2745 N.pl3     1 UNK         0.0000 
     29 H29         4.0415   52.9764   29.7480 H         1 UNK         0.0000 
     30 H30         4.3098   52.4965   28.0804 H         1 UNK         0.0000 
     31 H31         5.5036   52.1182   29.2811 H         1 UNK         0.0000 
     32 H32         5.8625   54.6038   29.6811 H         1 UNK         0.0000 
     33 H33         4.8024   54.9664   28.3628 H         1 UNK         0.0000 
     34 H34         5.7990   52.8959   26.4257 H         1 UNK         0.0000 
     35 H35         7.3438   53.5388   26.0287 H         1 UNK         0.0000 
     36 H36         6.5418   55.5543   25.2651 H         1 UNK         0.0000 
     37 H37         5.2694   55.6625   26.3881 H         1 UNK         0.0000 
     38 H38         7.1103   55.2417   23.2662 H         1 UNK         0.0000 
     39 H39         7.2370   55.2329   20.8302 H         1 UNK         0.0000 
     40 H40         3.2325   53.6935   20.6071 H         1 UNK         0.0000 
     41 H41         2.1395   55.9715   28.0811 H         1 UNK         0.0000 
     42 H42         5.0751   51.9911   18.3714 H         1 UNK         0.0000 
     43 H43         3.5617   52.8505   18.3949 H         1 UNK         0.0000 
@<TRIPOS>BOND
     1    1    2 1    
     2    1   29 1    
     3    1   30 1    
     4    1   31 1    
     5    2    3 1    
     6    2   32 1    
     7    2   33 1    
     8    3    4 1    
     9    4    5 1    
    10    4   34 1    
    11    4   35 1    
    12    5    6 1    
    13    5   36 1    
    14    5   37 1    
    15    6   14 1    
    16    6    7 1    
    17    7   12 ar   
    18    7    8 ar   
    19    8    9 ar   
    20    8   38 1    
    21    9   10 ar   
    22    9   39 1    
    23   10   11 ar   
    24   10   25 1    
    25   11   12 ar   
    26   11   40 1    
    27   12   13 1    
    28   13   14 1    
    29   14   15 2    BACKBONE|DICT|INTERRES
    30   15   16 am   BACKBONE|DICT|INTERRES
    31   16   17 2    
    32   16   18 1    
    33   18   22 2    
    34   18   19 1    
    35   19   20 2    
    36   19   41 1    
    37   20   21 1    
    38   20   24 1    
    39   21   22 1    
    40   22   23 1    
    41   25   26 2    
    42   25   27 2    
    43   25   28 1    
    44   28   42 1    
    45   28   43 1    
@<TRIPOS>SUBSTRUCTURE
     1 UNK         1 GROUP             0       ****    0 ROOT    
