ZINC39978786_1973
                    3D
 Schrodinger Suite 2024-2.
 43 46  0  0  1  0            999 V2000
   -0.3437   51.3769   27.5075 C   0  0  0  0  0  0
   -0.6644   51.6983   28.8246 C   0  0  0  0  0  0
   -0.0952   52.8176   29.4226 C   0  0  0  0  0  0
    0.7765   53.6283   28.6908 C   0  0  0  0  0  0
    1.1045   53.2968   27.3722 C   0  0  0  0  0  0
    0.5398   52.1703   26.7783 C   0  0  0  0  0  0
    1.6004   55.0004   29.5039 S   0  0  0  0  0  0
    0.7514   55.3322   30.6529 O   0  0  0  0  0  0
    1.7869   56.0327   28.4818 O   0  0  0  0  0  0
    2.8962   54.2310   29.9007 N   0  5  0  0  0  0
    3.9211   54.0115   29.0623 C   0  0  0  0  0  0
    4.4176   54.7317   28.0764 N   0  0  0  0  0  0
    5.5073   54.1911   27.5459 C   0  0  0  0  0  0
    5.8564   52.9678   28.0817 C   0  0  0  0  0  0
    4.7018   52.4968   29.2817 S   0  0  0  0  0  0
    6.2894   54.9357   26.4753 C   0  0  0  0  0  0
    5.6867   54.8969   25.0628 C   0  0  0  0  0  0
    4.4650   54.8940   24.9073 O   0  0  0  0  0  0
    6.5829   54.9130   24.0506 N   0  0  0  0  0  0
    6.3289   54.8963   22.7106 C   0  0  0  0  0  0
    7.1961   55.5629   21.9160 C   0  0  0  0  0  0
    7.0559   55.4708   20.4739 C   0  0  0  0  0  0
    7.9720   55.5138   19.5023 C   0  0  0  0  0  0
    7.2921   55.0016   18.3440 C   0  0  0  0  0  0
    6.0645   54.6967   18.5161 N   0  0  0  0  0  0
    5.7432   55.0907   19.8481 C   0  0  1  0  0  0
    5.1047   55.9692   19.7490 H   0  0  0  0  0  0
    5.0241   54.0995   20.7783 C   0  0  0  0  0  0
    5.2700   54.0727   22.1105 C   0  0  0  0  0  0
   -0.7736   50.4913   27.0584 H   0  0  0  0  0  0
   -1.3329   51.0627   29.3883 H   0  0  0  0  0  0
   -0.3195   53.0403   30.4565 H   0  0  0  0  0  0
    1.8088   53.9035   26.8189 H   0  0  0  0  0  0
    0.7936   51.9073   25.7617 H   0  0  0  0  0  0
    6.7040   52.3507   27.8336 H   0  0  0  0  0  0
    7.2900   54.5033   26.4301 H   0  0  0  0  0  0
    6.4412   55.9764   26.7485 H   0  0  0  0  0  0
    7.5643   54.9361   24.2864 H   0  0  0  0  0  0
    8.0260   56.0965   22.3570 H   0  0  0  0  0  0
    9.0270   55.7350   19.5793 H   0  0  0  0  0  0
    7.7813   54.8522   17.3856 H   0  0  0  0  0  0
    4.2628   53.4507   20.3688 H   0  0  0  0  0  0
    4.7144   53.3834   22.7306 H   0  0  0  0  0  0
  1  6  2  0  0  0
  1  2  1  0  0  0
  1 30  1  0  0  0
  2  3  2  0  0  0
  2 31  1  0  0  0
  3  4  1  0  0  0
  3 32  1  0  0  0
  4  5  2  0  0  0
  4  7  1  0  0  0
  5  6  1  0  0  0
  5 33  1  0  0  0
  6 34  1  0  0  0
  7  8  2  0  0  0
  7  9  2  0  0  0
  7 10  1  0  0  0
 10 11  1  0  0  0
 11 15  1  0  0  0
 11 12  2  0  0  0
 12 13  1  0  0  0
 13 14  2  0  0  0
 13 16  1  0  0  0
 14 15  1  0  0  0
 14 35  1  0  0  0
 16 17  1  0  0  0
 16 36  1  0  0  0
 16 37  1  0  0  0
 17 18  2  0  0  0
 17 19  1  0  0  0
 19 20  1  0  0  0
 19 38  1  0  0  0
 20 29  1  0  0  0
 20 21  2  0  0  0
 21 22  1  0  0  0
 21 39  1  0  0  0
 22 26  1  0  0  0
 22 23  2  0  0  0
 23 24  1  0  0  0
 23 40  1  0  0  0
 24 25  2  0  0  0
 24 41  1  0  0  0
 25 26  1  0  0  0
 26 27  1  0  0  0
 26 28  1  0  0  0
 28 29  2  0  0  0
 28 42  1  0  0  0
 29 43  1  0  0  0
M  CHG  1  10  -1
M  END
> <i_i_glide_confnum>
42

> <i_i_glide_lignum>
1974

> <i_i_glide_posenum>
376

> <i_i_glide_rotatable_bonds>
7

> <i_m_Source_File_Index>
407

> <b_m_subgroup_collapsed>
0

> <r_i_docking_score>
-6.85501

> <r_i_glide_ecoul>
-3.73095

> <r_i_glide_eff_state_penalty>
0

> <r_i_glide_einternal>
8.81172

> <r_i_glide_emodel>
-65.4578

> <r_i_glide_energy>
-48.0829

> <r_i_glide_erotb>
0.698459

> <r_i_glide_esite>
0

> <r_i_glide_evdw>
-44.352

> <r_i_glide_gscore>
-6.85501

> <r_i_glide_hbond>
-0.361955

> <r_i_glide_ligand_efficiency>
-0.244822

> <r_i_glide_ligand_efficiency_ln>
-1.58234

> <r_i_glide_ligand_efficiency_sa>
-0.743423

> <r_i_glide_lipo>
-2.86601

> <r_i_glide_metal>
0

> <r_i_glide_rewards>
-1.54827

> <s_i_glide_gridfile>
wee1_glide-grid

> <s_m_Source_File>
wee1_decoys_glide_SP.sdf

> <s_m_Source_Path>
/Users/zhangxujun/Desktop

> <s_m_entry_id>
682

> <s_m_entry_name>
wee1_decoys_glide_SP.407

> <s_m_subgroup_title>
wee1_decoys_glide_SP

> <s_m_subgroupid>
wee1_decoys_glide_SP


$$$$
