ZINC22790608_4882
                    3D
 Schrodinger Suite 2024-2.
 70 72  0  0  1  0            999 V2000
   -1.2474   49.3097   25.0845 C   0  0  0  0  0  0
    0.1435   49.9629   24.9932 C   0  0  2  0  0  0
    0.8758   49.2980   25.4580 H   0  0  0  0  0  0
    0.0715   51.2807   25.8216 C   0  0  0  0  0  0
   -0.4202   52.3048   25.3353 O   0  0  0  0  0  0
    0.5582   51.2044   27.0803 N   0  0  0  0  0  0
    0.7298   52.2707   27.9805 C   0  0  0  0  0  0
    0.1803   52.0966   29.2558 C   0  0  0  0  0  0
    0.3038   53.0887   30.2267 C   0  0  0  0  0  0
    0.9844   54.2688   29.9315 C   0  0  0  0  0  0
    1.5604   54.4462   28.6739 C   0  0  0  0  0  0
    1.4662   53.4451   27.6995 C   0  0  0  0  0  0
    2.3049   53.6965   26.1463 S   0  0  0  0  0  0
    4.0124   53.9495   26.5403 C   0  0  0  0  0  0
    4.8194   54.5666   25.5843 C   0  0  0  0  0  0
    6.1713   54.7705   25.8422 C   0  0  0  0  0  0
    6.7070   54.3474   27.0565 C   0  0  0  0  0  0
    5.9110   53.7123   28.0054 C   0  0  0  0  0  0
    4.5589   53.5140   27.7510 C   0  0  0  0  0  0
    0.5851   50.1998   23.5850 N   0  0  0  0  0  0
    0.3428   49.0609   22.6907 C   0  0  0  0  0  0
    1.1660   48.8957   21.3984 C   0  0  0  0  0  0
    1.2346   50.1017   20.4600 C   0  0  0  0  0  0
    2.3115   51.1321   20.8732 N   0  3  2  0  0  0
    2.0391   51.8038   22.2471 C   0  0  0  0  0  0
    1.9035   50.8428   23.4479 C   0  0  0  0  0  0
    2.4903   52.1782   19.7332 C   0  0  0  0  0  0
    3.8863   52.8254   19.7108 C   0  0  0  0  0  0
    4.7203   52.5848   20.5863 O   0  0  0  0  0  0
    4.1130   53.6223   18.6466 N   0  0  0  0  0  0
    5.3588   54.2778   18.2299 C   0  0  0  0  0  0
    5.8211   55.3342   19.2568 C   0  0  0  0  0  0
    5.0723   54.9976   16.8962 C   0  0  0  0  0  0
    6.4727   53.2368   17.9788 C   0  0  0  0  0  0
   -1.5941   49.2614   26.1192 H   0  0  0  0  0  0
   -1.9748   49.8775   24.5011 H   0  0  0  0  0  0
   -1.2146   48.2843   24.7161 H   0  0  0  0  0  0
    0.6095   50.2797   27.4837 H   0  0  0  0  0  0
   -0.3671   51.1958   29.5001 H   0  0  0  0  0  0
   -0.1401   52.9445   31.2020 H   0  0  0  0  0  0
    1.0692   55.0439   30.6790 H   0  0  0  0  0  0
    2.1010   55.3568   28.4627 H   0  0  0  0  0  0
    4.3982   54.8876   24.6412 H   0  0  0  0  0  0
    6.7984   55.2440   25.1019 H   0  0  0  0  0  0
    7.7536   54.4947   27.2693 H   0  0  0  0  0  0
    6.3511   53.3710   28.9277 H   0  0  0  0  0  0
    3.9564   53.0016   28.4844 H   0  0  0  0  0  0
    0.6590   48.1997   23.2829 H   0  0  0  0  0  0
   -0.7246   48.9187   22.5185 H   0  0  0  0  0  0
    0.6902   48.0966   20.8319 H   0  0  0  0  0  0
    2.1589   48.5002   21.6220 H   0  0  0  0  0  0
    0.2856   50.6340   20.3674 H   0  0  0  0  0  0
    1.5490   49.7503   19.4727 H   0  0  0  0  0  0
    2.8842   52.4732   22.4192 H   0  0  0  0  0  0
    1.1622   52.4462   22.1472 H   0  0  0  0  0  0
    2.6747   50.0731   23.3714 H   0  0  0  0  0  0
    2.1994   51.3957   24.3375 H   0  0  0  0  0  0
    1.6840   52.8996   19.8479 H   0  0  0  0  0  0
    2.3278   51.6677   18.7827 H   0  0  0  0  0  0
    3.3442   53.7584   18.0100 H   0  0  0  0  0  0
    6.7751   55.7769   18.9676 H   0  0  0  0  0  0
    5.9481   54.9134   20.2548 H   0  0  0  0  0  0
    5.1024   56.1512   19.3184 H   0  0  0  0  0  0
    4.7588   54.2993   16.1185 H   0  0  0  0  0  0
    4.2834   55.7444   17.0032 H   0  0  0  0  0  0
    5.9585   55.5160   16.5257 H   0  0  0  0  0  0
    6.1722   52.4974   17.2337 H   0  0  0  0  0  0
    7.3952   53.7003   17.6303 H   0  0  0  0  0  0
    6.7039   52.6807   18.8815 H   0  0  0  0  0  0
    3.1920   50.6339   20.9359 H   0  0  0  0  0  0
  1  2  1  0  0  0
  1 35  1  0  0  0
  1 36  1  0  0  0
  1 37  1  0  0  0
  2  3  1  0  0  0
  2  4  1  0  0  0
  2 20  1  0  0  0
  4  5  2  0  0  0
  4  6  1  0  0  0
  6  7  1  0  0  0
  6 38  1  0  0  0
  7 12  2  0  0  0
  7  8  1  0  0  0
  8  9  2  0  0  0
  8 39  1  0  0  0
  9 10  1  0  0  0
  9 40  1  0  0  0
 10 11  2  0  0  0
 10 41  1  0  0  0
 11 12  1  0  0  0
 11 42  1  0  0  0
 12 13  1  0  0  0
 13 14  1  0  0  0
 14 19  2  0  0  0
 14 15  1  0  0  0
 15 16  2  0  0  0
 15 43  1  0  0  0
 16 17  1  0  0  0
 16 44  1  0  0  0
 17 18  2  0  0  0
 17 45  1  0  0  0
 18 19  1  0  0  0
 18 46  1  0  0  0
 19 47  1  0  0  0
 20 26  1  0  0  0
 20 21  1  0  0  0
 21 22  1  0  0  0
 21 48  1  0  0  0
 21 49  1  0  0  0
 22 23  1  0  0  0
 22 50  1  0  0  0
 22 51  1  0  0  0
 23 24  1  0  0  0
 23 52  1  0  0  0
 23 53  1  0  0  0
 24 25  1  0  0  0
 24 27  1  0  0  0
 24 70  1  0  0  0
 25 26  1  0  0  0
 25 54  1  0  0  0
 25 55  1  0  0  0
 26 56  1  0  0  0
 26 57  1  0  0  0
 27 28  1  0  0  0
 27 58  1  0  0  0
 27 59  1  0  0  0
 28 29  2  0  0  0
 28 30  1  0  0  0
 30 31  1  0  0  0
 30 60  1  0  0  0
 31 32  1  0  0  0
 31 33  1  0  0  0
 31 34  1  0  0  0
 32 61  1  0  0  0
 32 62  1  0  0  0
 32 63  1  0  0  0
 33 64  1  0  0  0
 33 65  1  0  0  0
 33 66  1  0  0  0
 34 67  1  0  0  0
 34 68  1  0  0  0
 34 69  1  0  0  0
M  CHG  1  24   1
M  END
> <i_i_glide_confnum>
312

> <i_i_glide_lignum>
4883

> <i_i_glide_posenum>
61

> <i_i_glide_rotatable_bonds>
10

> <i_m_Source_File_Index>
6070

> <b_m_subgroup_collapsed>
0

> <r_i_docking_score>
-5.30362

> <r_i_glide_ecoul>
-2.89884

> <r_i_glide_eff_state_penalty>
0

> <r_i_glide_einternal>
6.71498

> <r_i_glide_emodel>
-65.7652

> <r_i_glide_energy>
-49.9135

> <r_i_glide_erotb>
0.824144

> <r_i_glide_esite>
-0.0908749

> <r_i_glide_evdw>
-47.0146

> <r_i_glide_gscore>
-5.30362

> <r_i_glide_hbond>
0

> <r_i_glide_ligand_efficiency>
-0.160716

> <r_i_glide_ligand_efficiency_ln>
-1.1795

> <r_i_glide_ligand_efficiency_sa>
-0.515502

> <r_i_glide_lipo>
-3.04631

> <r_i_glide_metal>
0

> <r_i_glide_rewards>
-0.205029

> <s_i_glide_gridfile>
wee1_glide-grid

> <s_m_Source_File>
wee1_decoys_glide_SP.sdf

> <s_m_Source_Path>
/Users/zhangxujun/Desktop

> <s_m_entry_id>
6345

> <s_m_entry_name>
wee1_decoys_glide_SP.6070

> <s_m_subgroup_title>
wee1_decoys_glide_SP

> <s_m_subgroupid>
wee1_decoys_glide_SP


$$$$
