@<TRIPOS>MOLECULE
ZINC39490907_5757
77   79    1
SMALL
USER_CHARGES


@<TRIPOS>ATOM
      1 C1         -4.7064   48.0997   28.8866 C.3       1 UNK         0.0000 
      2 C2         -4.3768   48.2064   27.3856 C.3       1 UNK         0.0000 
      3 C3         -5.0444   47.0775   26.5758 C.3       1 UNK         0.0000 
      4 S4         -4.8984   49.9315   26.7465 S.o2      1 UNK         0.0000 
      5 O5         -6.3143   49.8631   26.3681 O.2       1 UNK         0.0000 
      6 O6         -4.4949   50.9178   27.7570 O.2       1 UNK         0.0000 
      7 C7         -3.8846   50.3131   25.1471 C.3       1 UNK         0.0000 
      8 C8         -4.3266   49.4526   23.9598 C.3       1 UNK         0.0000 
      9 N9         -3.2298   48.4844   23.8853 N.am      1 UNK         0.0000 
     10 C10        -2.1313   48.8020   24.7107 C.2       1 UNK         0.0000 
     11 O11        -1.0903   48.1545   24.8204 O.2       1 UNK         0.0000 
     12 N12        -2.4629   49.9685   25.3134 N.am      1 UNK         0.0000 
     13 C13        -1.5618   50.6173   26.2876 C.3       1 UNK         0.0000 
     14 C14        -0.3991   51.5562   25.8005 C.3       1 UNK         0.0000 
     15 C15         0.5404   50.7806   24.8248 C.3       1 UNK         0.0000 
     16 C16         1.6752   51.6651   24.2592 C.3       1 UNK         0.0000 
     17 N17         1.1406   52.8012   23.5111 N.3       1 UNK         0.0000 
     18 C18         0.1672   53.5777   24.2807 C.3       1 UNK         0.0000 
     19 C19        -0.9495   52.6671   24.8557 C.3       1 UNK         0.0000 
     20 S20         2.4594   53.8197   22.8798 S.3       1 UNK         0.0000 
     21 C21         2.8164   53.0197   21.2930 C.3       1 UNK         0.0000 
     22 C22         0.3937   52.1727   27.0260 C.3       1 UNK         0.0000 
     23 C23        -0.4933   52.9752   28.0135 C.3       1 UNK         0.0000 
     24 C24         0.3511   53.7247   29.0665 C.3       1 UNK         0.0000 
     25 C25         1.2618   52.7523   29.8478 C.3       1 UNK         0.0000 
     26 C26         2.0518   51.8150   28.9107 C.3       1 UNK         0.0000 
     27 C27         1.1063   51.1242   27.9076 C.3       1 UNK         0.0000 
     28 S28        -3.2199   47.1657   22.7143 S.o2      1 UNK         0.0000 
     29 O29        -2.8752   45.9327   23.4300 O.2       1 UNK         0.0000 
     30 O30        -4.4694   47.2398   21.9496 O.2       1 UNK         0.0000 
     31 C31        -1.7713   47.5968   21.5557 C.3       1 UNK         0.0000 
     32 C32        -1.5397   46.4380   20.5725 C.3       1 UNK         0.0000 
     33 C33        -2.0455   48.9341   20.8427 C.3       1 UNK         0.0000 
     34 C34        -4.1574   51.8117   24.8702 C.3       1 UNK         0.0000 
     35 H35        -4.3981   47.1346   29.2909 H         1 UNK         0.0000 
     36 H36        -5.7744   48.2261   29.0733 H         1 UNK         0.0000 
     37 H37        -4.1723   48.8613   29.4583 H         1 UNK         0.0000 
     38 H38        -3.2956   48.1529   27.2786 H         1 UNK         0.0000 
     39 H39        -4.7652   46.0990   26.9693 H         1 UNK         0.0000 
     40 H40        -6.1332   47.1493   26.6065 H         1 UNK         0.0000 
     41 H41        -4.7461   47.0904   25.5295 H         1 UNK         0.0000 
     42 H42        -5.2918   48.9698   24.1195 H         1 UNK         0.0000 
     43 H43        -4.3794   50.0251   23.0313 H         1 UNK         0.0000 
     44 H44        -2.1900   51.1635   26.9860 H         1 UNK         0.0000 
     45 H45        -1.1170   49.8196   26.8815 H         1 UNK         0.0000 
     46 H46         0.9772   49.9158   25.3234 H         1 UNK         0.0000 
     47 H47         0.0006   50.3546   23.9786 H         1 UNK         0.0000 
     48 H48         2.3069   52.0754   25.0480 H         1 UNK         0.0000 
     49 H49         2.3064   51.0659   23.6050 H         1 UNK         0.0000 
     50 H50         0.7221   54.0915   25.0611 H         1 UNK         0.0000 
     51 H51        -0.2726   54.3676   23.6818 H         1 UNK         0.0000 
     52 H52        -1.5054   52.2394   24.0219 H         1 UNK         0.0000 
     53 H53        -1.6708   53.2923   25.3798 H         1 UNK         0.0000 
     54 H54         3.5128   53.6278   20.7139 H         1 UNK         0.0000 
     55 H55         3.2590   52.0346   21.4492 H         1 UNK         0.0000 
     56 H56         1.9001   52.8968   20.7135 H         1 UNK         0.0000 
     57 H57         1.1615   52.8468   26.6567 H         1 UNK         0.0000 
     58 H58        -1.0883   53.6960   27.4651 H         1 UNK         0.0000 
     59 H59        -1.2327   52.3327   28.4930 H         1 UNK         0.0000 
     60 H60         0.9624   54.4825   28.5729 H         1 UNK         0.0000 
     61 H61        -0.2992   54.2552   29.7619 H         1 UNK         0.0000 
     62 H62         1.9473   53.3101   30.4874 H         1 UNK         0.0000 
     63 H63         0.6453   52.1499   30.5174 H         1 UNK         0.0000 
     64 H64         2.8067   52.3855   28.3701 H         1 UNK         0.0000 
     65 H65         2.6000   51.0744   29.4870 H         1 UNK         0.0000 
     66 H66         0.3654   50.4978   28.4012 H         1 UNK         0.0000 
     67 H67         1.6883   50.4341   27.3054 H         1 UNK         0.0000 
     68 H68        -0.8953   47.7032   22.1945 H         1 UNK         0.0000 
     69 H69        -0.6977   46.6442   19.9105 H         1 UNK         0.0000 
     70 H70        -1.3163   45.5127   21.1054 H         1 UNK         0.0000 
     71 H71        -2.4191   46.2596   19.9522 H         1 UNK         0.0000 
     72 H72        -1.2232   49.2014   20.1782 H         1 UNK         0.0000 
     73 H73        -2.9562   48.8885   20.2440 H         1 UNK         0.0000 
     74 H74        -2.1614   49.7487   21.5578 H         1 UNK         0.0000 
     75 H75        -3.7019   52.1492   23.9398 H         1 UNK         0.0000 
     76 H76        -5.2283   51.9998   24.7752 H         1 UNK         0.0000 
     77 H77        -3.7954   52.4504   25.6767 H         1 UNK         0.0000 
@<TRIPOS>BOND
     1    1    2 1    
     2    1   35 1    
     3    1   36 1    
     4    1   37 1    
     5    2    3 1    
     6    2    4 1    
     7    2   38 1    
     8    3   39 1    
     9    3   40 1    
    10    3   41 1    
    11    4    5 2    
    12    4    6 2    
    13    4    7 1    
    14    7   12 1    
    15    7    8 1    
    16    7   34 1    
    17    8    9 1    
    18    8   42 1    
    19    8   43 1    
    20    9   10 am   BACKBONE|DICT|INTERRES
    21    9   28 1    
    22   10   11 2    
    23   10   12 am   BACKBONE|DICT|INTERRES
    24   12   13 1    
    25   13   14 1    
    26   13   44 1    
    27   13   45 1    
    28   14   19 1    
    29   14   15 1    
    30   14   22 1    
    31   15   16 1    
    32   15   46 1    
    33   15   47 1    
    34   16   17 1    
    35   16   48 1    
    36   16   49 1    
    37   17   18 1    
    38   17   20 1    
    39   18   19 1    
    40   18   50 1    
    41   18   51 1    
    42   19   52 1    
    43   19   53 1    
    44   20   21 1    
    45   21   54 1    
    46   21   55 1    
    47   21   56 1    
    48   22   27 1    
    49   22   23 1    
    50   22   57 1    
    51   23   24 1    
    52   23   58 1    
    53   23   59 1    
    54   24   25 1    
    55   24   60 1    
    56   24   61 1    
    57   25   26 1    
    58   25   62 1    
    59   25   63 1    
    60   26   27 1    
    61   26   64 1    
    62   26   65 1    
    63   27   66 1    
    64   27   67 1    
    65   28   29 2    
    66   28   30 2    
    67   28   31 1    
    68   31   32 1    
    69   31   33 1    
    70   31   68 1    
    71   32   69 1    
    72   32   70 1    
    73   32   71 1    
    74   33   72 1    
    75   33   73 1    
    76   33   74 1    
    77   34   75 1    
    78   34   76 1    
    79   34   77 1    
@<TRIPOS>SUBSTRUCTURE
     1 UNK         1 GROUP             0       ****    0 ROOT    
