ZINC56607791_1548
                    3D
 Schrodinger Suite 2024-2.
 48 51  0  0  1  0            999 V2000
    5.3480   54.0930   26.4600 C   0  0  0  0  0  0
    4.9127   53.7808   27.7473 C   0  0  0  0  0  0
    3.5824   53.3981   27.9668 C   0  0  0  0  0  0
    2.6767   53.3914   26.9003 C   0  0  0  0  0  0
    3.1136   53.6968   25.6161 C   0  0  0  0  0  0
    4.4527   54.0181   25.3827 C   0  0  0  0  0  0
    4.8134   54.1450   24.0297 N   0  0  0  0  0  0
    5.8972   54.7154   23.4546 C   0  0  0  0  0  0
    6.8308   55.1660   24.1172 O   0  0  0  0  0  0
    5.8349   54.8007   22.0855 N   0  0  0  0  0  0
    6.7008   55.8012   21.4072 C   0  0  0  0  0  0
    7.1880   55.2667   20.0450 C   0  0  0  0  0  0
    6.0861   54.6651   19.1436 C   0  0  0  0  0  0
    5.3062   53.6236   19.9616 C   0  0  0  0  0  0
    4.7407   54.1649   21.2909 C   0  0  0  0  0  0
    5.1559   55.6332   18.5654 N   0  0  0  0  0  0
    5.4554   56.5873   17.6678 C   0  0  0  0  0  0
    6.6022   56.8806   17.3301 O   0  0  0  0  0  0
    4.3030   57.2139   17.0698 C   0  0  0  0  0  0
    4.3209   58.4908   16.4823 C   0  0  0  0  0  0
    3.1053   58.8578   15.9230 C   0  0  0  0  0  0
    1.9227   57.6005   16.0370 S   0  0  0  0  0  0
    3.0676   56.5891   16.8535 C   0  0  0  0  0  0
    3.1706   52.9619   29.2481 N   0  0  0  0  0  0
    3.9044   52.3456   30.2285 C   0  0  0  0  0  0
    3.1683   52.0965   31.2784 N   0  0  0  0  0  0
    1.9780   52.5076   30.8779 C   0  0  0  0  0  0
    1.9062   53.0653   29.6873 N   0  0  0  0  0  0
    6.3915   54.3248   26.3149 H   0  0  0  0  0  0
    5.6264   53.8055   28.5585 H   0  0  0  0  0  0
    1.6468   53.0995   27.0490 H   0  0  0  0  0  0
    2.4096   53.6356   24.7984 H   0  0  0  0  0  0
    4.0950   53.8499   23.3886 H   0  0  0  0  0  0
    7.6015   56.0187   21.9861 H   0  0  0  0  0  0
    6.1091   56.7043   21.2495 H   0  0  0  0  0  0
    7.9606   54.5158   20.2052 H   0  0  0  0  0  0
    7.7142   56.0642   19.5206 H   0  0  0  0  0  0
    6.5690   54.1596   18.3028 H   0  0  0  0  0  0
    4.4783   53.2407   19.3619 H   0  0  0  0  0  0
    5.9037   52.7339   20.1423 H   0  0  0  0  0  0
    4.3276   53.2858   21.7871 H   0  0  0  0  0  0
    3.9589   54.8966   21.0908 H   0  0  0  0  0  0
    4.1989   55.5671   18.8755 H   0  0  0  0  0  0
    5.1803   59.1488   16.4925 H   0  0  0  0  0  0
    2.8653   59.8048   15.4609 H   0  0  0  0  0  0
    2.7755   55.5877   17.1353 H   0  0  0  0  0  0
    4.9470   52.1067   30.0822 H   0  0  0  0  0  0
    1.1073   52.4224   31.5156 H   0  0  0  0  0  0
  1  6  2  0  0  0
  1  2  1  0  0  0
  1 29  1  0  0  0
  2  3  2  0  0  0
  2 30  1  0  0  0
  3  4  1  0  0  0
  3 24  1  0  0  0
  4  5  2  0  0  0
  4 31  1  0  0  0
  5  6  1  0  0  0
  5 32  1  0  0  0
  6  7  1  0  0  0
  7  8  1  0  0  0
  7 33  1  0  0  0
  8  9  2  0  0  0
  8 10  1  0  0  0
 10 15  1  0  0  0
 10 11  1  0  0  0
 11 12  1  0  0  0
 11 34  1  0  0  0
 11 35  1  0  0  0
 12 13  1  0  0  0
 12 36  1  0  0  0
 12 37  1  0  0  0
 13 14  1  0  0  0
 13 16  1  0  0  0
 13 38  1  0  0  0
 14 15  1  0  0  0
 14 39  1  0  0  0
 14 40  1  0  0  0
 15 41  1  0  0  0
 15 42  1  0  0  0
 16 17  1  0  0  0
 16 43  1  0  0  0
 17 18  2  0  0  0
 17 19  1  0  0  0
 19 23  2  0  0  0
 19 20  1  0  0  0
 20 21  2  0  0  0
 20 44  1  0  0  0
 21 22  1  0  0  0
 21 45  1  0  0  0
 22 23  1  0  0  0
 23 46  1  0  0  0
 24 28  1  0  0  0
 24 25  1  0  0  0
 25 26  2  0  0  0
 25 47  1  0  0  0
 26 27  1  0  0  0
 27 28  2  0  0  0
 27 48  1  0  0  0
M  END
> <i_i_glide_confnum>
269

> <i_i_glide_lignum>
1549

> <i_i_glide_posenum>
55

> <i_i_glide_rotatable_bonds>
7

> <i_m_Source_File_Index>
4323

> <b_m_subgroup_collapsed>
0

> <r_i_docking_score>
-5.82467

> <r_i_glide_ecoul>
-2.9569

> <r_i_glide_eff_state_penalty>
0

> <r_i_glide_einternal>
11.1078

> <r_i_glide_emodel>
-53.3646

> <r_i_glide_energy>
-44.645

> <r_i_glide_erotb>
0.871298

> <r_i_glide_esite>
-0.0483628

> <r_i_glide_evdw>
-41.6881

> <r_i_glide_gscore>
-5.82467

> <r_i_glide_hbond>
-0.329675

> <r_i_glide_ligand_efficiency>
-0.208024

> <r_i_glide_ligand_efficiency_ln>
-1.3445

> <r_i_glide_ligand_efficiency_sa>
-0.631683

> <r_i_glide_lipo>
-1.87569

> <r_i_glide_metal>
0

> <r_i_glide_rewards>
-1.9143

> <s_i_glide_gridfile>
wee1_glide-grid

> <s_m_Source_File>
wee1_decoys_glide_SP.sdf

> <s_m_Source_Path>
/Users/zhangxujun/Desktop

> <s_m_entry_id>
4598

> <s_m_entry_name>
wee1_decoys_glide_SP.4323

> <s_m_subgroup_title>
wee1_decoys_glide_SP

> <s_m_subgroupid>
wee1_decoys_glide_SP


$$$$
