ZINC17244463_2815
                    3D
 Schrodinger Suite 2024-2.
 54 57  0  0  1  0            999 V2000
   -3.4005   52.5948   24.6939 C   0  0  0  0  0  0
   -1.9513   52.2013   25.0230 C   0  0  2  0  0  0
   -1.2815   52.8856   24.4983 H   0  0  0  0  0  0
   -1.6161   50.7620   24.5608 C   0  0  0  0  0  0
   -0.1353   50.4266   24.8586 C   0  0  1  0  0  0
    0.4913   51.1738   24.3668 H   0  0  0  0  0  0
    0.0886   50.5359   26.3829 C   0  0  0  0  0  0
   -0.2585   51.9048   26.8289 N   0  0  0  0  0  0
   -1.6541   52.3316   26.5382 C   0  0  0  0  0  0
    0.6794   52.6554   28.1410 S   0  0  0  0  0  0
    1.1366   51.6083   29.0604 O   0  0  0  0  0  0
   -0.0569   53.8227   28.6365 O   0  0  0  0  0  0
    2.1511   53.2992   27.3489 C   0  0  0  0  0  0
    3.3453   53.4056   28.0657 C   0  0  0  0  0  0
    4.5059   53.8367   27.4231 C   0  0  0  0  0  0
    4.4783   54.1591   26.0598 C   0  0  0  0  0  0
    3.2573   54.0970   25.3672 C   0  0  0  0  0  0
    2.1039   53.6655   26.0057 C   0  0  0  0  0  0
    5.7515   54.5318   25.3359 C   0  0  0  0  0  0
    6.6831   55.1124   25.9046 O   0  0  0  0  0  0
    5.7687   54.1426   24.0475 N   0  0  0  0  0  0
    6.7113   54.6501   23.1532 N   0  0  0  0  0  0
    6.2823   54.8967   21.8694 C   0  0  0  0  0  0
    6.7041   55.9135   21.1797 N   0  0  0  0  0  0
    6.1106   55.9558   19.9550 C   0  0  0  0  0  0
    6.3192   56.9578   18.9925 C   0  0  0  0  0  0
    5.6207   56.8774   17.7864 C   0  0  0  0  0  0
    4.7362   55.8302   17.5264 C   0  0  0  0  0  0
    4.5107   54.8231   18.4650 C   0  0  0  0  0  0
    5.1969   54.8972   19.6853 C   0  0  0  0  0  0
    5.1044   53.8469   21.0890 S   0  0  0  0  0  0
    4.0787   55.7938   16.3462 F   0  0  0  0  0  0
    7.1589   57.9936   19.2265 F   0  0  0  0  0  0
    0.2738   49.0469   24.3378 C   0  0  0  0  0  0
   -4.1148   51.9396   25.1944 H   0  0  0  0  0  0
   -3.6140   53.6174   25.0067 H   0  0  0  0  0  0
   -3.5921   52.5349   23.6223 H   0  0  0  0  0  0
   -1.8240   50.6486   23.4957 H   0  0  0  0  0  0
   -2.2800   50.0324   25.0294 H   0  0  0  0  0  0
    1.1039   50.2875   26.6873 H   0  0  0  0  0  0
   -0.5884   49.8408   26.8818 H   0  0  0  0  0  0
   -2.3150   51.6528   27.0806 H   0  0  0  0  0  0
   -1.8175   53.3498   26.8820 H   0  0  0  0  0  0
    3.3815   53.1265   29.1090 H   0  0  0  0  0  0
    5.4312   53.8851   27.9813 H   0  0  0  0  0  0
    3.1834   54.3659   24.3232 H   0  0  0  0  0  0
    1.1821   53.6075   25.4449 H   0  0  0  0  0  0
    4.8929   53.9341   23.5916 H   0  0  0  0  0  0
    7.2146   55.4024   23.6083 H   0  0  0  0  0  0
    5.7628   57.6460   17.0400 H   0  0  0  0  0  0
    3.8155   54.0215   18.2572 H   0  0  0  0  0  0
   -0.2718   48.2447   24.8368 H   0  0  0  0  0  0
    0.1081   48.9556   23.2641 H   0  0  0  0  0  0
    1.3355   48.8967   24.5210 H   0  0  0  0  0  0
  1  2  1  0  0  0
  1 35  1  0  0  0
  1 36  1  0  0  0
  1 37  1  0  0  0
  2  3  1  0  0  0
  2  9  1  0  0  0
  2  4  1  0  0  0
  4  5  1  0  0  0
  4 38  1  0  0  0
  4 39  1  0  0  0
  5  6  1  0  0  0
  5  7  1  0  0  0
  5 34  1  0  0  0
  7  8  1  0  0  0
  7 40  1  0  0  0
  7 41  1  0  0  0
  8  9  1  0  0  0
  8 10  1  0  0  0
  9 42  1  0  0  0
  9 43  1  0  0  0
 10 11  2  0  0  0
 10 12  2  0  0  0
 10 13  1  0  0  0
 13 18  2  0  0  0
 13 14  1  0  0  0
 14 15  2  0  0  0
 14 44  1  0  0  0
 15 16  1  0  0  0
 15 45  1  0  0  0
 16 17  2  0  0  0
 16 19  1  0  0  0
 17 18  1  0  0  0
 17 46  1  0  0  0
 18 47  1  0  0  0
 19 20  2  0  0  0
 19 21  1  0  0  0
 21 22  1  0  0  0
 21 48  1  0  0  0
 22 23  1  0  0  0
 22 49  1  0  0  0
 23 31  1  0  0  0
 23 24  2  0  0  0
 24 25  1  0  0  0
 25 30  2  0  0  0
 25 26  1  0  0  0
 26 27  2  0  0  0
 26 33  1  0  0  0
 27 28  1  0  0  0
 27 50  1  0  0  0
 28 29  2  0  0  0
 28 32  1  0  0  0
 29 30  1  0  0  0
 29 51  1  0  0  0
 30 31  1  0  0  0
 34 52  1  0  0  0
 34 53  1  0  0  0
 34 54  1  0  0  0
M  END
> <i_i_glide_confnum>
3

> <i_i_glide_lignum>
2816

> <i_i_glide_posenum>
398

> <i_i_glide_rotatable_bonds>
6

> <i_m_Source_File_Index>
3412

> <b_m_subgroup_collapsed>
0

> <r_i_docking_score>
-5.38796

> <r_i_glide_ecoul>
-6.14962

> <r_i_glide_eff_state_penalty>
0

> <r_i_glide_einternal>
6.20304

> <r_i_glide_emodel>
-67.3773

> <r_i_glide_energy>
-54.6207

> <r_i_glide_erotb>
0.439089

> <r_i_glide_esite>
-0.0679155

> <r_i_glide_evdw>
-48.4711

> <r_i_glide_gscore>
-5.38796

> <r_i_glide_hbond>
-0.28911

> <r_i_glide_ligand_efficiency>
-0.168374

> <r_i_glide_ligand_efficiency_ln>
-1.20651

> <r_i_glide_ligand_efficiency_sa>
-0.534553

> <r_i_glide_lipo>
-2.01961

> <r_i_glide_metal>
0

> <r_i_glide_rewards>
-0.104412

> <s_i_glide_gridfile>
wee1_glide-grid

> <s_m_Source_File>
wee1_decoys_glide_SP.sdf

> <s_m_Source_Path>
/Users/zhangxujun/Desktop

> <s_m_entry_id>
3687

> <s_m_entry_name>
wee1_decoys_glide_SP.3412

> <s_m_subgroup_title>
wee1_decoys_glide_SP

> <s_m_subgroupid>
wee1_decoys_glide_SP


$$$$
