@<TRIPOS>MOLECULE
ZINC40520845_1640
29   30    1
SMALL
USER_CHARGES


@<TRIPOS>ATOM
      1 C1          3.8231   54.0955   26.5814 C.ar      1 UNK         0.0000 
      2 C2          4.5102   54.4567   25.4289 C.ar      1 UNK         0.0000 
      3 C3          5.9092   54.5362   25.4382 C.ar      1 UNK         0.0000 
      4 C4          6.5988   54.3279   26.6338 C.ar      1 UNK         0.0000 
      5 C5          5.9081   53.9679   27.7875 C.ar      1 UNK         0.0000 
      6 C6          4.5181   53.8254   27.7636 C.ar      1 UNK         0.0000 
      7 C7          3.8221   53.3746   28.9832 C.2       1 UNK         0.0000 
      8 C8          2.4906   53.4289   29.2095 C.2       1 UNK         0.0000 
      9 C9          1.8196   52.8964   30.4794 C.2       1 UNK         0.0000 
     10 O10         0.6817   53.3729   30.6744 O.co2     1 UNK         0.0000 
     11 O11         2.5056   52.0968   31.1579 O.co2     1 UNK         0.0000 
     12 N12         6.6612   54.8459   24.2876 N.am      1 UNK         0.0000 
     13 C13         6.3020   54.6237   23.0054 C.2       1 UNK         0.0000 
     14 O14         5.3441   53.9310   22.6620 O.2       1 UNK         0.0000 
     15 N15         7.1046   55.2965   22.1609 N.am      1 UNK         0.0000 
     16 C16         6.9508   55.4584   20.7907 C.2       1 UNK         0.0000 
     17 N17         7.8521   56.0965   20.0855 N.2       1 UNK         0.0000 
     18 N18         7.5256   56.1794   18.7371 N.2       1 UNK         0.0000 
     19 C19         6.3823   55.6002   18.4646 C.2       1 UNK         0.0000 
     20 S20         5.5894   54.8968   19.8392 S.3       1 UNK         0.0000 
     21 H21         2.7507   54.0027   26.5283 H         1 UNK         0.0000 
     22 H22         3.9386   54.6487   24.5332 H         1 UNK         0.0000 
     23 H23         7.6716   54.4125   26.6802 H         1 UNK         0.0000 
     24 H24         6.4631   53.7863   28.6974 H         1 UNK         0.0000 
     25 H25         4.4536   52.9389   29.7456 H         1 UNK         0.0000 
     26 H26         1.8382   53.8648   28.4695 H         1 UNK         0.0000 
     27 H27         7.5916   55.2036   24.4459 H         1 UNK         0.0000 
     28 H28         7.9153   55.7479   22.5611 H         1 UNK         0.0000 
     29 H29         5.9489   55.5517   17.4762 H         1 UNK         0.0000 
@<TRIPOS>BOND
     1    1    6 ar   
     2    1    2 ar   
     3    1   21 1    
     4    2    3 ar   
     5    2   22 1    
     6    3    4 ar   
     7    3   12 1    
     8    4    5 ar   
     9    4   23 1    
    10    5    6 ar   
    11    5   24 1    
    12    6    7 1    
    13    7    8 2    
    14    7   25 1    
    15    8    9 1    
    16    8   26 1    
    17    9   10 2    
    18    9   11 1    
    19   12   13 am   BACKBONE|DICT|INTERRES
    20   12   27 1    
    21   13   14 2    
    22   13   15 am   BACKBONE|DICT|INTERRES
    23   15   16 am   BACKBONE|DICT|INTERRES
    24   15   28 1    
    25   16   20 1    
    26   16   17 2    
    27   17   18 1    
    28   18   19 2    
    29   19   20 1    
    30   19   29 1    
@<TRIPOS>SUBSTRUCTURE
     1 UNK         1 GROUP             0       ****    0 ROOT    
