@<TRIPOS>MOLECULE
ZINC20568368_5362
61   65    1
SMALL
USER_CHARGES


@<TRIPOS>ATOM
      1 C1         -1.2962   47.1370   24.9735 C.3       1 UNK         0.0000 
      2 C2         -1.8099   48.5503   24.6345 C.3       1 UNK         0.0000 
      3 C3         -1.4421   48.9674   23.2068 C.3       1 UNK         0.0000 
      4 C4         -1.6163   50.4782   23.3236 C.3       1 UNK         0.0000 
      5 H5         -1.1450   50.9917   22.4839 H         1 UNK         0.0000 
      6 C6         -3.1270   50.8455   23.3813 C.3       1 UNK         0.0000 
      7 C7         -4.0489   49.9745   24.3135 C.3       1 UNK         0.0000 
      8 C8         -3.3577   48.6474   24.8015 C.3       1 UNK         0.0000 
      9 C9         -4.3884   50.8112   25.5710 C.3       1 UNK         0.0000 
     10 C10        -5.3558   49.6307   23.5573 C.3       1 UNK         0.0000 
     11 N11        -0.8604   50.7504   24.5421 N.3       1 UNK         0.0000 
     12 C12        -1.0959   49.6420   25.4723 C.3       1 UNK         0.0000 
     13 C13        -0.9068   52.1145   25.0735 C.3       1 UNK         0.0000 
     14 N14         0.2783   52.4967   25.8542 N.am      1 UNK         0.0000 
     15 C15         0.4282   52.3918   27.2241 C.ar      1 UNK         0.0000 
     16 C16        -0.4693   51.9164   28.1848 C.ar      1 UNK         0.0000 
     17 C17        -0.0752   51.8791   29.5221 C.ar      1 UNK         0.0000 
     18 C18         1.2114   52.2892   29.8829 C.ar      1 UNK         0.0000 
     19 C19         2.0853   52.7946   28.9178 C.ar      1 UNK         0.0000 
     20 C20         1.6813   52.8500   27.5815 C.ar      1 UNK         0.0000 
     21 C21         2.3472   53.2971   26.3768 C.2       1 UNK         0.0000 
     22 N22         3.5366   53.7865   26.2992 N.2       1 UNK         0.0000 
     23 N23         3.9956   54.0964   25.0653 N.am      1 UNK         0.0000 
     24 C24         5.2772   54.3941   24.7867 C.2       1 UNK         0.0000 
     25 O25         6.1482   54.5930   25.6410 O.2       1 UNK         0.0000 
     26 C26         5.5961   54.4967   23.3113 C.ar      1 UNK         0.0000 
     27 C27         6.7046   55.2463   22.8983 C.ar      1 UNK         0.0000 
     28 C28         6.9515   55.4194   21.5365 C.ar      1 UNK         0.0000 
     29 N29         6.1545   54.8967   20.5732 N.ar      1 UNK         0.0000 
     30 C30         5.0962   54.1467   20.9711 C.ar      1 UNK         0.0000 
     31 C31         4.7845   53.9207   22.3143 C.ar      1 UNK         0.0000 
     32 C32         1.3840   53.0276   25.2803 C.2       1 UNK         0.0000 
     33 O33         1.5616   53.2602   24.0795 O.2       1 UNK         0.0000 
     34 Br34        1.7982   52.0991   31.6815 Br        1 UNK         0.0000 
     35 H35        -1.7235   46.3852   24.3116 H         1 UNK         0.0000 
     36 H36        -0.2123   47.0765   24.8800 H         1 UNK         0.0000 
     37 H37        -1.5531   46.8652   25.9986 H         1 UNK         0.0000 
     38 H38        -2.0780   48.5207   22.4406 H         1 UNK         0.0000 
     39 H39        -0.4078   48.7120   22.9637 H         1 UNK         0.0000 
     40 H40        -3.3340   51.9150   23.4377 H         1 UNK         0.0000 
     41 H41        -3.4080   50.5975   22.3563 H         1 UNK         0.0000 
     42 H42        -3.6900   47.8640   24.1169 H         1 UNK         0.0000 
     43 H43        -3.7276   48.3034   25.7699 H         1 UNK         0.0000 
     44 H44        -5.1066   50.2926   26.2067 H         1 UNK         0.0000 
     45 H45        -3.5221   51.0177   26.1921 H         1 UNK         0.0000 
     46 H46        -4.8353   51.7707   25.3075 H         1 UNK         0.0000 
     47 H47        -6.0406   49.0591   24.1851 H         1 UNK         0.0000 
     48 H48        -5.8824   50.5325   23.2399 H         1 UNK         0.0000 
     49 H49        -5.1630   49.0350   22.6644 H         1 UNK         0.0000 
     50 H50        -0.1263   49.2763   25.8137 H         1 UNK         0.0000 
     51 H51        -1.6877   49.9099   26.3454 H         1 UNK         0.0000 
     52 H52        -1.8097   52.2833   25.6581 H         1 UNK         0.0000 
     53 H53        -0.9954   52.8008   24.2267 H         1 UNK         0.0000 
     54 H54        -1.4524   51.5582   27.9178 H         1 UNK         0.0000 
     55 H55        -0.7562   51.4960   30.2708 H         1 UNK         0.0000 
     56 H56         3.0756   53.1140   29.2081 H         1 UNK         0.0000 
     57 H57         3.3208   53.9500   24.3235 H         1 UNK         0.0000 
     58 H58         7.3562   55.7080   23.6235 H         1 UNK         0.0000 
     59 H59         7.8042   55.9898   21.1993 H         1 UNK         0.0000 
     60 H60         4.4810   53.7313   20.1850 H         1 UNK         0.0000 
     61 H61         3.9149   53.3247   22.5527 H         1 UNK         0.0000 
@<TRIPOS>BOND
     1    1    2 1    
     2    1   35 1    
     3    1   36 1    
     4    1   37 1    
     5    2    8 1    
     6    2   12 1    
     7    2    3 1    
     8    3    4 1    
     9    3   38 1    
    10    3   39 1    
    11    4    5 1    
    12    4    6 1    
    13    4   11 1    
    14    6    7 1    
    15    6   40 1    
    16    6   41 1    
    17    7    8 1    
    18    7    9 1    
    19    7   10 1    
    20    8   42 1    
    21    8   43 1    
    22    9   44 1    
    23    9   45 1    
    24    9   46 1    
    25   10   47 1    
    26   10   48 1    
    27   10   49 1    
    28   11   12 1    
    29   11   13 1    
    30   12   50 1    
    31   12   51 1    
    32   13   14 1    
    33   13   52 1    
    34   13   53 1    
    35   14   32 am   BACKBONE|DICT|INTERRES
    36   14   15 1    
    37   15   20 ar   
    38   15   16 ar   
    39   16   17 ar   
    40   16   54 1    
    41   17   18 ar   
    42   17   55 1    
    43   18   19 ar   
    44   18   34 1    
    45   19   20 ar   
    46   19   56 1    
    47   20   21 1    
    48   21   22 2    
    49   21   32 1    
    50   22   23 1    
    51   23   24 am   BACKBONE|DICT|INTERRES
    52   23   57 1    
    53   24   25 2    
    54   24   26 1    
    55   26   31 ar   
    56   26   27 ar   
    57   27   28 ar   
    58   27   58 1    
    59   28   29 ar   
    60   28   59 1    
    61   29   30 ar   
    62   30   31 ar   
    63   30   60 1    
    64   31   61 1    
    65   32   33 2    
@<TRIPOS>SUBSTRUCTURE
     1 UNK         1 GROUP             0       ****    0 ROOT    
