@<TRIPOS>MOLECULE
ZINC02291747_3510
52   56    1
SMALL
USER_CHARGES


@<TRIPOS>ATOM
      1 C1         -1.1865   50.4285   25.9031 C.3       1 UNK         0.0000 
      2 C2         -0.7404   51.8795   26.1977 C.3       1 UNK         0.0000 
      3 H3         -1.5642   52.5361   25.9138 H         1 UNK         0.0000 
      4 C4         -0.5019   52.1930   27.6934 C.ar      1 UNK         0.0000 
      5 C5         -1.1396   51.4471   28.6936 C.ar      1 UNK         0.0000 
      6 C6         -0.8955   51.6969   30.0413 C.ar      1 UNK         0.0000 
      7 C7         -0.0167   52.7098   30.4077 C.ar      1 UNK         0.0000 
      8 C8          0.6164   53.4782   29.4348 C.ar      1 UNK         0.0000 
      9 C9          0.3756   53.2182   28.0864 C.ar      1 UNK         0.0000 
     10 N10         0.3998   52.2590   25.3610 N.am      1 UNK         0.0000 
     11 C11         0.4187   52.5010   24.0389 C.2       1 UNK         0.0000 
     12 O12        -0.5603   52.3943   23.2995 O.2       1 UNK         0.0000 
     13 C13         1.7183   52.9288   23.5616 C.ar      1 UNK         0.0000 
     14 C14         2.8203   53.4651   24.3008 C.ar      1 UNK         0.0000 
     15 C15         3.8928   53.7170   23.4162 C.ar      1 UNK         0.0000 
     16 N16         5.0922   54.1254   23.8556 N.ar      1 UNK         0.0000 
     17 C17         5.2728   54.2845   25.1969 C.ar      1 UNK         0.0000 
     18 C18         6.5411   54.6082   25.7246 C.ar      1 UNK         0.0000 
     19 C19         6.7052   54.6944   27.1082 C.ar      1 UNK         0.0000 
     20 C20         5.6387   54.4965   27.9780 C.ar      1 UNK         0.0000 
     21 C21         4.3751   54.1925   27.4870 C.ar      1 UNK         0.0000 
     22 C22         4.1827   54.0736   26.0926 C.ar      1 UNK         0.0000 
     23 N23         2.9745   53.6966   25.6089 N.ar      1 UNK         0.0000 
     24 N24         3.4628   53.4499   22.1195 N.pl3     1 UNK         0.0000 
     25 C25         2.1568   52.9319   22.2290 C.ar      1 UNK         0.0000 
     26 N26         1.4520   52.4968   21.1339 N.pl3     1 UNK         0.0000 
     27 C27         4.2214   53.7044   20.9270 C.ar      1 UNK         0.0000 
     28 C28         4.1400   52.8569   19.8154 C.ar      1 UNK         0.0000 
     29 C29         4.8497   53.1498   18.6522 C.ar      1 UNK         0.0000 
     30 C30         5.7018   54.2470   18.6064 C.ar      1 UNK         0.0000 
     31 C31         5.8393   55.0695   19.7169 C.ar      1 UNK         0.0000 
     32 C32         5.1044   54.7979   20.8671 C.ar      1 UNK         0.0000 
     33 Br33        6.6979   54.6159   17.0276 Br        1 UNK         0.0000 
     34 H34        -2.1549   50.1993   26.3469 H         1 UNK         0.0000 
     35 H35        -1.2913   50.2457   24.8339 H         1 UNK         0.0000 
     36 H36        -0.4631   49.7075   26.2881 H         1 UNK         0.0000 
     37 H37        -1.8221   50.6443   28.4522 H         1 UNK         0.0000 
     38 H38        -1.3799   51.0984   30.8005 H         1 UNK         0.0000 
     39 H39         0.1643   52.8987   31.4567 H         1 UNK         0.0000 
     40 H40         1.2901   54.2713   29.7217 H         1 UNK         0.0000 
     41 H41         0.8776   53.8275   27.3513 H         1 UNK         0.0000 
     42 H42         1.2882   52.2801   25.8363 H         1 UNK         0.0000 
     43 H43         7.3753   54.7496   25.0515 H         1 UNK         0.0000 
     44 H44         7.6754   54.9087   27.5288 H         1 UNK         0.0000 
     45 H45         5.8019   54.5749   29.0417 H         1 UNK         0.0000 
     46 H46         3.5493   54.0190   28.1604 H         1 UNK         0.0000 
     47 H47         0.5141   52.1399   21.2582 H         1 UNK         0.0000 
     48 H48         1.7157   52.7753   20.1999 H         1 UNK         0.0000 
     49 H49         3.5419   51.9587   19.8234 H         1 UNK         0.0000 
     50 H50         4.7659   52.4970   17.7969 H         1 UNK         0.0000 
     51 H51         6.5043   55.9205   19.6827 H         1 UNK         0.0000 
     52 H52         5.2103   55.4849   21.6866 H         1 UNK         0.0000 
@<TRIPOS>BOND
     1    1    2 1    
     2    1   34 1    
     3    1   35 1    
     4    1   36 1    
     5    2    3 1    
     6    2    4 1    
     7    2   10 1    
     8    4    9 ar   
     9    4    5 ar   
    10    5    6 ar   
    11    5   37 1    
    12    6    7 ar   
    13    6   38 1    
    14    7    8 ar   
    15    7   39 1    
    16    8    9 ar   
    17    8   40 1    
    18    9   41 1    
    19   10   11 am   BACKBONE|DICT|INTERRES
    20   10   42 1    
    21   11   12 2    
    22   11   13 1    
    23   13   25 ar   
    24   13   14 ar   
    25   14   23 ar   
    26   14   15 ar   
    27   15   16 ar   
    28   15   24 ar   
    29   16   17 ar   
    30   17   22 ar   
    31   17   18 ar   
    32   18   19 ar   
    33   18   43 1    
    34   19   20 ar   
    35   19   44 1    
    36   20   21 ar   
    37   20   45 1    
    38   21   22 ar   
    39   21   46 1    
    40   22   23 ar   
    41   24   25 ar   
    42   24   27 1    
    43   25   26 1    
    44   26   47 1    
    45   26   48 1    
    46   27   32 ar   
    47   27   28 ar   
    48   28   29 ar   
    49   28   49 1    
    50   29   30 ar   
    51   29   50 1    
    52   30   31 ar   
    53   30   33 1    
    54   31   32 ar   
    55   31   51 1    
    56   32   52 1    
@<TRIPOS>SUBSTRUCTURE
     1 UNK         1 GROUP             0       ****    0 ROOT    
