@<TRIPOS>MOLECULE
ZINC12906964_2450
66   68    1
SMALL
USER_CHARGES


@<TRIPOS>ATOM
      1 C1          4.5464   54.0923   27.7522 C.3       1 UNK         0.0000 
      2 C2          4.3769   54.1015   26.2434 C.ar      1 UNK         0.0000 
      3 C3          3.1073   53.9919   25.6772 C.ar      1 UNK         0.0000 
      4 C4          2.9379   53.9991   24.2899 C.ar      1 UNK         0.0000 
      5 C5          4.0633   54.0955   23.4506 C.ar      1 UNK         0.0000 
      6 C6          5.3500   54.2467   24.0233 C.ar      1 UNK         0.0000 
      7 C7          5.4863   54.2454   25.4153 C.ar      1 UNK         0.0000 
      8 C8          6.6092   54.4768   23.1948 C.3       1 UNK         0.0000 
      9 N9          3.8546   54.1000   22.0570 N.am      1 UNK         0.0000 
     10 C10         4.4124   53.2573   21.1675 C.2       1 UNK         0.0000 
     11 O11         5.1041   52.2838   21.4852 O.2       1 UNK         0.0000 
     12 C12         4.0758   53.5253   19.6890 C.3       1 UNK         0.0000 
     13 N13         5.2314   53.2537   18.8309 N.am      1 UNK         0.0000 
     14 C14         6.2562   54.0985   18.6029 C.2       1 UNK         0.0000 
     15 O15         6.3270   55.2093   19.1367 O.2       1 UNK         0.0000 
     16 C16         7.3450   53.6119   17.6703 C.ar      1 UNK         0.0000 
     17 C17         7.1140   52.5782   16.7473 C.ar      1 UNK         0.0000 
     18 C18         8.1270   52.1389   15.9011 C.ar      1 UNK         0.0000 
     19 C19         9.3828   52.7414   15.9533 C.ar      1 UNK         0.0000 
     20 C20         9.6309   53.7678   16.8655 C.ar      1 UNK         0.0000 
     21 C21         8.6170   54.2013   17.7164 C.ar      1 UNK         0.0000 
     22 S22        10.6708   52.2050   14.8260 S.o2      1 UNK         0.0000 
     23 O23         9.9969   51.6655   13.6381 O.2       1 UNK         0.0000 
     24 O24        11.6190   53.3199   14.7084 O.2       1 UNK         0.0000 
     25 N25        11.4909   50.8842   15.6670 N.pl3     1 UNK         0.0000 
     26 C26        12.3110   51.1406   16.8694 C.3       1 UNK         0.0000 
     27 C27        13.7708   50.7165   16.5966 C.3       1 UNK         0.0000 
     28 H28        14.1430   51.3149   15.7622 H         1 UNK         0.0000 
     29 C29        13.7762   49.2289   16.1581 C.3       1 UNK         0.0000 
     30 C30        12.8833   48.9832   14.9112 C.3       1 UNK         0.0000 
     31 H31        13.2706   49.5954   14.0931 H         1 UNK         0.0000 
     32 C32        11.4414   49.4758   15.2032 C.3       1 UNK         0.0000 
     33 C33        12.9236   47.5079   14.4815 C.3       1 UNK         0.0000 
     34 C34        14.6615   50.9530   17.8251 C.3       1 UNK         0.0000 
     35 C35         1.5259   53.8712   23.7271 C.3       1 UNK         0.0000 
     36 H36         3.6751   54.5273   28.2454 H         1 UNK         0.0000 
     37 H37         5.4055   54.6937   28.0559 H         1 UNK         0.0000 
     38 H38         4.6844   53.0718   28.1150 H         1 UNK         0.0000 
     39 H39         2.2480   53.8944   26.3242 H         1 UNK         0.0000 
     40 H40         6.4660   54.3515   25.8575 H         1 UNK         0.0000 
     41 H41         6.3942   55.0390   22.2844 H         1 UNK         0.0000 
     42 H42         7.3392   55.0710   23.7450 H         1 UNK         0.0000 
     43 H43         7.0706   53.5275   22.9254 H         1 UNK         0.0000 
     44 H44         3.1904   54.7758   21.7071 H         1 UNK         0.0000 
     45 H45         3.2548   52.8739   19.3938 H         1 UNK         0.0000 
     46 H46         3.7358   54.5525   19.5408 H         1 UNK         0.0000 
     47 H47         5.3027   52.2995   18.4815 H         1 UNK         0.0000 
     48 H48         6.1499   52.0967   16.6719 H         1 UNK         0.0000 
     49 H49         7.9299   51.3402   15.2021 H         1 UNK         0.0000 
     50 H50        10.6019   54.2391   16.9127 H         1 UNK         0.0000 
     51 H51         8.8319   54.9977   18.4140 H         1 UNK         0.0000 
     52 H52        12.2477   52.1973   17.1337 H         1 UNK         0.0000 
     53 H53        11.8663   50.5688   17.6825 H         1 UNK         0.0000 
     54 H54        14.7961   48.8881   15.9733 H         1 UNK         0.0000 
     55 H55        13.4448   48.5950   16.9843 H         1 UNK         0.0000 
     56 H56        10.9545   48.8963   15.9868 H         1 UNK         0.0000 
     57 H57        10.8202   49.4068   14.3088 H         1 UNK         0.0000 
     58 H58        12.7038   46.8354   15.3063 H         1 UNK         0.0000 
     59 H59        12.2052   47.3054   13.6874 H         1 UNK         0.0000 
     60 H60        13.9076   47.2396   14.0971 H         1 UNK         0.0000 
     61 H61        14.3233   50.3623   18.6803 H         1 UNK         0.0000 
     62 H62        15.6955   50.6747   17.6182 H         1 UNK         0.0000 
     63 H63        14.6555   52.0026   18.1207 H         1 UNK         0.0000 
     64 H64         1.2599   54.7655   23.1629 H         1 UNK         0.0000 
     65 H65         1.4720   53.0251   23.0404 H         1 UNK         0.0000 
     66 H66         0.7756   53.7162   24.5045 H         1 UNK         0.0000 
@<TRIPOS>BOND
     1    1    2 1    
     2    1   36 1    
     3    1   37 1    
     4    1   38 1    
     5    2    7 ar   
     6    2    3 ar   
     7    3    4 ar   
     8    3   39 1    
     9    4    5 ar   
    10    4   35 1    
    11    5    6 ar   
    12    5    9 1    
    13    6    7 ar   
    14    6    8 1    
    15    7   40 1    
    16    8   41 1    
    17    8   42 1    
    18    8   43 1    
    19    9   10 am   BACKBONE|DICT|INTERRES
    20    9   44 1    
    21   10   11 2    
    22   10   12 1    
    23   12   13 1    
    24   12   45 1    
    25   12   46 1    
    26   13   14 am   BACKBONE|DICT|INTERRES
    27   13   47 1    
    28   14   15 2    
    29   14   16 1    
    30   16   21 ar   
    31   16   17 ar   
    32   17   18 ar   
    33   17   48 1    
    34   18   19 ar   
    35   18   49 1    
    36   19   20 ar   
    37   19   22 1    
    38   20   21 ar   
    39   20   50 1    
    40   21   51 1    
    41   22   23 2    
    42   22   24 2    
    43   22   25 1    
    44   25   32 1    
    45   25   26 1    
    46   26   27 1    
    47   26   52 1    
    48   26   53 1    
    49   27   28 1    
    50   27   29 1    
    51   27   34 1    
    52   29   30 1    
    53   29   54 1    
    54   29   55 1    
    55   30   31 1    
    56   30   32 1    
    57   30   33 1    
    58   32   56 1    
    59   32   57 1    
    60   33   58 1    
    61   33   59 1    
    62   33   60 1    
    63   34   61 1    
    64   34   62 1    
    65   34   63 1    
    66   35   64 1    
    67   35   65 1    
    68   35   66 1    
@<TRIPOS>SUBSTRUCTURE
     1 UNK         1 GROUP             0       ****    0 ROOT    
