ZINC20756573_76
                    3D
 Schrodinger Suite 2024-2.
 56 60  0  0  1  0            999 V2000
    2.1852   52.5385   30.1458 C   0  0  0  0  0  0
    2.3416   52.3131   28.7799 C   0  0  0  0  0  0
    1.2260   52.0381   27.9938 C   0  0  0  0  0  0
   -0.0445   51.9789   28.5758 C   0  0  0  0  0  0
   -0.1922   52.2104   29.9459 C   0  0  0  0  0  0
    0.9214   52.4967   30.7318 C   0  0  0  0  0  0
   -1.2706   51.7040   27.7142 C   0  0  0  0  0  0
   -1.1109   50.4971   26.8817 N   0  0  0  0  0  0
   -1.6447   50.4197   25.2165 S   0  0  0  0  0  0
   -1.5808   49.0198   24.7830 O   0  0  0  0  0  0
   -2.8863   51.1946   25.1037 O   0  0  0  0  0  0
   -0.3870   51.3151   24.3254 C   0  0  0  0  0  0
   -0.4155   52.7042   24.3586 C   0  0  0  0  0  0
    0.5570   53.4293   23.6881 C   0  0  0  0  0  0
    1.5323   52.7828   22.9389 C   0  0  0  0  0  0
    1.6003   51.3741   22.9133 C   0  0  0  0  0  0
    0.6243   50.6557   23.6215 C   0  0  0  0  0  0
    2.7061   50.6508   22.1429 C   0  0  1  0  0  0
    3.2866   50.0958   22.8774 H   0  0  0  0  0  0
    2.1851   49.6968   21.0843 C   0  0  0  0  0  0
    2.3485   50.1979   19.8495 C   0  0  0  0  0  0
    3.0013   51.5590   19.9035 C   0  0  0  0  0  0
    3.5940   51.6129   21.3207 C   0  0  1  0  0  0
    4.5908   51.1710   21.2547 H   0  0  0  0  0  0
    3.7833   53.0269   21.9661 C   0  0  2  0  0  0
    4.2868   52.8966   22.9239 H   0  0  0  0  0  0
    2.4887   53.5943   22.3092 N   0  0  0  0  0  0
    4.6871   53.9924   21.1822 C   0  0  0  0  0  0
    5.8611   54.4821   21.7670 C   0  0  0  0  0  0
    6.7269   55.2967   21.0398 C   0  0  0  0  0  0
    6.4277   55.6419   19.7150 C   0  0  0  0  0  0
    5.2178   55.2132   19.1578 C   0  0  0  0  0  0
    4.3532   54.4060   19.8881 C   0  0  0  0  0  0
    7.3842   56.4273   18.9023 N   0  3  0  0  0  0
    6.9781   56.9673   17.8778 O   0  0  0  0  0  0
    8.5480   56.4968   19.2837 O   0  5  0  0  0  0
    3.0528   52.7430   30.7549 H   0  0  0  0  0  0
    3.3236   52.3501   28.3306 H   0  0  0  0  0  0
    1.3477   51.8686   26.9334 H   0  0  0  0  0  0
   -1.1644   52.1459   30.4125 H   0  0  0  0  0  0
    0.8002   52.6589   31.7938 H   0  0  0  0  0  0
   -2.1404   51.5258   28.3478 H   0  0  0  0  0  0
   -1.5432   52.5604   27.0988 H   0  0  0  0  0  0
   -0.8958   49.6071   27.3618 H   0  0  0  0  0  0
   -1.1883   53.2252   24.9039 H   0  0  0  0  0  0
    0.5345   54.5034   23.7351 H   0  0  0  0  0  0
    0.6554   49.5748   23.6190 H   0  0  0  0  0  0
    1.7320   48.7495   21.3349 H   0  0  0  0  0  0
    2.0633   49.7321   18.9165 H   0  0  0  0  0  0
    2.2516   52.3324   19.7355 H   0  0  0  0  0  0
    3.7793   51.6785   19.1484 H   0  0  0  0  0  0
    2.4598   54.5999   22.3871 H   0  0  0  0  0  0
    6.1286   54.2006   22.7754 H   0  0  0  0  0  0
    7.6492   55.6249   21.5005 H   0  0  0  0  0  0
    4.9491   55.4842   18.1461 H   0  0  0  0  0  0
    3.4289   54.1011   19.4264 H   0  0  0  0  0  0
  1  6  2  0  0  0
  1  2  1  0  0  0
  1 37  1  0  0  0
  2  3  2  0  0  0
  2 38  1  0  0  0
  3  4  1  0  0  0
  3 39  1  0  0  0
  4  5  2  0  0  0
  4  7  1  0  0  0
  5  6  1  0  0  0
  5 40  1  0  0  0
  6 41  1  0  0  0
  7  8  1  0  0  0
  7 42  1  0  0  0
  7 43  1  0  0  0
  8  9  1  0  0  0
  8 44  1  0  0  0
  9 10  2  0  0  0
  9 11  2  0  0  0
  9 12  1  0  0  0
 12 17  2  0  0  0
 12 13  1  0  0  0
 13 14  2  0  0  0
 13 45  1  0  0  0
 14 15  1  0  0  0
 14 46  1  0  0  0
 15 27  1  0  0  0
 15 16  2  0  0  0
 16 17  1  0  0  0
 16 18  1  0  0  0
 17 47  1  0  0  0
 18 19  1  0  0  0
 18 23  1  0  0  0
 18 20  1  0  0  0
 20 21  2  0  0  0
 20 48  1  0  0  0
 21 22  1  0  0  0
 21 49  1  0  0  0
 22 23  1  0  0  0
 22 50  1  0  0  0
 22 51  1  0  0  0
 23 24  1  0  0  0
 23 25  1  0  0  0
 25 26  1  0  0  0
 25 27  1  0  0  0
 25 28  1  0  0  0
 27 52  1  0  0  0
 28 33  2  0  0  0
 28 29  1  0  0  0
 29 30  2  0  0  0
 29 53  1  0  0  0
 30 31  1  0  0  0
 30 54  1  0  0  0
 31 32  2  0  0  0
 31 34  1  0  0  0
 32 33  1  0  0  0
 32 55  1  0  0  0
 33 56  1  0  0  0
 34 35  2  0  0  0
 34 36  1  0  0  0
M  CHG  2  34   1  36  -1
M  END
> <i_i_glide_confnum>
24

> <i_i_glide_lignum>
77

> <i_i_glide_posenum>
274

> <i_i_glide_rotatable_bonds>
6

> <i_m_Source_File_Index>
5209

> <b_m_subgroup_collapsed>
0

> <r_i_docking_score>
-4.29888

> <r_i_glide_ecoul>
-1.92665

> <r_i_glide_eff_state_penalty>
0

> <r_i_glide_einternal>
9.11059

> <r_i_glide_emodel>
-47.9675

> <r_i_glide_energy>
-40.4378

> <r_i_glide_erotb>
0.378135

> <r_i_glide_esite>
-0.190788

> <r_i_glide_evdw>
-38.5111

> <r_i_glide_gscore>
-4.29888

> <r_i_glide_hbond>
-0.15162

> <r_i_glide_ligand_efficiency>
-0.130269

> <r_i_glide_ligand_efficiency_ln>
-0.956048

> <r_i_glide_ligand_efficiency_sa>
-0.417842

> <r_i_glide_lipo>
-1.91274

> <r_i_glide_metal>
0

> <r_i_glide_rewards>
-0.207315

> <s_i_glide_gridfile>
wee1_glide-grid

> <s_m_Source_File>
wee1_decoys_glide_SP.sdf

> <s_m_Source_Path>
/Users/zhangxujun/Desktop

> <s_m_entry_id>
5484

> <s_m_entry_name>
wee1_decoys_glide_SP.5209

> <s_m_subgroup_title>
wee1_decoys_glide_SP

> <s_m_subgroupid>
wee1_decoys_glide_SP


$$$$
