@<TRIPOS>MOLECULE
ZINC20628795_4328
42   44    1
SMALL
USER_CHARGES


@<TRIPOS>ATOM
      1 C1         -0.0172   51.8757   25.6352 C.ar      1 UNK         0.0000 
      2 C2          1.1044   52.2174   26.3802 C.ar      1 UNK         0.0000 
      3 C3          1.0676   52.1692   27.7727 C.ar      1 UNK         0.0000 
      4 C4         -0.0956   51.7541   28.4210 C.ar      1 UNK         0.0000 
      5 C5         -1.2204   51.4074   27.6743 C.ar      1 UNK         0.0000 
      6 C6         -1.1899   51.4772   26.2801 C.ar      1 UNK         0.0000 
      7 N7         -2.3401   51.1090   25.5698 N.pl3     1 UNK         0.0000 
      8 S8         -2.7214   51.6430   23.9193 S.o2      1 UNK         0.0000 
      9 O9         -4.1315   51.3078   23.6995 O.2       1 UNK         0.0000 
     10 O10        -2.2401   53.0205   23.7582 O.2       1 UNK         0.0000 
     11 C11        -1.7726   50.5818   22.8337 C.ar      1 UNK         0.0000 
     12 C12        -0.7229   51.0975   22.0649 C.ar      1 UNK         0.0000 
     13 C13        -0.0007   50.2570   21.2167 C.ar      1 UNK         0.0000 
     14 C14        -0.3258   48.9026   21.1315 C.ar      1 UNK         0.0000 
     15 C15        -1.3707   48.3841   21.9007 C.ar      1 UNK         0.0000 
     16 C16        -2.0928   49.2231   22.7503 C.ar      1 UNK         0.0000 
     17 F17        -1.6902   47.0712   21.8229 F         1 UNK         0.0000 
     18 F18         0.3734   48.0968   20.3004 F         1 UNK         0.0000 
     19 N19         2.1894   52.5219   28.5304 N.pl3     1 UNK         0.0000 
     20 S20         2.8428   54.1675   28.5267 S.o2      1 UNK         0.0000 
     21 O21         3.4579   54.3551   29.8450 O.2       1 UNK         0.0000 
     22 O22         1.7648   55.0563   28.0819 O.2       1 UNK         0.0000 
     23 C23         4.1377   54.2007   27.2717 C.ar      1 UNK         0.0000 
     24 C24         3.7960   54.3902   25.9272 C.ar      1 UNK         0.0000 
     25 C25         4.7787   54.4000   24.9370 C.ar      1 UNK         0.0000 
     26 C26         6.1217   54.2797   25.2862 C.ar      1 UNK         0.0000 
     27 C27         6.4720   54.1044   26.6238 C.ar      1 UNK         0.0000 
     28 C28         5.4887   54.0473   27.6089 C.ar      1 UNK         0.0000 
     29 F29         5.8746   53.8385   28.8809 F         1 UNK         0.0000 
     30 F30         4.4254   54.4967   23.6366 F         1 UNK         0.0000 
     31 H31         0.0446   51.9185   24.5605 H         1 UNK         0.0000 
     32 H32         2.0040   52.4968   25.8621 H         1 UNK         0.0000 
     33 H33        -0.1366   51.6979   29.4996 H         1 UNK         0.0000 
     34 H34        -2.1105   51.0718   28.1875 H         1 UNK         0.0000 
     35 H35        -2.9538   50.4263   25.9889 H         1 UNK         0.0000 
     36 H36        -0.4630   52.1448   22.1195 H         1 UNK         0.0000 
     37 H37         0.8100   50.6531   20.6217 H         1 UNK         0.0000 
     38 H38        -2.9019   48.8156   23.3403 H         1 UNK         0.0000 
     39 H39         2.4729   51.9213   29.2868 H         1 UNK         0.0000 
     40 H40         2.7644   54.4965   25.6323 H         1 UNK         0.0000 
     41 H41         6.8826   54.2953   24.5193 H         1 UNK         0.0000 
     42 H42         7.5042   53.9884   26.9095 H         1 UNK         0.0000 
@<TRIPOS>BOND
     1    1    6 ar   
     2    1    2 ar   
     3    1   31 1    
     4    2    3 ar   
     5    2   32 1    
     6    3    4 ar   
     7    3   19 1    
     8    4    5 ar   
     9    4   33 1    
    10    5    6 ar   
    11    5   34 1    
    12    6    7 1    
    13    7    8 1    
    14    7   35 1    
    15    8    9 2    
    16    8   10 2    
    17    8   11 1    
    18   11   16 ar   
    19   11   12 ar   
    20   12   13 ar   
    21   12   36 1    
    22   13   14 ar   
    23   13   37 1    
    24   14   15 ar   
    25   14   18 1    
    26   15   16 ar   
    27   15   17 1    
    28   16   38 1    
    29   19   20 1    
    30   19   39 1    
    31   20   21 2    
    32   20   22 2    
    33   20   23 1    
    34   23   28 ar   
    35   23   24 ar   
    36   24   25 ar   
    37   24   40 1    
    38   25   26 ar   
    39   25   30 1    
    40   26   27 ar   
    41   26   41 1    
    42   27   28 ar   
    43   27   42 1    
    44   28   29 1    
@<TRIPOS>SUBSTRUCTURE
     1 UNK         1 GROUP             0       ****    0 ROOT    
