@<TRIPOS>MOLECULE
ZINC37064630_1783
37   38    1
SMALL
USER_CHARGES


@<TRIPOS>ATOM
      1 C1          5.7228   54.5011   28.0131 C.3       1 UNK         0.0000 
      2 C2          5.3637   54.4085   26.5414 C.ar      1 UNK         0.0000 
      3 C3          4.0356   54.2462   26.1453 C.ar      1 UNK         0.0000 
      4 C4          3.7167   54.0983   24.7954 C.ar      1 UNK         0.0000 
      5 C5          4.7269   54.0966   23.8198 C.ar      1 UNK         0.0000 
      6 C6          6.0590   54.3105   24.2211 C.ar      1 UNK         0.0000 
      7 C7          6.3687   54.4549   25.5741 C.ar      1 UNK         0.0000 
      8 N8          7.1044   54.3670   23.2958 N.pl3     1 UNK         0.0000 
      9 N9          4.4630   53.8954   22.4467 N.am      1 UNK         0.0000 
     10 C10         3.4539   53.2154   21.8598 C.2       1 UNK         0.0000 
     11 O11         2.5440   52.6596   22.4791 O.2       1 UNK         0.0000 
     12 C12         3.5105   53.1375   20.3467 C.ar      1 UNK         0.0000 
     13 C13         4.3047   54.0214   19.5931 C.ar      1 UNK         0.0000 
     14 C14         4.2886   53.9769   18.2030 C.ar      1 UNK         0.0000 
     15 C15         3.4740   53.0561   17.5462 C.ar      1 UNK         0.0000 
     16 C16         2.7061   52.1492   18.2770 C.ar      1 UNK         0.0000 
     17 C17         2.7275   52.1901   19.6695 C.ar      1 UNK         0.0000 
     18 S18         3.4206   53.0684   15.7582 S.o2      1 UNK         0.0000 
     19 O19         2.4892   52.0246   15.3180 O.2       1 UNK         0.0000 
     20 O20         4.8063   53.0998   15.2790 O.2       1 UNK         0.0000 
     21 C21         2.6351   54.7320   15.3693 C.3       1 UNK         0.0000 
     22 H22         6.6287   53.9314   28.2206 H         1 UNK         0.0000 
     23 H23         5.9048   55.5357   28.2972 H         1 UNK         0.0000 
     24 H24         4.9371   54.0880   28.6448 H         1 UNK         0.0000 
     25 H25         3.2452   54.2185   26.8806 H         1 UNK         0.0000 
     26 H26         2.6775   53.9717   24.5279 H         1 UNK         0.0000 
     27 H27         7.3958   54.5761   25.8804 H         1 UNK         0.0000 
     28 H28         8.0363   54.5036   23.6810 H         1 UNK         0.0000 
     29 H29         6.9192   54.8983   22.4598 H         1 UNK         0.0000 
     30 H30         5.1960   54.2013   21.8301 H         1 UNK         0.0000 
     31 H31         4.9194   54.7751   20.0612 H         1 UNK         0.0000 
     32 H32         4.8951   54.6686   17.6361 H         1 UNK         0.0000 
     33 H33         2.0957   51.4142   17.7703 H         1 UNK         0.0000 
     34 H34         2.1163   51.4864   20.2173 H         1 UNK         0.0000 
     35 H35         2.5452   54.8216   14.2888 H         1 UNK         0.0000 
     36 H36         3.2736   55.5227   15.7596 H         1 UNK         0.0000 
     37 H37         1.6507   54.7704   15.8351 H         1 UNK         0.0000 
@<TRIPOS>BOND
     1    1    2 1    
     2    1   22 1    
     3    1   23 1    
     4    1   24 1    
     5    2    7 ar   
     6    2    3 ar   
     7    3    4 ar   
     8    3   25 1    
     9    4    5 ar   
    10    4   26 1    
    11    5    6 ar   
    12    5    9 1    
    13    6    7 ar   
    14    6    8 1    
    15    7   27 1    
    16    8   28 1    
    17    8   29 1    
    18    9   10 am   BACKBONE|DICT|INTERRES
    19    9   30 1    
    20   10   11 2    
    21   10   12 1    
    22   12   17 ar   
    23   12   13 ar   
    24   13   14 ar   
    25   13   31 1    
    26   14   15 ar   
    27   14   32 1    
    28   15   16 ar   
    29   15   18 1    
    30   16   17 ar   
    31   16   33 1    
    32   17   34 1    
    33   18   19 2    
    34   18   20 2    
    35   18   21 1    
    36   21   35 1    
    37   21   36 1    
    38   21   37 1    
@<TRIPOS>SUBSTRUCTURE
     1 UNK         1 GROUP             0       ****    0 ROOT    
