@<TRIPOS>MOLECULE
ZINC38547701_5103
62   65    1
SMALL
USER_CHARGES


@<TRIPOS>ATOM
      1 C1          2.4506   52.0958   18.8728 C.3       1 UNK         0.0000 
      2 C2          2.2450   51.6763   20.3162 C.ar      1 UNK         0.0000 
      3 C3          2.3528   50.3456   20.7310 C.ar      1 UNK         0.0000 
      4 C4          2.1979   50.0400   22.0866 C.ar      1 UNK         0.0000 
      5 C5          1.9435   51.0687   22.9972 C.ar      1 UNK         0.0000 
      6 C6          1.8522   52.4001   22.5589 C.ar      1 UNK         0.0000 
      7 N7          1.9900   52.6339   21.2350 N.pl3     1 UNK         0.0000 
      8 N8          1.6389   53.5371   23.4070 N.pl3     1 UNK         0.0000 
      9 C9          1.3336   53.5493   24.8629 C.3       1 UNK         0.0000 
     10 H10         0.7104   54.4439   24.8814 H         1 UNK         0.0000 
     11 C11         0.3480   52.4189   25.2586 C.ar      1 UNK         0.0000 
     12 C12         0.7041   51.4883   26.2404 C.ar      1 UNK         0.0000 
     13 C13        -0.1035   50.3985   26.5126 C.ar      1 UNK         0.0000 
     14 C14        -1.2792   50.2014   25.8065 C.ar      1 UNK         0.0000 
     15 C15        -1.6873   51.1202   24.8320 C.ar      1 UNK         0.0000 
     16 C16        -0.8893   52.2616   24.5928 C.ar      1 UNK         0.0000 
     17 O17        -1.2660   53.2317   23.6842 O.3       1 UNK         0.0000 
     18 C18        -2.6165   53.6964   23.7386 C.3       1 UNK         0.0000 
     19 O19        -2.8380   50.9485   24.0778 O.3       1 UNK         0.0000 
     20 C20        -3.6788   49.8263   24.3175 C.3       1 UNK         0.0000 
     21 C21         2.5352   53.8313   25.8335 C.2       1 UNK         0.0000 
     22 C22         2.3870   54.0900   27.2424 C.2       1 UNK         0.0000 
     23 C23         3.6009   54.1686   27.9355 C.2       1 UNK         0.0000 
     24 S24         4.9356   54.0962   26.8579 S.3       1 UNK         0.0000 
     25 C25         3.8923   54.0070   25.4649 C.2       1 UNK         0.0000 
     26 N26         4.4080   54.0968   24.1685 N.am      1 UNK         0.0000 
     27 C27         5.6542   54.4636   23.7768 C.2       1 UNK         0.0000 
     28 O28         6.6016   54.7376   24.5159 O.2       1 UNK         0.0000 
     29 C29         5.7858   54.5812   22.3497 C.2       1 UNK         0.0000 
     30 C30         5.1691   53.9280   21.2858 C.2       1 UNK         0.0000 
     31 C31         5.6784   54.4911   20.1123 C.2       1 UNK         0.0000 
     32 C32         6.6421   55.4037   20.5065 C.2       1 UNK         0.0000 
     33 O33         6.7244   55.4390   21.8601 O.3       1 UNK         0.0000 
     34 C34         3.8618   54.3315   29.4195 C.3       1 UNK         0.0000 
     35 C35         1.0697   54.1978   27.9989 C.3       1 UNK         0.0000 
     36 H36         2.5456   51.2249   18.2165 H         1 UNK         0.0000 
     37 H37         1.6140   52.7004   18.5178 H         1 UNK         0.0000 
     38 H38         3.3674   52.6779   18.7786 H         1 UNK         0.0000 
     39 H39         2.5737   49.5607   20.0167 H         1 UNK         0.0000 
     40 H40         2.2923   49.0193   22.4303 H         1 UNK         0.0000 
     41 H41         1.8708   50.8085   24.0408 H         1 UNK         0.0000 
     42 H42         1.6323   54.4448   22.9627 H         1 UNK         0.0000 
     43 H43         1.6129   51.5891   26.8103 H         1 UNK         0.0000 
     44 H44         0.1797   49.6956   27.2792 H         1 UNK         0.0000 
     45 H45        -1.8540   49.3205   26.0478 H         1 UNK         0.0000 
     46 H46        -2.6422   54.7798   23.6814 H         1 UNK         0.0000 
     47 H47        -3.1756   53.2962   22.8931 H         1 UNK         0.0000 
     48 H48        -3.1391   53.4302   24.6595 H         1 UNK         0.0000 
     49 H49        -4.5404   49.8757   23.6524 H         1 UNK         0.0000 
     50 H50        -3.1614   48.8882   24.1153 H         1 UNK         0.0000 
     51 H51        -4.0560   49.8142   25.3409 H         1 UNK         0.0000 
     52 H52         3.7404   53.9370   23.4334 H         1 UNK         0.0000 
     53 H53         4.4446   53.1360   21.3508 H         1 UNK         0.0000 
     54 H54         5.4083   54.2280   19.0994 H         1 UNK         0.0000 
     55 H55         7.3257   56.0404   19.9659 H         1 UNK         0.0000 
     56 H56         3.0185   54.7928   29.9368 H         1 UNK         0.0000 
     57 H57         4.0556   53.3688   29.8964 H         1 UNK         0.0000 
     58 H58         4.7312   54.9653   29.6123 H         1 UNK         0.0000 
     59 H59         0.2355   53.6650   27.5586 H         1 UNK         0.0000 
     60 H60         1.1444   53.7831   29.0061 H         1 UNK         0.0000 
     61 H61         0.7667   55.2392   28.1060 H         1 UNK         0.0000 
     62 H62         1.8983   53.5861   20.9000 H         1 UNK         0.0000 
@<TRIPOS>BOND
     1    1    2 1    
     2    1   36 1    
     3    1   37 1    
     4    1   38 1    
     5    2    7 ar   
     6    2    3 ar   
     7    3    4 ar   
     8    3   39 1    
     9    4    5 ar   
    10    4   40 1    
    11    5    6 ar   
    12    5   41 1    
    13    6    7 ar   
    14    6    8 1    
    15    7   62 1    
    16    8    9 1    
    17    8   42 1    
    18    9   10 1    
    19    9   11 1    
    20    9   21 1    
    21   11   16 ar   
    22   11   12 ar   
    23   12   13 ar   
    24   12   43 1    
    25   13   14 ar   
    26   13   44 1    
    27   14   15 ar   
    28   14   45 1    
    29   15   16 ar   
    30   15   19 1    
    31   16   17 1    
    32   17   18 1    
    33   18   46 1    
    34   18   47 1    
    35   18   48 1    
    36   19   20 1    
    37   20   49 1    
    38   20   50 1    
    39   20   51 1    
    40   21   25 2    
    41   21   22 1    
    42   22   23 2    
    43   22   35 1    
    44   23   24 1    
    45   23   34 1    
    46   24   25 1    
    47   25   26 am   BACKBONE|DICT|INTERRES
    48   26   27 am   BACKBONE|DICT|INTERRES
    49   26   52 1    
    50   27   28 2    
    51   27   29 1    
    52   29   33 1    
    53   29   30 2    
    54   30   31 1    
    55   30   53 1    
    56   31   32 2    
    57   31   54 1    
    58   32   33 1    
    59   32   55 1    
    60   34   56 1    
    61   34   57 1    
    62   34   58 1    
    63   35   59 1    
    64   35   60 1    
    65   35   61 1    
@<TRIPOS>SUBSTRUCTURE
     1 UNK         1 GROUP             0       ****    0 ROOT    
