@<TRIPOS>MOLECULE
ZINC12700954_2544
43   46    1
SMALL
USER_CHARGES


@<TRIPOS>ATOM
      1 C1         -0.0599   52.0971   28.9925 C.ar      1 UNK         0.0000 
      2 C2          1.0126   52.5626   29.7565 C.ar      1 UNK         0.0000 
      3 C3          2.1229   53.0739   29.0701 C.ar      1 UNK         0.0000 
      4 C4          2.1558   53.1224   27.6510 C.ar      1 UNK         0.0000 
      5 C5          1.0594   52.6594   26.9084 C.ar      1 UNK         0.0000 
      6 C6         -0.0413   52.1519   27.5971 C.ar      1 UNK         0.0000 
      7 Cl7        -1.4078   51.5905   26.7098 Cl        1 UNK         0.0000 
      8 N8          3.2972   53.6233   27.1135 N.2       1 UNK         0.0000 
      9 C9          4.1698   53.9348   28.0315 C.2       1 UNK         0.0000 
     10 S10         3.6368   53.7163   29.6813 S.3       1 UNK         0.0000 
     11 S11         5.8133   54.4963   27.7143 S.3       1 UNK         0.0000 
     12 C12         6.1546   53.6964   26.1161 C.3       1 UNK         0.0000 
     13 C13         6.2823   54.6071   24.8890 C.2       1 UNK         0.0000 
     14 O14         6.8456   55.6961   24.9899 O.2       1 UNK         0.0000 
     15 N15         5.7643   54.0956   23.7540 N.am      1 UNK         0.0000 
     16 C16         5.8938   54.5354   22.4340 C.2       1 UNK         0.0000 
     17 C17         5.1595   54.0538   21.3271 C.2       1 UNK         0.0000 
     18 C18         5.5044   54.7430   20.1261 C.2       1 UNK         0.0000 
     19 C19         6.5529   55.6582   20.3181 C.2       1 UNK         0.0000 
     20 S20         7.1024   55.6941   21.9514 S.3       1 UNK         0.0000 
     21 C21         7.1174   56.5997   19.2608 C.3       1 UNK         0.0000 
     22 C22         6.6311   56.1600   17.8668 C.3       1 UNK         0.0000 
     23 C23         5.1309   55.8279   17.8646 C.3       1 UNK         0.0000 
     24 C24         4.8089   54.6146   18.7627 C.3       1 UNK         0.0000 
     25 C25         4.1064   53.0561   21.4504 C.2       1 UNK         0.0000 
     26 O26         3.4488   52.9194   22.4797 O.2       1 UNK         0.0000 
     27 N27         3.9222   52.2456   20.4068 N.am      1 UNK         0.0000 
     28 H28        -0.9245   51.6788   29.4914 H         1 UNK         0.0000 
     29 H29         0.9795   52.5153   30.8344 H         1 UNK         0.0000 
     30 H30         1.0669   52.6885   25.8288 H         1 UNK         0.0000 
     31 H31         5.4367   52.8995   25.9513 H         1 UNK         0.0000 
     32 H32         7.1131   53.1970   26.2280 H         1 UNK         0.0000 
     33 H33         5.1306   53.3163   23.8619 H         1 UNK         0.0000 
     34 H34         8.2079   56.6211   19.2828 H         1 UNK         0.0000 
     35 H35         6.7710   57.6170   19.4489 H         1 UNK         0.0000 
     36 H36         7.1966   55.2856   17.5382 H         1 UNK         0.0000 
     37 H37         6.8453   56.9447   17.1390 H         1 UNK         0.0000 
     38 H38         4.7963   55.6301   16.8445 H         1 UNK         0.0000 
     39 H39         4.5626   56.6981   18.2021 H         1 UNK         0.0000 
     40 H40         3.7267   54.5325   18.8771 H         1 UNK         0.0000 
     41 H41         5.1329   53.7004   18.2607 H         1 UNK         0.0000 
     42 H42         4.5131   52.2858   19.5867 H         1 UNK         0.0000 
     43 H43         3.2043   51.5384   20.4529 H         1 UNK         0.0000 
@<TRIPOS>BOND
     1    1    6 ar   
     2    1    2 ar   
     3    1   28 1    
     4    2    3 ar   
     5    2   29 1    
     6    3   10 1    
     7    3    4 ar   
     8    4    5 ar   
     9    4    8 1    
    10    5    6 ar   
    11    5   30 1    
    12    6    7 1    
    13    8    9 2    
    14    9   10 1    
    15    9   11 1    
    16   11   12 1    
    17   12   13 1    
    18   12   31 1    
    19   12   32 1    
    20   13   14 2    
    21   13   15 am   BACKBONE|DICT|INTERRES
    22   15   16 am   BACKBONE|DICT|INTERRES
    23   15   33 1    
    24   16   20 1    
    25   16   17 2    
    26   17   18 1    
    27   17   25 1    
    28   18   24 1    
    29   18   19 2    
    30   19   20 1    
    31   19   21 1    
    32   21   22 1    
    33   21   34 1    
    34   21   35 1    
    35   22   23 1    
    36   22   36 1    
    37   22   37 1    
    38   23   24 1    
    39   23   38 1    
    40   23   39 1    
    41   24   40 1    
    42   24   41 1    
    43   25   26 2    
    44   25   27 am   BACKBONE|DICT|INTERRES
    45   27   42 1    
    46   27   43 1    
@<TRIPOS>SUBSTRUCTURE
     1 UNK         1 GROUP             0       ****    0 ROOT    
