@<TRIPOS>MOLECULE
ZINC36602835_4951
80   84    1
SMALL
USER_CHARGES


@<TRIPOS>ATOM
      1 C1          6.3249   52.9237   27.2739 C.3       1 UNK         0.0000 
      2 C2          5.7603   54.2774   27.6611 C.2       1 UNK         0.0000 
      3 O3          6.3403   55.2919   27.2817 O.2       1 UNK         0.0000 
      4 C4          4.4040   54.3651   28.4067 C.3       1 UNK         0.0000 
      5 H5          4.3942   55.3747   28.8087 H         1 UNK         0.0000 
      6 C6          4.2730   53.3691   29.6003 C.3       1 UNK         0.0000 
      7 C7          2.9809   52.5597   29.3776 C.3       1 UNK         0.0000 
      8 C8          2.7363   52.6882   27.8754 C.3       1 UNK         0.0000 
      9 H9          3.5219   52.0968   27.4189 H         1 UNK         0.0000 
     10 C10         3.1355   54.1387   27.5123 C.3       1 UNK         0.0000 
     11 C11         3.2452   54.2826   25.9425 C.3       1 UNK         0.0000 
     12 C12         2.4815   53.2204   25.1104 C.3       1 UNK         0.0000 
     13 C13         1.1810   52.7589   25.7997 C.3       1 UNK         0.0000 
     14 H14         0.7044   53.6967   25.9867 H         1 UNK         0.0000 
     15 C15         1.4239   52.1679   27.2219 C.3       1 UNK         0.0000 
     16 H16         1.5536   51.0973   27.0686 H         1 UNK         0.0000 
     17 C17         0.1161   52.1903   28.0570 C.3       1 UNK         0.0000 
     18 C18        -1.1695   52.0907   27.1863 C.3       1 UNK         0.0000 
     19 C19        -0.8763   51.2924   25.9118 C.2       1 UNK         0.0000 
     20 C20        -1.4203   50.0819   25.6821 C.2       1 UNK         0.0000 
     21 C21        -1.1419   49.2166   24.5564 C.2       1 UNK         0.0000 
     22 N22        -1.6682   48.0809   24.3248 N.2       1 UNK         0.0000 
     23 O23        -2.5957   47.7292   25.3189 O.3       1 UNK         0.0000 
     24 C24        -2.7686   46.3273   25.3041 C.3       1 UNK         0.0000 
     25 C25        -3.8724   45.9340   26.2855 C.2       1 UNK         0.0000 
     26 O26        -4.4957   44.8944   26.0645 O.2       1 UNK         0.0000 
     27 N27        -4.0959   46.7189   27.3552 N.am      1 UNK         0.0000 
     28 C28        -5.1142   46.4422   28.3644 C.3       1 UNK         0.0000 
     29 C29        -4.8242   47.0814   29.7380 C.3       1 UNK         0.0000 
     30 C30        -5.2920   48.5268   29.8657 C.ar      1 UNK         0.0000 
     31 C31        -4.4952   49.5715   29.3895 C.ar      1 UNK         0.0000 
     32 C32        -4.9008   50.8972   29.5364 C.ar      1 UNK         0.0000 
     33 C33        -6.1127   51.1901   30.1636 C.ar      1 UNK         0.0000 
     34 C34        -6.9266   50.1494   30.6303 C.ar      1 UNK         0.0000 
     35 C35        -6.5142   48.8235   30.4796 C.ar      1 UNK         0.0000 
     36 O36        -8.1292   50.4255   31.2356 O.3       1 UNK         0.0000 
     37 O37        -6.5008   52.4966   30.3205 O.3       1 UNK         0.0000 
     38 C38        -0.1157   49.7333   23.5406 C.3       1 UNK         0.0000 
     39 C39         0.8448   50.7745   24.1608 C.3       1 UNK         0.0000 
     40 C40         0.1574   51.9281   24.9483 C.3       1 UNK         0.0000 
     41 C41        -0.5936   52.8624   23.9629 C.3       1 UNK         0.0000 
     42 C42         2.0741   55.1531   28.0327 C.3       1 UNK         0.0000 
     43 H43         6.3920   52.2328   28.1048 H         1 UNK         0.0000 
     44 H44         7.3215   53.0405   26.8490 H         1 UNK         0.0000 
     45 H45         5.6832   52.4967   26.5046 H         1 UNK         0.0000 
     46 H46         5.1043   52.6713   29.6801 H         1 UNK         0.0000 
     47 H47         4.2350   53.9062   30.5480 H         1 UNK         0.0000 
     48 H48         3.0324   51.5194   29.6986 H         1 UNK         0.0000 
     49 H49         2.1564   53.0061   29.9350 H         1 UNK         0.0000 
     50 H50         3.1086   55.2971   25.5876 H         1 UNK         0.0000 
     51 H51         4.2587   54.0567   25.6240 H         1 UNK         0.0000 
     52 H52         3.1037   52.3743   24.8491 H         1 UNK         0.0000 
     53 H53         2.2373   53.6785   24.1511 H         1 UNK         0.0000 
     54 H54         0.1474   51.4419   28.8506 H         1 UNK         0.0000 
     55 H55         0.0314   53.1499   28.5660 H         1 UNK         0.0000 
     56 H56        -1.5099   53.0816   26.8818 H         1 UNK         0.0000 
     57 H57        -1.9876   51.6669   27.7709 H         1 UNK         0.0000 
     58 H58        -2.0813   49.7182   26.4571 H         1 UNK         0.0000 
     59 H59        -3.0497   45.9899   24.3034 H         1 UNK         0.0000 
     60 H60        -1.8463   45.8310   25.6121 H         1 UNK         0.0000 
     61 H61        -3.4678   47.4970   27.5299 H         1 UNK         0.0000 
     62 H62        -6.0821   46.7890   27.9973 H         1 UNK         0.0000 
     63 H63        -5.2573   45.3666   28.4823 H         1 UNK         0.0000 
     64 H64        -5.3192   46.4991   30.5155 H         1 UNK         0.0000 
     65 H65        -3.7620   47.0044   29.9854 H         1 UNK         0.0000 
     66 H66        -3.5440   49.3534   28.9231 H         1 UNK         0.0000 
     67 H67        -4.2683   51.6921   29.1699 H         1 UNK         0.0000 
     68 H68        -7.1388   48.0222   30.8478 H         1 UNK         0.0000 
     69 H69        -8.6177   49.6376   31.4861 H         1 UNK         0.0000 
     70 H70        -7.4115   52.5218   30.6330 H         1 UNK         0.0000 
     71 H71         0.4813   48.9006   23.1657 H         1 UNK         0.0000 
     72 H72        -0.6405   50.1508   22.6803 H         1 UNK         0.0000 
     73 H73         1.4902   51.1794   23.3805 H         1 UNK         0.0000 
     74 H74         1.5004   50.2276   24.8347 H         1 UNK         0.0000 
     75 H75         0.0904   53.2930   23.2318 H         1 UNK         0.0000 
     76 H76        -1.3701   52.3360   23.4080 H         1 UNK         0.0000 
     77 H77        -1.0738   53.6953   24.4767 H         1 UNK         0.0000 
     78 H78         1.0689   54.9440   27.6816 H         1 UNK         0.0000 
     79 H79         2.0200   55.1965   29.1208 H         1 UNK         0.0000 
     80 H80         2.3042   56.1567   27.6869 H         1 UNK         0.0000 
@<TRIPOS>BOND
     1    1    2 1    
     2    1   43 1    
     3    1   44 1    
     4    1   45 1    
     5    2    3 2    
     6    2    4 1    
     7    4    5 1    
     8    4   10 1    
     9    4    6 1    
    10    6    7 1    
    11    6   46 1    
    12    6   47 1    
    13    7    8 1    
    14    7   48 1    
    15    7   49 1    
    16    8    9 1    
    17    8   15 1    
    18    8   10 1    
    19   10   11 1    
    20   10   42 1    
    21   11   12 1    
    22   11   50 1    
    23   11   51 1    
    24   12   13 1    
    25   12   52 1    
    26   12   53 1    
    27   13   14 1    
    28   13   40 1    
    29   13   15 1    
    30   15   16 1    
    31   15   17 1    
    32   17   18 1    
    33   17   54 1    
    34   17   55 1    
    35   18   19 1    
    36   18   56 1    
    37   18   57 1    
    38   19   40 1    
    39   19   20 2    
    40   20   21 1    
    41   20   58 1    
    42   21   22 2    
    43   21   38 1    
    44   22   23 1    
    45   23   24 1    
    46   24   25 1    
    47   24   59 1    
    48   24   60 1    
    49   25   26 2    
    50   25   27 am   BACKBONE|DICT|INTERRES
    51   27   28 1    
    52   27   61 1    
    53   28   29 1    
    54   28   62 1    
    55   28   63 1    
    56   29   30 1    
    57   29   64 1    
    58   29   65 1    
    59   30   35 ar   
    60   30   31 ar   
    61   31   32 ar   
    62   31   66 1    
    63   32   33 ar   
    64   32   67 1    
    65   33   34 ar   
    66   33   37 1    
    67   34   35 ar   
    68   34   36 1    
    69   35   68 1    
    70   36   69 1    
    71   37   70 1    
    72   38   39 1    
    73   38   71 1    
    74   38   72 1    
    75   39   40 1    
    76   39   73 1    
    77   39   74 1    
    78   40   41 1    
    79   41   75 1    
    80   41   76 1    
    81   41   77 1    
    82   42   78 1    
    83   42   79 1    
    84   42   80 1    
@<TRIPOS>SUBSTRUCTURE
     1 UNK         1 GROUP             0       ****    0 ROOT    
