ZINC20213473_5635
                    3D
 Schrodinger Suite 2024-2.
 60 64  0  0  1  0            999 V2000
    5.6568   51.6156   13.7142 C   0  0  0  0  0  0
    7.1188   51.3427   14.0454 C   0  0  0  0  0  0
    7.8932   50.6116   13.1389 C   0  0  0  0  0  0
    9.2230   50.3107   13.4240 C   0  0  0  0  0  0
    9.7889   50.7317   14.6243 C   0  0  0  0  0  0
    9.0358   51.4643   15.5465 C   0  0  0  0  0  0
    7.6977   51.7888   15.2500 C   0  0  0  0  0  0
    6.9157   52.4968   16.1891 N   0  0  0  0  0  0
    6.6944   53.8468   16.3077 C   0  0  0  0  0  0
    7.4423   54.9616   15.2896 S   0  0  0  0  0  0
    5.8255   54.2089   17.3226 N   0  0  0  0  0  0
    5.8290   55.5571   17.9606 C   0  0  0  0  0  0
    5.9969   55.3436   19.4839 C   0  0  0  0  0  0
    4.8720   54.4380   20.0309 C   0  0  0  0  0  0
    4.9464   53.0770   19.3137 C   0  0  0  0  0  0
    4.7510   53.2895   17.7918 C   0  0  0  0  0  0
    4.8372   54.3235   21.5603 C   0  0  0  0  0  0
    5.9162   54.4965   22.3700 C   0  0  0  0  0  0
    5.8553   54.4655   23.8151 C   0  0  0  0  0  0
    4.5284   54.1881   24.2650 N   0  0  0  0  0  0
    3.4178   53.9853   23.4629 C   0  0  0  0  0  0
    3.5648   54.0843   22.0843 N   0  0  0  0  0  0
    2.3750   53.7154   24.3269 C   0  0  0  0  0  0
    2.9270   53.8024   25.6163 C   0  0  0  0  0  0
    4.2106   54.0972   25.5659 N   0  0  0  0  0  0
    2.2466   53.6100   26.9279 C   0  0  0  0  0  0
    2.5841   54.4208   28.0174 C   0  0  0  0  0  0
    1.9671   54.2284   29.2477 C   0  0  0  0  0  0
    1.0269   53.2125   29.3952 C   0  0  0  0  0  0
    0.6764   52.4042   28.3156 C   0  0  0  0  0  0
    1.2808   52.6097   27.0779 C   0  0  0  0  0  0
    0.3045   52.9480   30.9349 Cl  0  0  0  0  0  0
    6.7711   54.6609   24.6159 O   0  0  0  0  0  0
    9.6801   51.8762   16.8609 C   0  0  0  0  0  0
    5.0156   51.2346   14.5112 H   0  0  0  0  0  0
    5.4815   52.6888   13.6361 H   0  0  0  0  0  0
    5.3460   51.1451   12.7804 H   0  0  0  0  0  0
    7.4648   50.2665   12.2099 H   0  0  0  0  0  0
    9.8180   49.7455   12.7191 H   0  0  0  0  0  0
   10.8176   50.4786   14.8353 H   0  0  0  0  0  0
    6.4733   51.9119   16.8871 H   0  0  0  0  0  0
    6.6168   56.2212   17.6050 H   0  0  0  0  0  0
    4.8765   56.0405   17.7379 H   0  0  0  0  0  0
    6.9809   54.9029   19.6564 H   0  0  0  0  0  0
    5.9824   56.3136   19.9835 H   0  0  0  0  0  0
    3.9290   54.9050   19.7359 H   0  0  0  0  0  0
    4.1710   52.4017   19.6791 H   0  0  0  0  0  0
    5.9042   52.5817   19.4814 H   0  0  0  0  0  0
    3.7945   53.7791   17.6017 H   0  0  0  0  0  0
    4.7045   52.3372   17.2635 H   0  0  0  0  0  0
    6.8871   54.7005   21.9469 H   0  0  0  0  0  0
    1.3502   53.4983   24.0663 H   0  0  0  0  0  0
    3.3227   55.2028   27.9115 H   0  0  0  0  0  0
    2.2237   54.8623   30.0817 H   0  0  0  0  0  0
   -0.0534   51.6158   28.4378 H   0  0  0  0  0  0
    1.0157   51.9749   26.2450 H   0  0  0  0  0  0
    9.1095   51.4462   17.6820 H   0  0  0  0  0  0
   10.7133   51.5371   16.9474 H   0  0  0  0  0  0
    9.6624   52.9609   16.9770 H   0  0  0  0  0  0
    2.7719   53.9979   21.4619 H   0  0  0  0  0  0
  1  2  1  0  0  0
  1 35  1  0  0  0
  1 36  1  0  0  0
  1 37  1  0  0  0
  2  7  2  0  0  0
  2  3  1  0  0  0
  3  4  2  0  0  0
  3 38  1  0  0  0
  4  5  1  0  0  0
  4 39  1  0  0  0
  5  6  2  0  0  0
  5 40  1  0  0  0
  6  7  1  0  0  0
  6 34  1  0  0  0
  7  8  1  0  0  0
  8  9  1  0  0  0
  8 41  1  0  0  0
  9 10  2  0  0  0
  9 11  1  0  0  0
 11 16  1  0  0  0
 11 12  1  0  0  0
 12 13  1  0  0  0
 12 42  1  0  0  0
 12 43  1  0  0  0
 13 14  1  0  0  0
 13 44  1  0  0  0
 13 45  1  0  0  0
 14 15  1  0  0  0
 14 17  1  0  0  0
 14 46  1  0  0  0
 15 16  1  0  0  0
 15 47  1  0  0  0
 15 48  1  0  0  0
 16 49  1  0  0  0
 16 50  1  0  0  0
 17 22  1  0  0  0
 17 18  2  0  0  0
 18 19  1  0  0  0
 18 51  1  0  0  0
 19 20  1  0  0  0
 19 33  2  0  0  0
 20 25  1  0  0  0
 20 21  1  0  0  0
 21 22  1  0  0  0
 21 23  2  0  0  0
 22 60  1  0  0  0
 23 24  1  0  0  0
 23 52  1  0  0  0
 24 25  2  0  0  0
 24 26  1  0  0  0
 26 31  2  0  0  0
 26 27  1  0  0  0
 27 28  2  0  0  0
 27 53  1  0  0  0
 28 29  1  0  0  0
 28 54  1  0  0  0
 29 30  2  0  0  0
 29 32  1  0  0  0
 30 31  1  0  0  0
 30 55  1  0  0  0
 31 56  1  0  0  0
 34 57  1  0  0  0
 34 58  1  0  0  0
 34 59  1  0  0  0
M  END
> <i_i_glide_confnum>
137

> <i_i_glide_lignum>
5636

> <i_i_glide_posenum>
319

> <i_i_glide_rotatable_bonds>
5

> <i_m_Source_File_Index>
2900

> <b_m_subgroup_collapsed>
0

> <r_i_docking_score>
-5.70646

> <r_i_glide_ecoul>
-3.56061

> <r_i_glide_eff_state_penalty>
0

> <r_i_glide_einternal>
2.8123

> <r_i_glide_emodel>
-63.8827

> <r_i_glide_energy>
-48.9978

> <r_i_glide_erotb>
0.420524

> <r_i_glide_esite>
-0.0493008

> <r_i_glide_evdw>
-45.4372

> <r_i_glide_gscore>
-5.70646

> <r_i_glide_hbond>
-0.184485

> <r_i_glide_ligand_efficiency>
-0.167837

> <r_i_glide_ligand_efficiency_ln>
-1.26072

> <r_i_glide_ligand_efficiency_sa>
-0.543727

> <r_i_glide_lipo>
-2.44732

> <r_i_glide_metal>
0

> <r_i_glide_rewards>
-0.639933

> <s_i_glide_gridfile>
wee1_glide-grid

> <s_m_Source_File>
wee1_decoys_glide_SP.sdf

> <s_m_Source_Path>
/Users/zhangxujun/Desktop

> <s_m_entry_id>
3175

> <s_m_entry_name>
wee1_decoys_glide_SP.2900

> <s_m_subgroup_title>
wee1_decoys_glide_SP

> <s_m_subgroupid>
wee1_decoys_glide_SP


$$$$
