ZINC36053552_5961
                    3D
 Schrodinger Suite 2024-2.
 63 66  0  0  1  0            999 V2000
    3.8289   53.7044   17.1007 C   0  0  0  0  0  0
    4.1127   53.7532   18.6019 C   0  0  0  0  0  0
    3.6681   52.8844   19.5610 C   0  0  0  0  0  0
    4.1808   52.9929   21.0422 C   0  0  1  0  0  0
    4.7925   52.1079   21.2306 H   0  0  0  0  0  0
    5.1380   54.1526   21.1689 N   0  0  0  0  0  0
    5.8939   54.4960   22.2916 C   0  0  0  0  0  0
    6.7848   55.4705   22.0278 C   0  0  0  0  0  0
    6.7117   56.0888   20.3945 S   0  0  0  0  0  0
    5.4661   54.8892   20.0258 C   0  0  0  0  0  0
    5.0050   54.7508   18.8494 N   0  0  0  0  0  0
    5.7426   53.9370   23.6272 C   0  0  0  0  0  0
    5.9400   54.5812   24.7954 C   0  0  0  0  0  0
    6.3109   55.7879   25.0356 O   0  5  0  0  0  0
    5.7168   53.9554   25.9920 N   0  0  0  0  0  0
    6.7056   53.7529   27.0440 C   0  0  0  0  0  0
    6.1093   53.5823   28.4585 C   0  0  1  0  0  0
    6.9398   53.3389   29.1192 H   0  0  0  0  0  0
    5.4158   54.8210   28.9956 C   0  0  0  0  0  0
    3.9511   54.6383   28.6524 C   0  0  0  0  0  0
    3.8044   53.1393   28.3769 C   0  0  0  0  0  0
    5.1029   52.5787   28.5800 O   0  0  0  0  0  0
    3.0543   52.9402   22.1047 C   0  0  0  0  0  0
    2.5644   54.0902   22.7308 C   0  0  0  0  0  0
    1.4932   54.0046   23.6199 C   0  0  0  0  0  0
    0.8887   52.7735   23.8859 C   0  0  0  0  0  0
    1.4165   51.6158   23.3173 C   0  0  0  0  0  0
    2.4915   51.7039   22.4459 C   0  0  0  0  0  0
   -0.3472   52.7132   24.7830 C   0  0  0  0  0  0
   -1.4214   51.7160   24.3008 C   0  0  0  0  0  0
    0.0376   52.4535   26.2510 C   0  0  0  0  0  0
    2.6980   51.8195   19.2362 C   0  0  0  0  0  0
    2.7856   50.6735   19.6826 O   0  0  0  0  0  0
    1.6650   52.2467   18.4679 O   0  0  0  0  0  0
    0.6445   51.3454   18.0645 C   0  0  0  0  0  0
    3.4347   52.7445   16.7718 H   0  0  0  0  0  0
    3.1215   54.4868   16.8283 H   0  0  0  0  0  0
    4.7419   53.8588   16.5217 H   0  0  0  0  0  0
    7.4803   55.9016   22.7349 H   0  0  0  0  0  0
    5.4431   52.9023   23.6711 H   0  0  0  0  0  0
    5.1052   53.1553   25.9415 H   0  0  0  0  0  0
    7.3902   54.6003   27.0736 H   0  0  0  0  0  0
    7.3156   52.8958   26.7826 H   0  0  0  0  0  0
    5.9002   55.6966   28.5780 H   0  0  0  0  0  0
    5.5465   54.9027   30.0738 H   0  0  0  0  0  0
    3.6910   55.2151   27.7646 H   0  0  0  0  0  0
    3.3023   54.9719   29.4627 H   0  0  0  0  0  0
    3.4770   52.9588   27.3514 H   0  0  0  0  0  0
    3.0874   52.6690   29.0503 H   0  0  0  0  0  0
    2.9979   55.0526   22.5050 H   0  0  0  0  0  0
    1.1083   54.8994   24.0815 H   0  0  0  0  0  0
    1.0015   50.6452   23.5401 H   0  0  0  0  0  0
    2.8928   50.7884   22.0439 H   0  0  0  0  0  0
   -0.8227   53.6919   24.6962 H   0  0  0  0  0  0
   -1.6554   51.8641   23.2454 H   0  0  0  0  0  0
   -1.1085   50.6793   24.4317 H   0  0  0  0  0  0
   -2.3475   51.8424   24.8624 H   0  0  0  0  0  0
    0.8087   53.1428   26.5977 H   0  0  0  0  0  0
   -0.8271   52.5604   26.9094 H   0  0  0  0  0  0
    0.4296   51.4429   26.3828 H   0  0  0  0  0  0
   -0.1257   51.8780   17.5056 H   0  0  0  0  0  0
    1.0538   50.5663   17.4200 H   0  0  0  0  0  0
    0.1767   50.8711   18.9266 H   0  0  0  0  0  0
  1  2  1  0  0  0
  1 36  1  0  0  0
  1 37  1  0  0  0
  1 38  1  0  0  0
  2 11  1  0  0  0
  2  3  2  0  0  0
  3  4  1  0  0  0
  3 32  1  0  0  0
  4  5  1  0  0  0
  4  6  1  0  0  0
  4 23  1  0  0  0
  6 10  1  0  0  0
  6  7  1  0  0  0
  7  8  2  0  0  0
  7 12  1  0  0  0
  8  9  1  0  0  0
  8 39  1  0  0  0
  9 10  1  0  0  0
 10 11  2  0  0  0
 12 13  2  0  0  0
 12 40  1  0  0  0
 13 14  1  0  0  0
 13 15  1  0  0  0
 15 16  1  0  0  0
 15 41  1  0  0  0
 16 17  1  0  0  0
 16 42  1  0  0  0
 16 43  1  0  0  0
 17 18  1  0  0  0
 17 22  1  0  0  0
 17 19  1  0  0  0
 19 20  1  0  0  0
 19 44  1  0  0  0
 19 45  1  0  0  0
 20 21  1  0  0  0
 20 46  1  0  0  0
 20 47  1  0  0  0
 21 22  1  0  0  0
 21 48  1  0  0  0
 21 49  1  0  0  0
 23 28  2  0  0  0
 23 24  1  0  0  0
 24 25  2  0  0  0
 24 50  1  0  0  0
 25 26  1  0  0  0
 25 51  1  0  0  0
 26 27  2  0  0  0
 26 29  1  0  0  0
 27 28  1  0  0  0
 27 52  1  0  0  0
 28 53  1  0  0  0
 29 30  1  0  0  0
 29 31  1  0  0  0
 29 54  1  0  0  0
 30 55  1  0  0  0
 30 56  1  0  0  0
 30 57  1  0  0  0
 31 58  1  0  0  0
 31 59  1  0  0  0
 31 60  1  0  0  0
 32 33  2  0  0  0
 32 34  1  0  0  0
 34 35  1  0  0  0
 35 61  1  0  0  0
 35 62  1  0  0  0
 35 63  1  0  0  0
M  CHG  1  14  -1
M  END
> <i_i_glide_confnum>
360

> <i_i_glide_lignum>
5962

> <i_i_glide_posenum>
359

> <i_i_glide_rotatable_bonds>
8

> <i_m_Source_File_Index>
1860

> <b_m_subgroup_collapsed>
0

> <r_i_docking_score>
-5.26845

> <r_i_glide_ecoul>
0.391304

> <r_i_glide_eff_state_penalty>
0

> <r_i_glide_einternal>
6.42706

> <r_i_glide_emodel>
-49.6868

> <r_i_glide_energy>
-42.3647

> <r_i_glide_erotb>
0.459774

> <r_i_glide_esite>
-0.0519113

> <r_i_glide_evdw>
-42.756

> <r_i_glide_gscore>
-5.26845

> <r_i_glide_hbond>
0

> <r_i_glide_ligand_efficiency>
-0.15965

> <r_i_glide_ligand_efficiency_ln>
-1.17168

> <r_i_glide_ligand_efficiency_sa>
-0.512083

> <r_i_glide_lipo>
-3.09365

> <r_i_glide_metal>
0

> <r_i_glide_rewards>
-0.503557

> <s_i_glide_gridfile>
wee1_glide-grid

> <s_m_Source_File>
wee1_decoys_glide_SP.sdf

> <s_m_Source_Path>
/Users/zhangxujun/Desktop

> <s_m_entry_id>
2135

> <s_m_entry_name>
wee1_decoys_glide_SP.1860

> <s_m_subgroup_title>
wee1_decoys_glide_SP

> <s_m_subgroupid>
wee1_decoys_glide_SP


$$$$
