ZINC46642949_1445
                    3D
 Schrodinger Suite 2024-2.
 48 50  0  0  1  0            999 V2000
    5.1046   53.8854   28.6202 C   0  0  0  0  0  0
    4.8797   53.6958   27.1145 C   0  0  1  0  0  0
    5.0438   52.6349   26.9152 H   0  0  0  0  0  0
    3.4512   54.1020   26.6874 C   0  0  0  0  0  0
    3.1490   53.6968   25.2260 C   0  0  0  0  0  0
    4.3322   54.1059   24.3569 C   0  0  0  0  0  0
    5.5872   54.4965   24.8466 C   0  0  0  0  0  0
    6.4681   54.8330   23.8178 C   0  0  0  0  0  0
    5.9095   54.7687   22.5470 C   0  0  0  0  0  0
    4.2945   54.0967   22.6204 S   0  0  0  0  0  0
    6.5541   55.1420   21.3146 C   0  0  0  0  0  0
    7.7749   55.2982   21.2696 O   0  0  0  0  0  0
    5.7197   55.2971   20.2617 N   0  0  0  0  0  0
    6.1850   55.7149   19.0082 N   0  0  0  0  0  0
    6.6035   56.9868   18.8025 C   0  0  0  0  0  0
    6.7049   57.8462   19.6818 O   0  0  0  0  0  0
    6.9196   57.2942   17.4332 C   0  0  0  0  0  0
    7.3320   58.4840   16.8449 C   0  0  0  0  0  0
    7.4494   58.2421   15.4753 C   0  0  0  0  0  0
    7.0981   56.9141   15.2809 C   0  0  0  0  0  0
    6.7898   56.3397   16.4702 O   0  0  0  0  0  0
    6.9809   55.8689   13.8055 S   0  0  0  0  0  0
    5.5869   55.4160   13.7282 O   0  0  0  0  0  0
    8.0842   54.9064   13.8888 O   0  0  0  0  0  0
    7.2981   57.0030   12.4737 N   0  0  0  0  0  0
    8.6940   57.4374   12.2550 C   0  0  0  0  0  0
    6.2521   58.0019   12.1672 C   0  0  0  0  0  0
    5.9386   54.5032   26.3276 C   0  0  0  0  0  0
    4.9720   54.9228   28.9278 H   0  0  0  0  0  0
    4.4210   53.2700   29.2053 H   0  0  0  0  0  0
    6.1188   53.5869   28.8838 H   0  0  0  0  0  0
    3.2919   55.1677   26.8615 H   0  0  0  0  0  0
    2.7240   53.6120   27.3390 H   0  0  0  0  0  0
    2.2265   54.1684   24.8873 H   0  0  0  0  0  0
    3.0012   52.6195   25.1728 H   0  0  0  0  0  0
    7.4743   55.1694   24.0062 H   0  0  0  0  0  0
    4.7125   55.2674   20.3243 H   0  0  0  0  0  0
    6.2436   54.9718   18.3252 H   0  0  0  0  0  0
    7.5043   59.4227   17.3529 H   0  0  0  0  0  0
    7.7400   58.9592   14.7240 H   0  0  0  0  0  0
    8.8191   57.7892   11.2305 H   0  0  0  0  0  0
    9.3724   56.5983   12.4174 H   0  0  0  0  0  0
    8.9596   58.2292   12.9547 H   0  0  0  0  0  0
    6.3064   58.8337   12.8705 H   0  0  0  0  0  0
    6.3723   58.3706   11.1475 H   0  0  0  0  0  0
    5.2652   57.5462   12.2582 H   0  0  0  0  0  0
    6.9316   54.0807   26.4915 H   0  0  0  0  0  0
    5.9743   55.5342   26.6813 H   0  0  0  0  0  0
  1  2  1  0  0  0
  1 29  1  0  0  0
  1 30  1  0  0  0
  1 31  1  0  0  0
  2  3  1  0  0  0
  2 28  1  0  0  0
  2  4  1  0  0  0
  4  5  1  0  0  0
  4 32  1  0  0  0
  4 33  1  0  0  0
  5  6  1  0  0  0
  5 34  1  0  0  0
  5 35  1  0  0  0
  6 10  1  0  0  0
  6  7  2  0  0  0
  7  8  1  0  0  0
  7 28  1  0  0  0
  8  9  2  0  0  0
  8 36  1  0  0  0
  9 10  1  0  0  0
  9 11  1  0  0  0
 11 12  2  0  0  0
 11 13  1  0  0  0
 13 14  1  0  0  0
 13 37  1  0  0  0
 14 15  1  0  0  0
 14 38  1  0  0  0
 15 16  2  0  0  0
 15 17  1  0  0  0
 17 21  1  0  0  0
 17 18  2  0  0  0
 18 19  1  0  0  0
 18 39  1  0  0  0
 19 20  2  0  0  0
 19 40  1  0  0  0
 20 21  1  0  0  0
 20 22  1  0  0  0
 22 23  2  0  0  0
 22 24  2  0  0  0
 22 25  1  0  0  0
 25 26  1  0  0  0
 25 27  1  0  0  0
 26 41  1  0  0  0
 26 42  1  0  0  0
 26 43  1  0  0  0
 27 44  1  0  0  0
 27 45  1  0  0  0
 27 46  1  0  0  0
 28 47  1  0  0  0
 28 48  1  0  0  0
M  END
> <i_i_glide_confnum>
76

> <i_i_glide_lignum>
1446

> <i_i_glide_posenum>
334

> <i_i_glide_rotatable_bonds>
7

> <i_m_Source_File_Index>
3569

> <b_m_subgroup_collapsed>
0

> <r_i_docking_score>
-2.84783

> <r_i_glide_ecoul>
-4.04205

> <r_i_glide_eff_state_penalty>
0

> <r_i_glide_einternal>
3.85031

> <r_i_glide_emodel>
-34.2866

> <r_i_glide_energy>
-34.3152

> <r_i_glide_erotb>
0.698403

> <r_i_glide_esite>
0

> <r_i_glide_evdw>
-30.2731

> <r_i_glide_gscore>
-2.84783

> <r_i_glide_hbond>
-0.312032

> <r_i_glide_ligand_efficiency>
-0.105475

> <r_i_glide_ligand_efficiency_ln>
-0.662927

> <r_i_glide_ligand_efficiency_sa>
-0.316425

> <r_i_glide_lipo>
-2.42838

> <r_i_glide_metal>
0

> <r_i_glide_rewards>
1.31414

> <s_i_glide_gridfile>
wee1_glide-grid

> <s_m_Source_File>
wee1_decoys_glide_SP.sdf

> <s_m_Source_Path>
/Users/zhangxujun/Desktop

> <s_m_entry_id>
3844

> <s_m_entry_name>
wee1_decoys_glide_SP.3569

> <s_m_subgroup_title>
wee1_decoys_glide_SP

> <s_m_subgroupid>
wee1_decoys_glide_SP


$$$$
