@<TRIPOS>MOLECULE
ZINC01129483_4964
62   65    1
SMALL
USER_CHARGES


@<TRIPOS>ATOM
      1 C1         -5.3638   47.9807   23.6335 C.3       1 UNK         0.0000 
      2 C2         -4.3513   46.8692   24.0055 C.3       1 UNK         0.0000 
      3 C3         -4.8776   45.5600   23.3595 C.3       1 UNK         0.0000 
      4 C4         -2.9768   47.2130   23.3946 C.3       1 UNK         0.0000 
      5 C5         -4.2239   46.7075   25.5357 C.ar      1 UNK         0.0000 
      6 C6         -4.4549   47.6447   26.5806 C.ar      1 UNK         0.0000 
      7 C7         -4.1795   46.9222   27.7251 C.ar      1 UNK         0.0000 
      8 N8         -3.7236   45.6977   27.3593 N.pl3     1 UNK         0.0000 
      9 H9         -3.3676   44.9774   27.9864 H         1 UNK         0.0000 
     10 N10        -3.7455   45.5682   26.0299 N.2       1 UNK         0.0000 
     11 O11        -4.2883   47.3196   29.0317 O.3       1 UNK         0.0000 
     12 C12        -4.7846   48.5840   29.1706 C.2       1 UNK         0.0000 
     13 C13        -5.0850   49.4562   28.1738 C.2       1 UNK         0.0000 
     14 C14        -4.8381   49.1357   26.6841 C.3       1 UNK         0.0000 
     15 H15        -5.7730   49.3008   26.1493 H         1 UNK         0.0000 
     16 C16        -3.8144   50.0896   26.0428 C.ar      1 UNK         0.0000 
     17 C17        -4.2257   51.3045   25.4888 C.ar      1 UNK         0.0000 
     18 C18        -3.3092   52.1715   24.8708 C.ar      1 UNK         0.0000 
     19 C19        -1.9599   51.7924   24.7913 C.ar      1 UNK         0.0000 
     20 C20        -1.5186   50.5914   25.3745 C.ar      1 UNK         0.0000 
     21 C21        -2.4585   49.7655   26.0024 C.ar      1 UNK         0.0000 
     22 O22        -0.1704   50.2855   25.2902 O.3       1 UNK         0.0000 
     23 C23         0.3021   49.0389   25.7974 C.3       1 UNK         0.0000 
     24 O24        -1.0629   52.6447   24.1782 O.3       1 UNK         0.0000 
     25 C25        -0.4575   52.1626   22.9757 C.3       1 UNK         0.0000 
     26 C26         0.9729   52.6772   22.8234 C.ar      1 UNK         0.0000 
     27 C27         1.7672   52.1658   21.7906 C.ar      1 UNK         0.0000 
     28 C28         3.0742   52.6174   21.6229 C.ar      1 UNK         0.0000 
     29 C29         3.5865   53.5817   22.4853 C.ar      1 UNK         0.0000 
     30 C30         2.8051   54.0985   23.5147 C.ar      1 UNK         0.0000 
     31 C31         1.4994   53.6492   23.6823 C.ar      1 UNK         0.0000 
     32 F32         4.8571   54.0150   22.3297 F         1 UNK         0.0000 
     33 O33        -3.6619   53.3909   24.3177 O.3       1 UNK         0.0000 
     34 C34        -4.9751   53.8970   24.5264 C.3       1 UNK         0.0000 
     35 C35        -5.6300   50.7358   28.5020 C.1       1 UNK         0.0000 
     36 N36        -6.0958   51.7556   28.7918 N.1       1 UNK         0.0000 
     37 N37        -4.8953   48.8267   30.5080 N.pl3     1 UNK         0.0000 
     38 H38        -5.5769   47.9944   22.5631 H         1 UNK         0.0000 
     39 H39        -4.9937   48.9729   23.8842 H         1 UNK         0.0000 
     40 H40        -6.3171   47.8453   24.1488 H         1 UNK         0.0000 
     41 H41        -4.1776   44.7349   23.4847 H         1 UNK         0.0000 
     42 H42        -5.8247   45.2500   23.8083 H         1 UNK         0.0000 
     43 H43        -5.0467   45.6754   22.2874 H         1 UNK         0.0000 
     44 H44        -2.2320   46.4570   23.6349 H         1 UNK         0.0000 
     45 H45        -3.0273   47.2954   22.3097 H         1 UNK         0.0000 
     46 H46        -2.5966   48.1589   23.7744 H         1 UNK         0.0000 
     47 H47        -5.2736   51.5585   25.5471 H         1 UNK         0.0000 
     48 H48        -2.1390   48.8511   26.4793 H         1 UNK         0.0000 
     49 H49         1.3594   48.9162   25.5605 H         1 UNK         0.0000 
     50 H50         0.2086   48.9981   26.8809 H         1 UNK         0.0000 
     51 H51        -0.2249   48.1898   25.3595 H         1 UNK         0.0000 
     52 H52        -0.4372   51.0732   22.9168 H         1 UNK         0.0000 
     53 H53        -1.0528   52.5080   22.1311 H         1 UNK         0.0000 
     54 H54         1.3753   51.4197   21.1158 H         1 UNK         0.0000 
     55 H55         3.6885   52.2246   20.8255 H         1 UNK         0.0000 
     56 H56         3.2117   54.8464   24.1781 H         1 UNK         0.0000 
     57 H57         0.8990   54.0600   24.4810 H         1 UNK         0.0000 
     58 H58        -5.0599   54.8802   24.0595 H         1 UNK         0.0000 
     59 H59        -5.7350   53.2525   24.0819 H         1 UNK         0.0000 
     60 H60        -5.1879   54.0195   25.5884 H         1 UNK         0.0000 
     61 H61        -5.2452   49.7177   30.8224 H         1 UNK         0.0000 
     62 H62        -4.2110   48.3844   31.1077 H         1 UNK         0.0000 
@<TRIPOS>BOND
     1    1    2 1    
     2    1   38 1    
     3    1   39 1    
     4    1   40 1    
     5    2    3 1    
     6    2    4 1    
     7    2    5 1    
     8    3   41 1    
     9    3   42 1    
    10    3   43 1    
    11    4   44 1    
    12    4   45 1    
    13    4   46 1    
    14    5   10 ar   
    15    5    6 ar   
    16    6   14 1    
    17    6    7 ar   
    18    7    8 ar   
    19    7   11 1    
    20    8    9 1    
    21    8   10 ar   
    22   11   12 1    
    23   12   13 2    
    24   12   37 1    
    25   13   14 1    
    26   13   35 1    
    27   14   15 1    
    28   14   16 1    
    29   16   21 ar   
    30   16   17 ar   
    31   17   18 ar   
    32   17   47 1    
    33   18   19 ar   
    34   18   33 1    
    35   19   20 ar   
    36   19   24 1    
    37   20   21 ar   
    38   20   22 1    
    39   21   48 1    
    40   22   23 1    
    41   23   49 1    
    42   23   50 1    
    43   23   51 1    
    44   24   25 1    
    45   25   26 1    
    46   25   52 1    
    47   25   53 1    
    48   26   31 ar   
    49   26   27 ar   
    50   27   28 ar   
    51   27   54 1    
    52   28   29 ar   
    53   28   55 1    
    54   29   30 ar   
    55   29   32 1    
    56   30   31 ar   
    57   30   56 1    
    58   31   57 1    
    59   33   34 1    
    60   34   58 1    
    61   34   59 1    
    62   34   60 1    
    63   35   36 3    
    64   37   61 1    
    65   37   62 1    
@<TRIPOS>SUBSTRUCTURE
     1 UNK         1 GROUP             0       ****    0 ROOT    
