@<TRIPOS>MOLECULE
ZINC35268121_3433
58   60    1
SMALL
USER_CHARGES


@<TRIPOS>ATOM
      1 C1          4.0261   56.8026   17.1035 C.3       1 UNK         0.0000 
      2 C2          3.3667   55.4504   17.4287 C.3       1 UNK         0.0000 
      3 C3          4.2144   54.1965   17.0844 C.3       1 UNK         0.0000 
      4 H4          3.5762   53.3386   17.3082 H         1 UNK         0.0000 
      5 C5          4.4657   54.1182   15.5619 C.3       1 UNK         0.0000 
      6 C6          5.5298   54.0544   17.9267 C.3       1 UNK         0.0000 
      7 H7          6.1173   54.9631   17.7815 H         1 UNK         0.0000 
      8 C8          5.1991   53.8988   19.4316 C.2       1 UNK         0.0000 
      9 O9          4.3684   53.0602   19.7889 O.2       1 UNK         0.0000 
     10 N10         5.9003   54.7030   20.2564 N.am      1 UNK         0.0000 
     11 C11         5.9048   54.6886   21.6444 C.2       1 UNK         0.0000 
     12 N12         6.8505   55.2964   22.3129 N.2       1 UNK         0.0000 
     13 N13         6.7042   55.1747   23.6890 N.2       1 UNK         0.0000 
     14 C14         5.6328   54.5020   24.0410 C.2       1 UNK         0.0000 
     15 S15         4.7115   53.9215   22.6724 S.3       1 UNK         0.0000 
     16 C16         5.2027   54.3078   25.4631 C.ar      1 UNK         0.0000 
     17 C17         3.8532   54.1159   25.7825 C.ar      1 UNK         0.0000 
     18 C18         3.4545   53.9918   27.1108 C.ar      1 UNK         0.0000 
     19 C19         4.4026   54.0605   28.1289 C.ar      1 UNK         0.0000 
     20 C20         5.7499   54.2391   27.8250 C.ar      1 UNK         0.0000 
     21 C21         6.1468   54.3604   26.4964 C.ar      1 UNK         0.0000 
     22 Cl22        3.9037   53.9328   29.7751 Cl        1 UNK         0.0000 
     23 N23         6.3238   52.8968   17.4967 N.am      1 UNK         0.0000 
     24 C24         7.5780   52.9507   17.0194 C.2       1 UNK         0.0000 
     25 O25         8.2678   53.9725   17.0150 O.2       1 UNK         0.0000 
     26 N26         7.9669   51.7805   16.4861 N.am      1 UNK         0.0000 
     27 C27         9.1932   51.5589   15.7096 C.3       1 UNK         0.0000 
     28 C28        10.4968   51.5226   16.5471 C.3       1 UNK         0.0000 
     29 C29        11.7661   51.2614   15.7098 C.3       1 UNK         0.0000 
     30 C30        11.6265   50.0266   14.8025 C.3       1 UNK         0.0000 
     31 C31        10.3848   50.1368   13.9057 C.3       1 UNK         0.0000 
     32 C32         9.1028   50.3652   14.7279 C.3       1 UNK         0.0000 
     33 H33         3.3306   57.6238   17.2817 H         1 UNK         0.0000 
     34 H34         4.9062   56.9825   17.7234 H         1 UNK         0.0000 
     35 H35         4.3321   56.8682   16.0567 H         1 UNK         0.0000 
     36 H36         2.4117   55.3914   16.9037 H         1 UNK         0.0000 
     37 H37         3.1044   55.4435   18.4846 H         1 UNK         0.0000 
     38 H38         5.1892   54.8665   15.2343 H         1 UNK         0.0000 
     39 H39         4.8541   53.1423   15.2731 H         1 UNK         0.0000 
     40 H40         3.5435   54.2736   14.9979 H         1 UNK         0.0000 
     41 H41         6.5881   55.3024   19.8235 H         1 UNK         0.0000 
     42 H42         3.1038   54.0758   25.0057 H         1 UNK         0.0000 
     43 H43         2.4104   53.8509   27.3488 H         1 UNK         0.0000 
     44 H44         6.4836   54.2958   28.6170 H         1 UNK         0.0000 
     45 H45         7.1925   54.5009   26.2729 H         1 UNK         0.0000 
     46 H46         5.9048   51.9834   17.6818 H         1 UNK         0.0000 
     47 H47         7.4208   50.9601   16.7079 H         1 UNK         0.0000 
     48 H48         9.2927   52.4302   15.0577 H         1 UNK         0.0000 
     49 H49        10.4128   50.7206   17.2819 H         1 UNK         0.0000 
     50 H50        10.6197   52.4506   17.1073 H         1 UNK         0.0000 
     51 H51        12.6256   51.1424   16.3692 H         1 UNK         0.0000 
     52 H52        11.9787   52.1368   15.0956 H         1 UNK         0.0000 
     53 H53        11.5586   49.1255   15.4144 H         1 UNK         0.0000 
     54 H54        12.5186   49.9076   14.1850 H         1 UNK         0.0000 
     55 H55        10.2850   49.2374   13.2949 H         1 UNK         0.0000 
     56 H56        10.5164   50.9600   13.2007 H         1 UNK         0.0000 
     57 H57         8.2558   50.4962   14.0511 H         1 UNK         0.0000 
     58 H58         8.9167   49.4513   15.2952 H         1 UNK         0.0000 
@<TRIPOS>BOND
     1    1    2 1    
     2    1   33 1    
     3    1   34 1    
     4    1   35 1    
     5    2    3 1    
     6    2   36 1    
     7    2   37 1    
     8    3    4 1    
     9    3    5 1    
    10    3    6 1    
    11    5   38 1    
    12    5   39 1    
    13    5   40 1    
    14    6    7 1    
    15    6    8 1    
    16    6   23 1    
    17    8    9 2    
    18    8   10 am   BACKBONE|DICT|INTERRES
    19   10   11 am   BACKBONE|DICT|INTERRES
    20   10   41 1    
    21   11   15 1    
    22   11   12 2    
    23   12   13 1    
    24   13   14 2    
    25   14   15 1    
    26   14   16 1    
    27   16   21 ar   
    28   16   17 ar   
    29   17   18 ar   
    30   17   42 1    
    31   18   19 ar   
    32   18   43 1    
    33   19   20 ar   
    34   19   22 1    
    35   20   21 ar   
    36   20   44 1    
    37   21   45 1    
    38   23   24 am   BACKBONE|DICT|INTERRES
    39   23   46 1    
    40   24   25 2    
    41   24   26 am   BACKBONE|DICT|INTERRES
    42   26   27 1    
    43   26   47 1    
    44   27   32 1    
    45   27   28 1    
    46   27   48 1    
    47   28   29 1    
    48   28   49 1    
    49   28   50 1    
    50   29   30 1    
    51   29   51 1    
    52   29   52 1    
    53   30   31 1    
    54   30   53 1    
    55   30   54 1    
    56   31   32 1    
    57   31   55 1    
    58   31   56 1    
    59   32   57 1    
    60   32   58 1    
@<TRIPOS>SUBSTRUCTURE
     1 UNK         1 GROUP             0       ****    0 ROOT    
