@<TRIPOS>MOLECULE
ZINC09239229_4313
51   54    1
SMALL
USER_CHARGES


@<TRIPOS>ATOM
      1 C1         -4.5047   47.1177   29.7328 C.3       1 UNK         0.0000 
      2 C2         -4.4954   48.4602   28.9909 C.3       1 UNK         0.0000 
      3 C3         -4.3100   48.3017   27.4708 C.3       1 UNK         0.0000 
      4 C4         -4.2519   49.6407   26.7564 C.ar      1 UNK         0.0000 
      5 N5         -5.2725   50.4550   26.6432 N.2       1 UNK         0.0000 
      6 N6         -4.8334   51.5685   25.9369 N.2       1 UNK         0.0000 
      7 C7         -3.5688   51.3840   25.6480 C.ar      1 UNK         0.0000 
      8 N8         -3.1330   50.1750   26.1540 N.pl3     1 UNK         0.0000 
      9 N9         -1.8543   49.5920   26.0816 N.3       1 UNK         0.0000 
     10 C10        -0.7583   50.5466   25.8412 C.3       1 UNK         0.0000 
     11 H11         0.0962   49.9148   25.5897 H         1 UNK         0.0000 
     12 C12        -1.1185   51.3786   24.5606 C.3       1 UNK         0.0000 
     13 H13        -1.4351   50.7020   23.7641 H         1 UNK         0.0000 
     14 S14        -2.5576   52.4967   24.7306 S.3       1 UNK         0.0000 
     15 C15         0.0589   52.1524   23.9091 C.2       1 UNK         0.0000 
     16 O16         0.1744   53.3657   24.0814 O.2       1 UNK         0.0000 
     17 N17         0.9064   51.4243   23.1443 N.am      1 UNK         0.0000 
     18 C18         2.0189   51.8594   22.3832 C.ar      1 UNK         0.0000 
     19 C19         2.7073   53.0558   22.6611 C.ar      1 UNK         0.0000 
     20 C20         3.7911   53.4556   21.8831 C.ar      1 UNK         0.0000 
     21 C21         4.2074   52.6706   20.8157 C.ar      1 UNK         0.0000 
     22 C22         3.5467   51.4787   20.5301 C.ar      1 UNK         0.0000 
     23 C23         2.4596   51.0517   21.3089 C.ar      1 UNK         0.0000 
     24 C24         1.7751   49.7187   20.9748 C.3       1 UNK         0.0000 
     25 F25         2.3037   49.1065   19.9138 F         1 UNK         0.0000 
     26 F26         1.8887   48.8983   22.0181 F         1 UNK         0.0000 
     27 F27         0.4787   49.9148   20.7303 F         1 UNK         0.0000 
     28 C28        -0.2768   51.3379   27.0834 C.ar      1 UNK         0.0000 
     29 C29         0.9310   52.0476   27.0315 C.ar      1 UNK         0.0000 
     30 C30         1.4099   52.7305   28.1465 C.ar      1 UNK         0.0000 
     31 C31         0.6960   52.6918   29.3390 C.ar      1 UNK         0.0000 
     32 C32        -0.4946   51.9788   29.4196 C.ar      1 UNK         0.0000 
     33 C33        -0.9795   51.3066   28.2993 C.ar      1 UNK         0.0000 
     34 F34         1.1728   53.3395   30.4279 F         1 UNK         0.0000 
     35 H35        -4.6138   47.2708   30.8066 H         1 UNK         0.0000 
     36 H36        -3.5746   46.5709   29.5726 H         1 UNK         0.0000 
     37 H37        -5.3325   46.4931   29.3981 H         1 UNK         0.0000 
     38 H38        -5.4256   48.9907   29.1984 H         1 UNK         0.0000 
     39 H39        -3.6942   49.0834   29.3942 H         1 UNK         0.0000 
     40 H40        -3.4143   47.7088   27.2798 H         1 UNK         0.0000 
     41 H41        -5.1343   47.7109   27.0710 H         1 UNK         0.0000 
     42 H42        -1.6954   49.1024   26.9754 H         1 UNK         0.0000 
     43 H43         0.6816   50.4485   23.0232 H         1 UNK         0.0000 
     44 H44         2.4333   53.6920   23.4870 H         1 UNK         0.0000 
     45 H45         4.3033   54.3807   22.1063 H         1 UNK         0.0000 
     46 H46         5.0379   52.9833   20.1990 H         1 UNK         0.0000 
     47 H47         3.8993   50.8950   19.6891 H         1 UNK         0.0000 
     48 H48         1.5262   52.0685   26.1320 H         1 UNK         0.0000 
     49 H49         2.3382   53.2780   28.0917 H         1 UNK         0.0000 
     50 H50        -1.0303   51.9291   30.3566 H         1 UNK         0.0000 
     51 H51        -1.8981   50.7495   28.4082 H         1 UNK         0.0000 
@<TRIPOS>BOND
     1    1    2 1    
     2    1   35 1    
     3    1   36 1    
     4    1   37 1    
     5    2    3 1    
     6    2   38 1    
     7    2   39 1    
     8    3    4 1    
     9    3   40 1    
    10    3   41 1    
    11    4    8 ar   
    12    4    5 ar   
    13    5    6 ar   
    14    6    7 ar   
    15    7   14 1    
    16    7    8 ar   
    17    8    9 1    
    18    9   10 1    
    19    9   42 1    
    20   10   11 1    
    21   10   12 1    
    22   10   28 1    
    23   12   13 1    
    24   12   14 1    
    25   12   15 1    
    26   15   16 2    
    27   15   17 am   BACKBONE|DICT|INTERRES
    28   17   18 1    
    29   17   43 1    
    30   18   23 ar   
    31   18   19 ar   
    32   19   20 ar   
    33   19   44 1    
    34   20   21 ar   
    35   20   45 1    
    36   21   22 ar   
    37   21   46 1    
    38   22   23 ar   
    39   22   47 1    
    40   23   24 1    
    41   24   25 1    
    42   24   26 1    
    43   24   27 1    
    44   28   33 ar   
    45   28   29 ar   
    46   29   30 ar   
    47   29   48 1    
    48   30   31 ar   
    49   30   49 1    
    50   31   32 ar   
    51   31   34 1    
    52   32   33 ar   
    53   32   50 1    
    54   33   51 1    
@<TRIPOS>SUBSTRUCTURE
     1 UNK         1 GROUP             0       ****    0 ROOT    
