@<TRIPOS>MOLECULE
ZINC49546823_554
52   55    1
SMALL
USER_CHARGES


@<TRIPOS>ATOM
      1 C1         -0.9594   47.7388   21.7665 C.3       1 UNK         0.0000 
      2 O2         -1.1702   47.8196   23.1712 O.3       1 UNK         0.0000 
      3 C3         -0.8096   48.9889   23.8089 C.ar      1 UNK         0.0000 
      4 C4         -0.0349   48.8677   24.9614 C.ar      1 UNK         0.0000 
      5 C5          0.3031   49.9832   25.7239 C.ar      1 UNK         0.0000 
      6 C6         -0.1463   51.2529   25.3516 C.ar      1 UNK         0.0000 
      7 C7         -0.9341   51.3890   24.1894 C.ar      1 UNK         0.0000 
      8 C8         -1.2384   50.2646   23.3990 C.ar      1 UNK         0.0000 
      9 O9         -1.9904   50.4040   22.2530 O.3       1 UNK         0.0000 
     10 C10        -1.3233   51.0515   21.1730 C.3       1 UNK         0.0000 
     11 O11        -1.3755   52.6406   23.8109 O.3       1 UNK         0.0000 
     12 C12        -2.7742   52.8662   23.9481 C.3       1 UNK         0.0000 
     13 C13         0.1358   52.4842   26.2304 C.3       1 UNK         0.0000 
     14 H14         0.0835   53.2967   25.5253 H         1 UNK         0.0000 
     15 C15        -0.9785   52.6775   27.3148 C.3       1 UNK         0.0000 
     16 C16        -0.6697   51.8329   28.5534 C.2       1 UNK         0.0000 
     17 N17         0.4858   51.6967   29.0596 N.2       1 UNK         0.0000 
     18 C18         1.5301   52.2108   28.3437 C.ar      1 UNK         0.0000 
     19 C19         1.4807   52.5976   26.9871 C.ar      1 UNK         0.0000 
     20 N20         2.6991   53.1341   26.5901 N.pl3     1 UNK         0.0000 
     21 C21         3.5090   52.9682   27.6989 C.ar      1 UNK         0.0000 
     22 C22         2.8414   52.4179   28.7839 C.ar      1 UNK         0.0000 
     23 C23         3.4219   52.1025   30.0857 C.2       1 UNK         0.0000 
     24 O24         2.7045   52.2317   31.0999 O.co2     1 UNK         0.0000 
     25 O25         4.6015   51.6982   30.0821 O.co2     1 UNK         0.0000 
     26 C26         3.1573   53.5682   25.3077 C.ar      1 UNK         0.0000 
     27 C27         4.3748   54.2644   25.2142 C.ar      1 UNK         0.0000 
     28 C28         4.9637   54.4967   23.9763 C.ar      1 UNK         0.0000 
     29 C29         4.3148   54.0969   22.8129 C.ar      1 UNK         0.0000 
     30 C30         3.0729   53.4752   22.8797 C.ar      1 UNK         0.0000 
     31 C31         2.5033   53.2011   24.1205 C.ar      1 UNK         0.0000 
     32 Cl32        5.0533   54.3947   21.2821 Cl        1 UNK         0.0000 
     33 O33        -1.7504   51.2967   29.1923 O.3       1 UNK         0.0000 
     34 H34        -1.7995   48.1630   21.2176 H         1 UNK         0.0000 
     35 H35        -0.0413   48.2334   21.4466 H         1 UNK         0.0000 
     36 H36        -0.8958   46.6901   21.4770 H         1 UNK         0.0000 
     37 H37         0.2920   47.8896   25.2816 H         1 UNK         0.0000 
     38 H38         0.8768   49.8462   26.6296 H         1 UNK         0.0000 
     39 H39        -1.9074   50.9221   20.2623 H         1 UNK         0.0000 
     40 H40        -1.2180   52.1228   21.3436 H         1 UNK         0.0000 
     41 H41        -0.3318   50.6333   20.9913 H         1 UNK         0.0000 
     42 H42        -2.9951   53.9032   23.6948 H         1 UNK         0.0000 
     43 H43        -3.3625   52.2371   23.2804 H         1 UNK         0.0000 
     44 H44        -3.1165   52.6940   24.9682 H         1 UNK         0.0000 
     45 H45        -0.9011   53.7017   27.6793 H         1 UNK         0.0000 
     46 H46        -1.9831   52.5013   26.9332 H         1 UNK         0.0000 
     47 H47         4.5582   53.2139   27.6497 H         1 UNK         0.0000 
     48 H48         4.9116   54.5917   26.0914 H         1 UNK         0.0000 
     49 H49         5.9208   54.9945   23.9183 H         1 UNK         0.0000 
     50 H50         2.5693   53.1722   21.9727 H         1 UNK         0.0000 
     51 H51         1.5886   52.6410   24.1156 H         1 UNK         0.0000 
     52 H52        -2.4563   51.1261   28.5679 H         1 UNK         0.0000 
@<TRIPOS>BOND
     1    1    2 1    
     2    1   34 1    
     3    1   35 1    
     4    1   36 1    
     5    2    3 1    
     6    3    8 ar   
     7    3    4 ar   
     8    4    5 ar   
     9    4   37 1    
    10    5    6 ar   
    11    5   38 1    
    12    6    7 ar   
    13    6   13 1    
    14    7    8 ar   
    15    7   11 1    
    16    8    9 1    
    17    9   10 1    
    18   10   39 1    
    19   10   40 1    
    20   10   41 1    
    21   11   12 1    
    22   12   42 1    
    23   12   43 1    
    24   12   44 1    
    25   13   14 1    
    26   13   19 1    
    27   13   15 1    
    28   15   16 1    
    29   15   45 1    
    30   15   46 1    
    31   16   17 2    
    32   16   33 1    
    33   17   18 1    
    34   18   22 ar   
    35   18   19 ar   
    36   19   20 ar   
    37   20   21 ar   
    38   20   26 1    
    39   21   22 ar   
    40   21   47 1    
    41   22   23 1    
    42   23   24 2    
    43   23   25 1    
    44   26   31 ar   
    45   26   27 ar   
    46   27   28 ar   
    47   27   48 1    
    48   28   29 ar   
    49   28   49 1    
    50   29   30 ar   
    51   29   32 1    
    52   30   31 ar   
    53   30   50 1    
    54   31   51 1    
    55   33   52 1    
@<TRIPOS>SUBSTRUCTURE
     1 UNK         1 GROUP             0       ****    0 ROOT    
