@<TRIPOS>MOLECULE
ZINC67064052_1412
51   54    1
SMALL
USER_CHARGES


@<TRIPOS>ATOM
      1 C1          4.3568   52.5048   29.6027 C.ar      1 UNK         0.0000 
      2 C2          2.9753   52.6079   29.5451 C.ar      1 UNK         0.0000 
      3 C3          2.3379   53.1385   28.4165 C.ar      1 UNK         0.0000 
      4 C4          3.1321   53.5729   27.3409 C.ar      1 UNK         0.0000 
      5 C5          4.5334   53.5172   27.4223 C.ar      1 UNK         0.0000 
      6 C6          5.1395   52.9757   28.5488 C.ar      1 UNK         0.0000 
      7 O7          5.3573   53.8946   26.3812 O.3       1 UNK         0.0000 
      8 C8          4.7129   54.6675   25.3645 C.3       1 UNK         0.0000 
      9 C9          3.3110   54.0980   25.0465 C.3       1 UNK         0.0000 
     10 O10         2.5094   54.0969   26.2292 O.3       1 UNK         0.0000 
     11 C11         0.8094   53.3068   28.3873 C.3       1 UNK         0.0000 
     12 H12         0.6352   54.1149   27.6802 H         1 UNK         0.0000 
     13 C13         0.1648   53.6841   29.7328 C.3       1 UNK         0.0000 
     14 C14        -0.3277   52.3765   30.3173 C.3       1 UNK         0.0000 
     15 C15        -0.7223   51.5423   29.1044 C.3       1 UNK         0.0000 
     16 N16         0.0776   52.0871   27.9917 N.am      1 UNK         0.0000 
     17 C17         0.1812   51.4995   26.7669 C.2       1 UNK         0.0000 
     18 O18         0.6781   52.0608   25.7901 O.2       1 UNK         0.0000 
     19 N19        -0.2044   50.2099   26.7075 N.am      1 UNK         0.0000 
     20 C20        -0.0214   49.2510   25.6076 C.3       1 UNK         0.0000 
     21 C21        -0.8164   49.5397   24.3148 C.2       1 UNK         0.0000 
     22 O22        -0.8161   48.6879   23.4276 O.2       1 UNK         0.0000 
     23 N23        -1.4645   50.7118   24.1725 N.am      1 UNK         0.0000 
     24 C24        -2.2528   51.1066   23.0022 C.3       1 UNK         0.0000 
     25 C25        -1.4052   51.4076   21.7784 C.2       1 UNK         0.0000 
     26 C26        -0.0439   51.5544   21.5441 C.2       1 UNK         0.0000 
     27 C27         0.1196   51.7608   20.1749 C.2       1 UNK         0.0000 
     28 C28        -1.1511   51.7374   19.6283 C.2       1 UNK         0.0000 
     29 O29        -2.0768   51.5395   20.6016 O.3       1 UNK         0.0000 
     30 H30         4.8176   52.0720   30.4785 H         1 UNK         0.0000 
     31 H31         2.4192   52.2647   30.3959 H         1 UNK         0.0000 
     32 H32         6.2163   52.9070   28.5880 H         1 UNK         0.0000 
     33 H33         4.6109   55.6964   25.7104 H         1 UNK         0.0000 
     34 H34         5.3348   54.6763   24.4681 H         1 UNK         0.0000 
     35 H35         2.8161   54.6856   24.2737 H         1 UNK         0.0000 
     36 H36         3.4046   53.0760   24.6781 H         1 UNK         0.0000 
     37 H37        -0.6450   54.3930   29.5866 H         1 UNK         0.0000 
     38 H38         0.8620   54.1870   30.4058 H         1 UNK         0.0000 
     39 H39        -1.1382   52.4980   31.0299 H         1 UNK         0.0000 
     40 H40         0.4532   51.8641   30.8714 H         1 UNK         0.0000 
     41 H41        -1.7878   51.6597   28.9063 H         1 UNK         0.0000 
     42 H42        -0.4768   50.5098   29.3107 H         1 UNK         0.0000 
     43 H43        -0.6873   49.8130   27.5095 H         1 UNK         0.0000 
     44 H44        -0.3266   48.2727   25.9787 H         1 UNK         0.0000 
     45 H45         1.0388   49.1797   25.3620 H         1 UNK         0.0000 
     46 H46        -1.3811   51.3882   24.9179 H         1 UNK         0.0000 
     47 H47        -2.8254   51.9905   23.2806 H         1 UNK         0.0000 
     48 H48        -2.9888   50.3318   22.7876 H         1 UNK         0.0000 
     49 H49         0.7402   51.4969   22.2867 H         1 UNK         0.0000 
     50 H50         1.0519   51.9008   19.6481 H         1 UNK         0.0000 
     51 H51        -1.5267   51.8421   18.6199 H         1 UNK         0.0000 
@<TRIPOS>BOND
     1    1    6 ar   
     2    1    2 ar   
     3    1   30 1    
     4    2    3 ar   
     5    2   31 1    
     6    3    4 ar   
     7    3   11 1    
     8    4   10 1    
     9    4    5 ar   
    10    5    6 ar   
    11    5    7 1    
    12    6   32 1    
    13    7    8 1    
    14    8    9 1    
    15    8   33 1    
    16    8   34 1    
    17    9   10 1    
    18    9   35 1    
    19    9   36 1    
    20   11   12 1    
    21   11   16 1    
    22   11   13 1    
    23   13   14 1    
    24   13   37 1    
    25   13   38 1    
    26   14   15 1    
    27   14   39 1    
    28   14   40 1    
    29   15   16 1    
    30   15   41 1    
    31   15   42 1    
    32   16   17 am   BACKBONE|DICT|INTERRES
    33   17   18 2    
    34   17   19 am   BACKBONE|DICT|INTERRES
    35   19   20 1    
    36   19   43 1    
    37   20   21 1    
    38   20   44 1    
    39   20   45 1    
    40   21   22 2    
    41   21   23 am   BACKBONE|DICT|INTERRES
    42   23   24 1    
    43   23   46 1    
    44   24   25 1    
    45   24   47 1    
    46   24   48 1    
    47   25   29 1    
    48   25   26 2    
    49   26   27 1    
    50   26   49 1    
    51   27   28 2    
    52   27   50 1    
    53   28   29 1    
    54   28   51 1    
@<TRIPOS>SUBSTRUCTURE
     1 UNK         1 GROUP             0       ****    0 ROOT    
