@<TRIPOS>MOLECULE
ZINC53114657_4753
45   47    1
SMALL
USER_CHARGES


@<TRIPOS>ATOM
      1 C1         -2.0951   53.6443   23.6762 C.3       1 UNK         0.0000 
      2 C2         -2.1718   52.6667   24.8584 C.3       1 UNK         0.0000 
      3 H3         -2.1504   53.2238   25.7971 H         1 UNK         0.0000 
      4 C4         -3.4883   51.8685   24.7896 C.3       1 UNK         0.0000 
      5 C5         -3.5978   50.8852   25.9614 C.3       1 UNK         0.0000 
      6 C6         -2.3785   49.9340   26.0042 C.3       1 UNK         0.0000 
      7 C7         -0.9798   50.6370   26.0129 C.3       1 UNK         0.0000 
      8 C8         -0.9734   51.6838   24.8444 C.3       1 UNK         0.0000 
      9 C9          0.1370   49.5524   25.8697 C.3       1 UNK         0.0000 
     10 O10         0.3024   49.0284   24.5621 O.3       1 UNK         0.0000 
     11 N11        -0.9071   51.2969   27.3291 N.pl3     1 UNK         0.0000 
     12 C12         0.1859   51.9627   27.9398 C.ar      1 UNK         0.0000 
     13 C13         1.3046   52.4313   27.2314 C.ar      1 UNK         0.0000 
     14 C14         2.3430   53.0879   27.8914 C.ar      1 UNK         0.0000 
     15 C15         2.2797   53.3011   29.2757 C.ar      1 UNK         0.0000 
     16 C16         1.1887   52.8333   29.9969 C.ar      1 UNK         0.0000 
     17 C17         0.1521   52.1667   29.3406 C.ar      1 UNK         0.0000 
     18 N18        -0.8956   51.6967   30.1364 N.pl3     1 UNK         0.0000 
     19 O19         3.3082   53.8950   29.9821 O.3       1 UNK         0.0000 
     20 C20         4.2068   54.6510   29.1627 C.3       1 UNK         0.0000 
     21 C21         4.5695   53.8661   27.8777 C.3       1 UNK         0.0000 
     22 O22         3.3881   53.5657   27.1262 O.3       1 UNK         0.0000 
     23 H23        -2.1385   53.1111   22.7258 H         1 UNK         0.0000 
     24 H24        -2.9175   54.3606   23.6817 H         1 UNK         0.0000 
     25 H25        -1.1616   54.2048   23.6823 H         1 UNK         0.0000 
     26 H26        -3.5486   51.3267   23.8438 H         1 UNK         0.0000 
     27 H27        -4.3422   52.5477   24.7754 H         1 UNK         0.0000 
     28 H28        -4.5179   50.3053   25.8775 H         1 UNK         0.0000 
     29 H29        -3.6719   51.4366   26.8999 H         1 UNK         0.0000 
     30 H30        -2.4959   49.2966   26.8804 H         1 UNK         0.0000 
     31 H31        -2.4361   49.2635   25.1454 H         1 UNK         0.0000 
     32 H32        -0.9951   51.1528   23.8915 H         1 UNK         0.0000 
     33 H33        -0.0496   52.2485   24.7839 H         1 UNK         0.0000 
     34 H34         1.1037   49.9403   26.1787 H         1 UNK         0.0000 
     35 H35        -0.0667   48.7127   26.5338 H         1 UNK         0.0000 
     36 H36         1.0509   48.4224   24.5773 H         1 UNK         0.0000 
     37 H37        -1.4019   50.7371   28.0099 H         1 UNK         0.0000 
     38 H38         1.4115   52.2827   26.1735 H         1 UNK         0.0000 
     39 H39         1.1557   52.9742   31.0679 H         1 UNK         0.0000 
     40 H40        -0.8602   51.7986   31.1471 H         1 UNK         0.0000 
     41 H41        -1.5067   50.9823   29.7639 H         1 UNK         0.0000 
     42 H42         3.7185   55.5861   28.8843 H         1 UNK         0.0000 
     43 H43         5.1051   54.8978   29.7291 H         1 UNK         0.0000 
     44 H44         5.2590   54.4384   27.2572 H         1 UNK         0.0000 
     45 H45         5.0666   52.9340   28.1533 H         1 UNK         0.0000 
@<TRIPOS>BOND
     1    1    2 1    
     2    1   23 1    
     3    1   24 1    
     4    1   25 1    
     5    2    3 1    
     6    2    8 1    
     7    2    4 1    
     8    4    5 1    
     9    4   26 1    
    10    4   27 1    
    11    5    6 1    
    12    5   28 1    
    13    5   29 1    
    14    6    7 1    
    15    6   30 1    
    16    6   31 1    
    17    7    8 1    
    18    7    9 1    
    19    7   11 1    
    20    8   32 1    
    21    8   33 1    
    22    9   10 1    
    23    9   34 1    
    24    9   35 1    
    25   10   36 1    
    26   11   12 1    
    27   11   37 1    
    28   12   17 ar   
    29   12   13 ar   
    30   13   14 ar   
    31   13   38 1    
    32   14   22 1    
    33   14   15 ar   
    34   15   16 ar   
    35   15   19 1    
    36   16   17 ar   
    37   16   39 1    
    38   17   18 1    
    39   18   40 1    
    40   18   41 1    
    41   19   20 1    
    42   20   21 1    
    43   20   42 1    
    44   20   43 1    
    45   21   22 1    
    46   21   44 1    
    47   21   45 1    
@<TRIPOS>SUBSTRUCTURE
     1 UNK         1 GROUP             0       ****    0 ROOT    
