ZINC00747466_4565
                    3D
 Schrodinger Suite 2024-2.
 56 58  0  0  1  0            999 V2000
   10.5581   53.2297   14.5030 C   0  0  0  0  0  0
    9.3997   53.2981   15.4810 C   0  0  0  0  0  0
    8.3001   52.4561   15.3120 C   0  0  0  0  0  0
    7.2478   52.4979   16.2218 C   0  0  0  0  0  0
    7.2857   53.3794   17.3045 C   0  0  0  0  0  0
    8.3970   54.2214   17.4743 C   0  0  0  0  0  0
    9.4493   54.1778   16.5638 C   0  0  0  0  0  0
    6.2055   53.2963   18.2023 N   0  0  0  0  0  0
    5.9080   54.0882   19.2506 C   0  0  0  0  0  0
    6.4322   55.1758   19.4965 O   0  0  0  0  0  0
    5.0298   53.4701   20.0604 N   0  0  0  0  0  0
    4.7818   53.7467   21.4161 C   0  0  0  0  0  0
    5.7225   54.3265   22.2701 C   0  0  0  0  0  0
    5.4306   54.4944   23.6178 C   0  0  0  0  0  0
    4.2025   54.0972   24.1814 C   0  0  0  0  0  0
    3.2329   53.5506   23.2890 C   0  0  0  0  0  0
    3.5508   53.3635   21.9339 C   0  0  0  0  0  0
    1.8207   53.2206   23.6771 C   0  0  0  0  0  0
    1.0566   54.0922   24.0799 O   0  0  0  0  0  0
    1.4779   51.9290   23.5188 N   0  0  0  0  0  0
    0.1816   51.3167   23.8243 C   0  0  0  0  0  0
   -0.1831   51.3811   25.3202 C   0  0  0  0  0  0
   -0.9540   51.8194   22.9105 C   0  0  0  0  0  0
    4.0633   54.2532   25.5887 N   0  0  0  0  0  0
    5.1592   54.6557   26.4893 C   0  0  0  0  0  0
    4.7734   54.4041   27.9453 C   0  0  0  0  0  0
    3.2679   54.3462   27.8787 C   0  0  0  0  0  0
    3.0193   53.7596   26.4957 C   0  0  0  0  0  0
   10.7321   52.2010   14.1837 H   0  0  0  0  0  0
   10.3487   53.8330   13.6188 H   0  0  0  0  0  0
   11.4857   53.5755   14.9607 H   0  0  0  0  0  0
    8.2627   51.7639   14.4823 H   0  0  0  0  0  0
    6.4095   51.8284   16.0882 H   0  0  0  0  0  0
    8.4834   54.8944   18.3131 H   0  0  0  0  0  0
   10.3047   54.8212   16.7107 H   0  0  0  0  0  0
    5.6514   52.4535   18.0905 H   0  0  0  0  0  0
    4.4897   52.7175   19.6591 H   0  0  0  0  0  0
    6.6959   54.6256   21.9111 H   0  0  0  0  0  0
    6.2074   54.9342   24.2226 H   0  0  0  0  0  0
    2.8148   52.9473   21.2570 H   0  0  0  0  0  0
    2.1925   51.3009   23.1847 H   0  0  0  0  0  0
    0.3117   50.2577   23.5919 H   0  0  0  0  0  0
   -1.1491   50.9097   25.5029 H   0  0  0  0  0  0
   -0.2711   52.4087   25.6751 H   0  0  0  0  0  0
    0.5478   50.8538   25.9352 H   0  0  0  0  0  0
   -1.9008   51.3513   23.1811 H   0  0  0  0  0  0
   -1.1043   52.8953   22.9987 H   0  0  0  0  0  0
   -0.7649   51.5707   21.8660 H   0  0  0  0  0  0
    6.0270   54.0261   26.2834 H   0  0  0  0  0  0
    5.4428   55.6961   26.3395 H   0  0  0  0  0  0
    5.1884   53.4570   28.2955 H   0  0  0  0  0  0
    5.1286   55.1960   28.6079 H   0  0  0  0  0  0
    2.8125   55.3351   27.9503 H   0  0  0  0  0  0
    2.8357   53.7315   28.6689 H   0  0  0  0  0  0
    2.0402   54.0996   26.1795 H   0  0  0  0  0  0
    2.9871   52.6701   26.5022 H   0  0  0  0  0  0
  1  2  1  0  0  0
  1 29  1  0  0  0
  1 30  1  0  0  0
  1 31  1  0  0  0
  2  7  2  0  0  0
  2  3  1  0  0  0
  3  4  2  0  0  0
  3 32  1  0  0  0
  4  5  1  0  0  0
  4 33  1  0  0  0
  5  6  2  0  0  0
  5  8  1  0  0  0
  6  7  1  0  0  0
  6 34  1  0  0  0
  7 35  1  0  0  0
  8  9  1  0  0  0
  8 36  1  0  0  0
  9 10  2  0  0  0
  9 11  1  0  0  0
 11 12  1  0  0  0
 11 37  1  0  0  0
 12 17  2  0  0  0
 12 13  1  0  0  0
 13 14  2  0  0  0
 13 38  1  0  0  0
 14 15  1  0  0  0
 14 39  1  0  0  0
 15 16  2  0  0  0
 15 24  1  0  0  0
 16 17  1  0  0  0
 16 18  1  0  0  0
 17 40  1  0  0  0
 18 19  2  0  0  0
 18 20  1  0  0  0
 20 21  1  0  0  0
 20 41  1  0  0  0
 21 22  1  0  0  0
 21 23  1  0  0  0
 21 42  1  0  0  0
 22 43  1  0  0  0
 22 44  1  0  0  0
 22 45  1  0  0  0
 23 46  1  0  0  0
 23 47  1  0  0  0
 23 48  1  0  0  0
 24 28  1  0  0  0
 24 25  1  0  0  0
 25 26  1  0  0  0
 25 49  1  0  0  0
 25 50  1  0  0  0
 26 27  1  0  0  0
 26 51  1  0  0  0
 26 52  1  0  0  0
 27 28  1  0  0  0
 27 53  1  0  0  0
 27 54  1  0  0  0
 28 55  1  0  0  0
 28 56  1  0  0  0
M  END
> <i_i_glide_confnum>
24

> <i_i_glide_lignum>
4566

> <i_i_glide_posenum>
310

> <i_i_glide_rotatable_bonds>
8

> <i_m_Source_File_Index>
638

> <b_m_subgroup_collapsed>
0

> <r_i_docking_score>
-5.12771

> <r_i_glide_ecoul>
-3.33137

> <r_i_glide_eff_state_penalty>
0

> <r_i_glide_einternal>
12.978

> <r_i_glide_emodel>
-46.6419

> <r_i_glide_energy>
-37.4956

> <r_i_glide_erotb>
0.938102

> <r_i_glide_esite>
-0.103976

> <r_i_glide_evdw>
-34.1642

> <r_i_glide_gscore>
-5.12771

> <r_i_glide_hbond>
-0.137815

> <r_i_glide_ligand_efficiency>
-0.183133

> <r_i_glide_ligand_efficiency_ln>
-1.18363

> <r_i_glide_ligand_efficiency_sa>
-0.556099

> <r_i_glide_lipo>
-2.22981

> <r_i_glide_metal>
0

> <r_i_glide_rewards>
-1.38629

> <s_i_glide_gridfile>
wee1_glide-grid

> <s_m_Source_File>
wee1_decoys_glide_SP.sdf

> <s_m_Source_Path>
/Users/zhangxujun/Desktop

> <s_m_entry_id>
913

> <s_m_entry_name>
wee1_decoys_glide_SP.638

> <s_m_subgroup_title>
wee1_decoys_glide_SP

> <s_m_subgroupid>
wee1_decoys_glide_SP


$$$$
