@<TRIPOS>MOLECULE
ZINC09131709_1774
33   35    1
SMALL
USER_CHARGES


@<TRIPOS>ATOM
      1 C1          3.6615   54.0990   26.4475 C.ar      1 UNK         0.0000 
      2 C2          3.1318   53.9735   27.7291 C.ar      1 UNK         0.0000 
      3 C3          3.9470   54.1766   28.8372 C.ar      1 UNK         0.0000 
      4 C4          5.2899   54.4964   28.6724 C.ar      1 UNK         0.0000 
      5 C5          5.8285   54.6041   27.3946 C.ar      1 UNK         0.0000 
      6 C6          5.0191   54.4202   26.2643 C.ar      1 UNK         0.0000 
      7 C7          5.6116   54.6141   24.8845 C.2       1 UNK         0.0000 
      8 O8          6.6718   55.2323   24.7495 O.2       1 UNK         0.0000 
      9 N9          4.9134   54.0589   23.8665 N.am      1 UNK         0.0000 
     10 C10         5.2000   54.1365   22.5106 C.2       1 UNK         0.0000 
     11 N11         6.0702   54.9403   21.9315 N.2       1 UNK         0.0000 
     12 C12         5.9923   54.8485   20.6164 C.2       1 UNK         0.0000 
     13 C13         5.0932   53.9372   20.1189 C.2       1 UNK         0.0000 
     14 S14         4.2417   53.1699   21.4197 S.3       1 UNK         0.0000 
     15 C15         5.0884   53.8632   18.6201 C.3       1 UNK         0.0000 
     16 C16         6.3684   54.6530   18.2745 C.3       1 UNK         0.0000 
     17 C17         6.7266   55.5580   19.4895 C.3       1 UNK         0.0000 
     18 H18         6.3509   56.5716   19.3504 H         1 UNK         0.0000 
     19 C19         8.2480   55.6945   19.7452 C.2       1 UNK         0.0000 
     20 O20         8.7038   55.6963   20.8822 O.2       1 UNK         0.0000 
     21 N21         9.0668   55.8363   18.7047 N.am      1 UNK         0.0000 
     22 F22         3.4288   54.0757   30.0816 F         1 UNK         0.0000 
     23 H23         2.9921   53.9625   25.6099 H         1 UNK         0.0000 
     24 H24         2.0880   53.7310   27.8652 H         1 UNK         0.0000 
     25 H25         5.9105   54.6793   29.5352 H         1 UNK         0.0000 
     26 H26         6.8752   54.8596   27.2980 H         1 UNK         0.0000 
     27 H27         4.1546   53.4474   24.1209 H         1 UNK         0.0000 
     28 H28         4.1986   54.3236   18.1914 H         1 UNK         0.0000 
     29 H29         5.1465   52.8427   18.2412 H         1 UNK         0.0000 
     30 H30         6.2483   55.2275   17.3567 H         1 UNK         0.0000 
     31 H31         7.1618   53.9265   18.0836 H         1 UNK         0.0000 
     32 H32         8.7222   55.8265   17.7572 H         1 UNK         0.0000 
     33 H33        10.0590   55.9135   18.8913 H         1 UNK         0.0000 
@<TRIPOS>BOND
     1    1    6 ar   
     2    1    2 ar   
     3    1   23 1    
     4    2    3 ar   
     5    2   24 1    
     6    3    4 ar   
     7    3   22 1    
     8    4    5 ar   
     9    4   25 1    
    10    5    6 ar   
    11    5   26 1    
    12    6    7 1    
    13    7    8 2    
    14    7    9 am   BACKBONE|DICT|INTERRES
    15    9   10 am   BACKBONE|DICT|INTERRES
    16    9   27 1    
    17   10   14 1    
    18   10   11 2    
    19   11   12 1    
    20   12   17 1    
    21   12   13 2    
    22   13   14 1    
    23   13   15 1    
    24   15   16 1    
    25   15   28 1    
    26   15   29 1    
    27   16   17 1    
    28   16   30 1    
    29   16   31 1    
    30   17   18 1    
    31   17   19 1    
    32   19   20 2    
    33   19   21 am   BACKBONE|DICT|INTERRES
    34   21   32 1    
    35   21   33 1    
@<TRIPOS>SUBSTRUCTURE
     1 UNK         1 GROUP             0       ****    0 ROOT    
