@<TRIPOS>MOLECULE
ZINC35886246_6001
65   68    1
SMALL
USER_CHARGES


@<TRIPOS>ATOM
      1 C1          1.8808   55.2303   29.7026 C.3       1 UNK         0.0000 
      2 C2          1.9685   53.6838   29.7403 C.3       1 UNK         0.0000 
      3 H3          1.8695   53.4025   30.7910 H         1 UNK         0.0000 
      4 C4          0.7885   52.9619   29.0435 C.2       1 UNK         0.0000 
      5 O5         -0.1963   52.6510   29.7182 O.2       1 UNK         0.0000 
      6 N6          0.8980   52.7487   27.6989 N.am      1 UNK         0.0000 
      7 C7          1.7420   53.6081   26.8480 C.3       1 UNK         0.0000 
      8 C8          3.2505   53.7556   27.0319 C.ar      1 UNK         0.0000 
      9 C9          4.0205   54.1164   25.9186 C.ar      1 UNK         0.0000 
     10 C10         5.4155   54.2572   25.9927 C.ar      1 UNK         0.0000 
     11 C11         6.0375   54.0643   27.2248 C.ar      1 UNK         0.0000 
     12 C12         5.2845   53.6946   28.3377 C.ar      1 UNK         0.0000 
     13 C13         3.9022   53.5171   28.2522 C.ar      1 UNK         0.0000 
     14 O14         3.2465   53.1423   29.4012 O.3       1 UNK         0.0000 
     15 N15         6.2307   54.6123   24.8964 N.am      1 UNK         0.0000 
     16 C16         5.9538   54.4963   23.5795 C.2       1 UNK         0.0000 
     17 O17         4.9422   53.9610   23.1297 O.2       1 UNK         0.0000 
     18 N18         6.9225   55.0580   22.8255 N.am      1 UNK         0.0000 
     19 C19         6.9407   55.2971   21.4365 C.ar      1 UNK         0.0000 
     20 C20         8.1640   55.6967   20.8938 C.ar      1 UNK         0.0000 
     21 C21         8.2822   55.9737   19.5367 C.ar      1 UNK         0.0000 
     22 C22         7.1670   55.8682   18.7021 C.ar      1 UNK         0.0000 
     23 C23         5.9382   55.4756   19.2394 C.ar      1 UNK         0.0000 
     24 C24         5.8221   55.1906   20.5961 C.ar      1 UNK         0.0000 
     25 C25         7.2946   56.1854   17.2117 C.3       1 UNK         0.0000 
     26 C26         7.0046   54.9522   16.3355 C.3       1 UNK         0.0000 
     27 C27         6.4274   57.3934   16.8052 C.3       1 UNK         0.0000 
     28 C28        -0.2713   52.0881   27.0596 C.3       1 UNK         0.0000 
     29 C29         0.0075   51.2437   25.8193 C.ar      1 UNK         0.0000 
     30 C30         0.0888   49.8520   25.9275 C.ar      1 UNK         0.0000 
     31 C31         0.3044   49.0680   24.7958 C.ar      1 UNK         0.0000 
     32 C32         0.4420   49.6677   23.5456 C.ar      1 UNK         0.0000 
     33 C33         0.3315   51.0576   23.4109 C.ar      1 UNK         0.0000 
     34 C34         0.0892   51.8337   24.5521 C.ar      1 UNK         0.0000 
     35 C35         0.4873   51.7245   22.0446 C.3       1 UNK         0.0000 
     36 F36        -0.7211   51.9337   21.5159 F         1 UNK         0.0000 
     37 F37         1.1092   52.8979   22.1649 F         1 UNK         0.0000 
     38 F38         1.1950   50.9656   21.2035 F         1 UNK         0.0000 
     39 H39         0.9288   55.5881   30.0972 H         1 UNK         0.0000 
     40 H40         2.6714   55.6720   30.3047 H         1 UNK         0.0000 
     41 H41         1.9930   55.6447   28.7028 H         1 UNK         0.0000 
     42 H42         1.3055   54.6010   26.8813 H         1 UNK         0.0000 
     43 H43         1.6346   53.2820   25.8190 H         1 UNK         0.0000 
     44 H44         3.5037   54.2984   24.9887 H         1 UNK         0.0000 
     45 H45         7.1057   54.1779   27.3317 H         1 UNK         0.0000 
     46 H46         5.7811   53.5383   29.2811 H         1 UNK         0.0000 
     47 H47         7.1551   54.9318   25.1342 H         1 UNK         0.0000 
     48 H48         7.7874   55.2984   23.2906 H         1 UNK         0.0000 
     49 H49         9.0391   55.7906   21.5196 H         1 UNK         0.0000 
     50 H50         9.2423   56.2749   19.1410 H         1 UNK         0.0000 
     51 H51         5.0678   55.3877   18.6033 H         1 UNK         0.0000 
     52 H52         4.8505   54.9043   20.9673 H         1 UNK         0.0000 
     53 H53         8.3319   56.4678   17.0178 H         1 UNK         0.0000 
     54 H54         7.6365   54.1104   16.6189 H         1 UNK         0.0000 
     55 H55         7.1988   55.1636   15.2846 H         1 UNK         0.0000 
     56 H56         5.9671   54.6285   16.4184 H         1 UNK         0.0000 
     57 H57         6.6502   58.2674   17.4202 H         1 UNK         0.0000 
     58 H58         6.6056   57.6740   15.7660 H         1 UNK         0.0000 
     59 H59         5.3623   57.1824   16.9090 H         1 UNK         0.0000 
     60 H60        -0.7967   51.4375   27.7628 H         1 UNK         0.0000 
     61 H61        -0.9961   52.8576   26.7899 H         1 UNK         0.0000 
     62 H62        -0.0239   49.3631   26.8843 H         1 UNK         0.0000 
     63 H63         0.3831   47.9952   24.9002 H         1 UNK         0.0000 
     64 H64         0.6253   49.0447   22.6816 H         1 UNK         0.0000 
     65 H65        -0.0219   52.9046   24.4534 H         1 UNK         0.0000 
@<TRIPOS>BOND
     1    1    2 1    
     2    1   39 1    
     3    1   40 1    
     4    1   41 1    
     5    2    3 1    
     6    2   14 1    
     7    2    4 1    
     8    4    5 2    
     9    4    6 am   BACKBONE|DICT|INTERRES
    10    6    7 1    
    11    6   28 1    
    12    7    8 1    
    13    7   42 1    
    14    7   43 1    
    15    8   13 ar   
    16    8    9 ar   
    17    9   10 ar   
    18    9   44 1    
    19   10   11 ar   
    20   10   15 1    
    21   11   12 ar   
    22   11   45 1    
    23   12   13 ar   
    24   12   46 1    
    25   13   14 1    
    26   15   16 am   BACKBONE|DICT|INTERRES
    27   15   47 1    
    28   16   17 2    
    29   16   18 am   BACKBONE|DICT|INTERRES
    30   18   19 1    
    31   18   48 1    
    32   19   24 ar   
    33   19   20 ar   
    34   20   21 ar   
    35   20   49 1    
    36   21   22 ar   
    37   21   50 1    
    38   22   23 ar   
    39   22   25 1    
    40   23   24 ar   
    41   23   51 1    
    42   24   52 1    
    43   25   26 1    
    44   25   27 1    
    45   25   53 1    
    46   26   54 1    
    47   26   55 1    
    48   26   56 1    
    49   27   57 1    
    50   27   58 1    
    51   27   59 1    
    52   28   29 1    
    53   28   60 1    
    54   28   61 1    
    55   29   34 ar   
    56   29   30 ar   
    57   30   31 ar   
    58   30   62 1    
    59   31   32 ar   
    60   31   63 1    
    61   32   33 ar   
    62   32   64 1    
    63   33   34 ar   
    64   33   35 1    
    65   34   65 1    
    66   35   36 1    
    67   35   37 1    
    68   35   38 1    
@<TRIPOS>SUBSTRUCTURE
     1 UNK         1 GROUP             0       ****    0 ROOT    
