@<TRIPOS>MOLECULE
ZINC50321138_1859
42   44    1
SMALL
USER_CHARGES


@<TRIPOS>ATOM
      1 C1         -2.4669   48.4034   24.8513 C.3       1 UNK         0.0000 
      2 C2         -2.6765   49.8843   25.2190 C.3       1 UNK         0.0000 
      3 C3         -3.6764   50.0372   26.3779 C.3       1 UNK         0.0000 
      4 C4         -1.3607   50.5766   25.5387 C.ar      1 UNK         0.0000 
      5 C5         -0.7650   51.7475   25.0808 C.ar      1 UNK         0.0000 
      6 C6          0.4656   51.8386   25.7836 C.ar      1 UNK         0.0000 
      7 N7          0.5887   50.8567   26.6523 N.2       1 UNK         0.0000 
      8 N8         -0.4936   50.0973   26.4817 N.pl3     1 UNK         0.0000 
      9 H9         -0.7004   49.3008   27.0859 H         1 UNK         0.0000 
     10 C10         1.4485   52.8968   25.6613 C.2       1 UNK         0.0000 
     11 O11         1.6535   53.6369   26.6269 O.2       1 UNK         0.0000 
     12 N12         2.0847   53.0433   24.4640 N.am      1 UNK         0.0000 
     13 C13         1.9026   52.1660   23.2939 C.3       1 UNK         0.0000 
     14 C14         2.8196   52.7787   22.2367 C.3       1 UNK         0.0000 
     15 C15         2.8497   54.2484   22.6047 C.3       1 UNK         0.0000 
     16 C16         2.8683   54.2542   24.1386 C.3       1 UNK         0.0000 
     17 H17         2.3036   55.1205   24.4820 H         1 UNK         0.0000 
     18 C18         4.2551   54.3331   24.7769 C.ar      1 UNK         0.0000 
     19 C19         4.6553   54.6620   26.0699 C.ar      1 UNK         0.0000 
     20 C20         6.0519   54.6287   26.1399 C.ar      1 UNK         0.0000 
     21 C21         6.5106   54.2857   24.8815 C.ar      1 UNK         0.0000 
     22 N22         5.4175   54.0974   24.0787 N.pl3     1 UNK         0.0000 
     23 H23         5.4539   53.8346   23.1051 H         1 UNK         0.0000 
     24 N24        -1.2935   52.6169   24.1627 N.pl3     1 UNK         0.0000 
     25 H25        -1.7836   48.2976   24.0074 H         1 UNK         0.0000 
     26 H26        -3.4089   47.9304   24.5724 H         1 UNK         0.0000 
     27 H27        -2.0536   47.8401   25.6899 H         1 UNK         0.0000 
     28 H28        -3.1190   50.3701   24.3487 H         1 UNK         0.0000 
     29 H29        -3.8693   51.0878   26.6005 H         1 UNK         0.0000 
     30 H30        -4.6334   49.5709   26.1416 H         1 UNK         0.0000 
     31 H31        -3.2990   49.5730   27.2906 H         1 UNK         0.0000 
     32 H32         2.1753   51.1313   23.5080 H         1 UNK         0.0000 
     33 H33         0.8782   52.2131   22.9294 H         1 UNK         0.0000 
     34 H34         3.8221   52.3584   22.3108 H         1 UNK         0.0000 
     35 H35         2.4699   52.5934   21.2195 H         1 UNK         0.0000 
     36 H36         3.6734   54.7931   22.1410 H         1 UNK         0.0000 
     37 H37         1.9260   54.7141   22.2646 H         1 UNK         0.0000 
     38 H38         3.9886   54.8964   26.8861 H         1 UNK         0.0000 
     39 H39         6.6513   54.8291   27.0164 H         1 UNK         0.0000 
     40 H40         7.5043   54.1422   24.4829 H         1 UNK         0.0000 
     41 H41        -0.8194   53.4740   23.9213 H         1 UNK         0.0000 
     42 H42        -2.1994   52.4576   23.7479 H         1 UNK         0.0000 
@<TRIPOS>BOND
     1    1    2 1    
     2    1   25 1    
     3    1   26 1    
     4    1   27 1    
     5    2    3 1    
     6    2    4 1    
     7    2   28 1    
     8    3   29 1    
     9    3   30 1    
    10    3   31 1    
    11    4    8 ar   
    12    4    5 ar   
    13    5    6 ar   
    14    5   24 1    
    15    6    7 ar   
    16    6   10 1    
    17    7    8 ar   
    18    8    9 1    
    19   10   11 2    
    20   10   12 am   BACKBONE|DICT|INTERRES
    21   12   16 1    
    22   12   13 1    
    23   13   14 1    
    24   13   32 1    
    25   13   33 1    
    26   14   15 1    
    27   14   34 1    
    28   14   35 1    
    29   15   16 1    
    30   15   36 1    
    31   15   37 1    
    32   16   17 1    
    33   16   18 1    
    34   18   22 ar   
    35   18   19 ar   
    36   19   20 ar   
    37   19   38 1    
    38   20   21 ar   
    39   20   39 1    
    40   21   22 ar   
    41   21   40 1    
    42   22   23 1    
    43   24   41 1    
    44   24   42 1    
@<TRIPOS>SUBSTRUCTURE
     1 UNK         1 GROUP             0       ****    0 ROOT    
