@<TRIPOS>MOLECULE
ZINC06781480_3591
40   42    1
SMALL
USER_CHARGES


@<TRIPOS>ATOM
      1 C1          4.5256   51.4382   21.1891 C.3       1 UNK         0.0000 
      2 C2          3.6394   52.6836   20.9898 C.3       1 UNK         0.0000 
      3 C3          4.5776   53.9033   20.7862 C.3       1 UNK         0.0000 
      4 C4          2.8196   52.4920   19.6955 C.3       1 UNK         0.0000 
      5 C5          2.7229   52.8733   22.2174 C.ar      1 UNK         0.0000 
      6 C6          1.8674   52.0284   22.9418 C.ar      1 UNK         0.0000 
      7 C7          1.3854   52.8370   23.9885 C.ar      1 UNK         0.0000 
      8 N8          1.8166   54.0703   23.9490 N.2       1 UNK         0.0000 
      9 N9          2.6143   54.0765   22.8801 N.pl3     1 UNK         0.0000 
     10 H10         3.0989   54.9126   22.5904 H         1 UNK         0.0000 
     11 O11         0.5463   52.4329   24.9999 O.3       1 UNK         0.0000 
     12 C12         0.1670   51.1254   24.9544 C.2       1 UNK         0.0000 
     13 C13         0.4987   50.2236   23.9995 C.2       1 UNK         0.0000 
     14 C14         1.3997   50.5730   22.8014 C.3       1 UNK         0.0000 
     15 H15         2.2772   49.9311   22.8897 H         1 UNK         0.0000 
     16 C16         0.7462   50.2626   21.4505 C.ar      1 UNK         0.0000 
     17 C17        -0.3586   51.0027   20.9978 C.ar      1 UNK         0.0000 
     18 C18        -0.9347   50.7233   19.7587 C.ar      1 UNK         0.0000 
     19 C19        -0.4227   49.7022   18.9600 C.ar      1 UNK         0.0000 
     20 C20         0.6665   48.9562   19.4031 C.ar      1 UNK         0.0000 
     21 C21         1.2448   49.2313   20.6413 C.ar      1 UNK         0.0000 
     22 F22         2.3037   48.4960   21.0430 F         1 UNK         0.0000 
     23 F23        -0.8790   52.0016   21.7487 F         1 UNK         0.0000 
     24 C24        -0.0268   48.8959   24.0698 C.1       1 UNK         0.0000 
     25 N25        -0.4958   47.8377   24.0945 N.1       1 UNK         0.0000 
     26 N26        -0.6142   50.8886   26.0540 N.pl3     1 UNK         0.0000 
     27 H27         5.1937   51.2930   20.3406 H         1 UNK         0.0000 
     28 H28         3.9298   50.5309   21.2831 H         1 UNK         0.0000 
     29 H29         5.1451   51.5235   22.0814 H         1 UNK         0.0000 
     30 H30         4.0145   54.8110   20.5686 H         1 UNK         0.0000 
     31 H31         5.1813   54.0991   21.6737 H         1 UNK         0.0000 
     32 H32         5.2660   53.7491   19.9548 H         1 UNK         0.0000 
     33 H33         2.1089   53.2966   19.5366 H         1 UNK         0.0000 
     34 H34         3.4622   52.4512   18.8143 H         1 UNK         0.0000 
     35 H35         2.2496   51.5688   19.6997 H         1 UNK         0.0000 
     36 H36        -1.7801   51.3009   19.4166 H         1 UNK         0.0000 
     37 H37        -0.8646   49.4915   17.9966 H         1 UNK         0.0000 
     38 H38         1.0760   48.1701   18.7852 H         1 UNK         0.0000 
     39 H39        -0.9155   49.9501   26.2841 H         1 UNK         0.0000 
     40 H40        -0.6856   51.5823   26.7844 H         1 UNK         0.0000 
@<TRIPOS>BOND
     1    1    2 1    
     2    1   27 1    
     3    1   28 1    
     4    1   29 1    
     5    2    3 1    
     6    2    4 1    
     7    2    5 1    
     8    3   30 1    
     9    3   31 1    
    10    3   32 1    
    11    4   33 1    
    12    4   34 1    
    13    4   35 1    
    14    5    9 ar   
    15    5    6 ar   
    16    6   14 1    
    17    6    7 ar   
    18    7    8 ar   
    19    7   11 1    
    20    8    9 ar   
    21    9   10 1    
    22   11   12 1    
    23   12   13 2    
    24   12   26 1    
    25   13   14 1    
    26   13   24 1    
    27   14   15 1    
    28   14   16 1    
    29   16   21 ar   
    30   16   17 ar   
    31   17   18 ar   
    32   17   23 1    
    33   18   19 ar   
    34   18   36 1    
    35   19   20 ar   
    36   19   37 1    
    37   20   21 ar   
    38   20   38 1    
    39   21   22 1    
    40   24   25 3    
    41   26   39 1    
    42   26   40 1    
@<TRIPOS>SUBSTRUCTURE
     1 UNK         1 GROUP             0       ****    0 ROOT    
