@<TRIPOS>MOLECULE
ZINC12657694_64
72   76    1
SMALL
USER_CHARGES


@<TRIPOS>ATOM
      1 C1         -4.6899   50.2503   29.6076 C.3       1 UNK         0.0000 
      2 C2         -4.6958   51.1349   28.3588 C.3       1 UNK         0.0000 
      3 O3         -3.9760   50.4799   27.3285 O.3       1 UNK         0.0000 
      4 C4         -3.7015   51.1031   26.1591 C.2       1 UNK         0.0000 
      5 O5         -4.0039   52.2679   25.8811 O.2       1 UNK         0.0000 
      6 C6         -2.9122   50.2168   25.1708 C.3       1 UNK         0.0000 
      7 C7         -1.5008   50.6416   24.7513 C.3       1 UNK         0.0000 
      8 O8         -2.6049   50.7367   23.8918 O.3       1 UNK         0.0000 
      9 C9         -0.8873   51.9919   25.1702 C.3       1 UNK         0.0000 
     10 C10         0.6059   51.9218   24.8369 C.3       1 UNK         0.0000 
     11 C11         0.8186   50.6825   23.9396 C.3       1 UNK         0.0000 
     12 H12         1.7811   50.2252   24.1803 H         1 UNK         0.0000 
     13 C13        -0.3111   49.6929   24.3935 C.3       1 UNK         0.0000 
     14 C14        -0.5644   48.6112   23.3108 C.3       1 UNK         0.0000 
     15 C15        -0.6853   49.1636   21.8899 C.3       1 UNK         0.0000 
     16 C16         0.6398   49.8357   21.4706 C.3       1 UNK         0.0000 
     17 H17         1.4546   49.1336   21.6677 H         1 UNK         0.0000 
     18 C18         0.8869   51.0526   22.4139 C.3       1 UNK         0.0000 
     19 H19         0.1323   51.8148   22.2215 H         1 UNK         0.0000 
     20 C20         2.2912   51.6182   22.0878 C.3       1 UNK         0.0000 
     21 C21         2.3738   52.0876   20.6401 C.3       1 UNK         0.0000 
     22 C22         2.0978   50.9264   19.6504 C.3       1 UNK         0.0000 
     23 H23         2.8770   50.1784   19.8114 H         1 UNK         0.0000 
     24 C24         0.7177   50.2090   19.9289 C.3       1 UNK         0.0000 
     25 C25        -0.4263   51.1835   19.4883 C.3       1 UNK         0.0000 
     26 C26        -0.3025   51.6565   18.0235 C.3       1 UNK         0.0000 
     27 C27         1.0535   52.3612   17.7964 C.3       1 UNK         0.0000 
     28 H28         1.0631   53.2406   18.4401 H         1 UNK         0.0000 
     29 C29         2.2165   51.4141   18.1783 C.3       1 UNK         0.0000 
     30 O30         1.1161   52.7891   16.4365 O.3       1 UNK         0.0000 
     31 C31         1.8823   53.8168   15.9706 C.2       1 UNK         0.0000 
     32 O32         1.8861   54.1565   14.7921 O.2       1 UNK         0.0000 
     33 C33         2.7534   54.5689   16.9820 C.3       1 UNK         0.0000 
     34 C34         0.6448   48.8848   19.1102 C.3       1 UNK         0.0000 
     35 C35         0.1548   48.9693   25.6825 C.3       1 UNK         0.0000 
     36 C36        -3.3438   48.7370   25.0661 C.2       1 UNK         0.0000 
     37 O37        -3.9231   48.3194   24.0640 O.2       1 UNK         0.0000 
     38 N38        -3.0873   47.9139   26.0817 N.am      1 UNK         0.0000 
     39 H39        -5.2333   50.7194   30.4287 H         1 UNK         0.0000 
     40 H40        -5.1585   49.2864   29.4110 H         1 UNK         0.0000 
     41 H41        -3.6731   50.0587   29.9498 H         1 UNK         0.0000 
     42 H42        -4.2333   52.0959   28.5884 H         1 UNK         0.0000 
     43 H43        -5.7219   51.3261   28.0334 H         1 UNK         0.0000 
     44 H44        -1.0173   52.1718   26.2383 H         1 UNK         0.0000 
     45 H45        -1.3647   52.8130   24.6338 H         1 UNK         0.0000 
     46 H46         1.1696   51.7918   25.7640 H         1 UNK         0.0000 
     47 H47         0.9763   52.8470   24.3937 H         1 UNK         0.0000 
     48 H48        -1.3859   47.9459   23.5482 H         1 UNK         0.0000 
     49 H49         0.3043   47.9610   23.3294 H         1 UNK         0.0000 
     50 H50        -1.5377   49.8309   21.7716 H         1 UNK         0.0000 
     51 H51        -0.9086   48.3170   21.2396 H         1 UNK         0.0000 
     52 H52         3.0599   50.8694   22.2909 H         1 UNK         0.0000 
     53 H53         2.5331   52.4477   22.7530 H         1 UNK         0.0000 
     54 H54         3.3544   52.5197   20.4370 H         1 UNK         0.0000 
     55 H55         1.6717   52.9035   20.4865 H         1 UNK         0.0000 
     56 H56        -0.4655   52.0612   20.1333 H         1 UNK         0.0000 
     57 H57        -1.3931   50.6976   19.6175 H         1 UNK         0.0000 
     58 H58        -1.1188   52.3437   17.8062 H         1 UNK         0.0000 
     59 H59        -0.3990   50.7962   17.3581 H         1 UNK         0.0000 
     60 H60         2.2447   50.5598   17.5044 H         1 UNK         0.0000 
     61 H61         3.1740   51.9195   18.0666 H         1 UNK         0.0000 
     62 H62         2.1685   54.9159   17.8344 H         1 UNK         0.0000 
     63 H63         3.1934   55.4456   16.5076 H         1 UNK         0.0000 
     64 H64         3.5656   53.9350   17.3365 H         1 UNK         0.0000 
     65 H65         1.3397   48.1374   19.4913 H         1 UNK         0.0000 
     66 H66        -0.3514   48.4435   19.1328 H         1 UNK         0.0000 
     67 H67         0.8810   49.0095   18.0556 H         1 UNK         0.0000 
     68 H68         0.2377   49.6463   26.5369 H         1 UNK         0.0000 
     69 H69        -0.5228   48.1711   25.9812 H         1 UNK         0.0000 
     70 H70         1.1274   48.4976   25.5574 H         1 UNK         0.0000 
     71 H71        -2.5871   48.2208   26.9223 H         1 UNK         0.0000 
     72 H72        -3.4003   46.9602   26.0254 H         1 UNK         0.0000 
@<TRIPOS>BOND
     1    1    2 1    
     2    1   39 1    
     3    1   40 1    
     4    1   41 1    
     5    2    3 1    
     6    2   42 1    
     7    2   43 1    
     8    3    4 1    
     9    4    5 2    
    10    4    6 1    
    11    6    8 1    
    12    6    7 1    
    13    6   36 1    
    14    7   13 1    
    15    7    8 1    
    16    7    9 1    
    17    9   10 1    
    18    9   44 1    
    19    9   45 1    
    20   10   11 1    
    21   10   46 1    
    22   10   47 1    
    23   11   12 1    
    24   11   18 1    
    25   11   13 1    
    26   13   14 1    
    27   13   35 1    
    28   14   15 1    
    29   14   48 1    
    30   14   49 1    
    31   15   16 1    
    32   15   50 1    
    33   15   51 1    
    34   16   17 1    
    35   16   24 1    
    36   16   18 1    
    37   18   19 1    
    38   18   20 1    
    39   20   21 1    
    40   20   52 1    
    41   20   53 1    
    42   21   22 1    
    43   21   54 1    
    44   21   55 1    
    45   22   23 1    
    46   22   29 1    
    47   22   24 1    
    48   24   25 1    
    49   24   34 1    
    50   25   26 1    
    51   25   56 1    
    52   25   57 1    
    53   26   27 1    
    54   26   58 1    
    55   26   59 1    
    56   27   28 1    
    57   27   29 1    
    58   27   30 1    
    59   29   60 1    
    60   29   61 1    
    61   30   31 1    
    62   31   32 2    
    63   31   33 1    
    64   33   62 1    
    65   33   63 1    
    66   33   64 1    
    67   34   65 1    
    68   34   66 1    
    69   34   67 1    
    70   35   68 1    
    71   35   69 1    
    72   35   70 1    
    73   36   37 2    
    74   36   38 am   BACKBONE|DICT|INTERRES
    75   38   71 1    
    76   38   72 1    
@<TRIPOS>SUBSTRUCTURE
     1 UNK         1 GROUP             0       ****    0 ROOT    
