@<TRIPOS>MOLECULE
ZINC39639306_1279
69   72    1
SMALL
USER_CHARGES


@<TRIPOS>ATOM
      1 C1         -7.4215   50.3956   29.1610 C.3       1 UNK         0.0000 
      2 C2         -5.9598   50.6891   28.8795 C.ar      1 UNK         0.0000 
      3 C3         -5.6025   51.4221   27.7492 C.ar      1 UNK         0.0000 
      4 C4         -4.2611   51.6963   27.4934 C.ar      1 UNK         0.0000 
      5 C5         -3.2536   51.2685   28.3765 C.ar      1 UNK         0.0000 
      6 C6         -3.6374   50.5071   29.4902 C.ar      1 UNK         0.0000 
      7 C7         -4.9748   50.2293   29.7499 C.ar      1 UNK         0.0000 
      8 C8         -1.7472   51.5088   28.0882 C.3       1 UNK         0.0000 
      9 H9         -1.3673   50.4965   28.0108 H         1 UNK         0.0000 
     10 C10        -0.9152   52.1430   29.2319 C.3       1 UNK         0.0000 
     11 N11        -1.5079   52.0860   26.7572 N.am      1 UNK         0.0000 
     12 C12        -0.3666   52.0373   26.0535 C.2       1 UNK         0.0000 
     13 O13         0.7485   51.9976   26.5728 O.2       1 UNK         0.0000 
     14 C14        -0.5555   52.0516   24.5204 C.3       1 UNK         0.0000 
     15 H15        -1.4737   52.6017   24.3062 H         1 UNK         0.0000 
     16 C16         0.6379   52.7538   23.8282 C.3       1 UNK         0.0000 
     17 N17         0.6496   52.1438   22.4942 N.am      1 UNK         0.0000 
     18 C18        -0.3346   51.0679   22.3744 C.3       1 UNK         0.0000 
     19 C19        -0.6223   50.6487   23.8280 C.3       1 UNK         0.0000 
     20 C20         0.4838   49.6125   24.2148 C.3       1 UNK         0.0000 
     21 C21         0.2831   48.9151   25.5745 C.3       1 UNK         0.0000 
     22 N22        -1.1340   48.3142   25.6816 N.4       1 UNK         0.0000 
     23 C23        -2.3010   49.2039   25.2020 C.3       1 UNK         0.0000 
     24 C24        -1.9676   49.8714   23.8533 C.3       1 UNK         0.0000 
     25 C25         1.5961   52.3303   21.5398 C.2       1 UNK         0.0000 
     26 O26         1.5630   51.6961   20.4820 O.2       1 UNK         0.0000 
     27 C27         2.7231   53.3671   21.7705 C.3       1 UNK         0.0000 
     28 H28         2.2274   54.2911   22.0727 H         1 UNK         0.0000 
     29 C29         3.5990   53.6065   20.5107 C.3       1 UNK         0.0000 
     30 O30         3.4897   52.8988   22.8790 O.3       1 UNK         0.0000 
     31 C31         4.4014   53.7477   23.4575 C.ar      1 UNK         0.0000 
     32 C32         4.1228   54.2881   24.7155 C.ar      1 UNK         0.0000 
     33 C33         5.0764   55.0764   25.3595 C.ar      1 UNK         0.0000 
     34 C34         6.2961   55.3205   24.7364 C.ar      1 UNK         0.0000 
     35 C35         6.5734   54.7904   23.4791 C.ar      1 UNK         0.0000 
     36 C36         5.6356   53.9825   22.8515 C.ar      1 UNK         0.0000 
     37 H37        -7.5872   50.1391   30.2094 H         1 UNK         0.0000 
     38 H38        -8.0334   51.2733   28.9487 H         1 UNK         0.0000 
     39 H39        -7.7732   49.5770   28.5324 H         1 UNK         0.0000 
     40 H40        -6.3606   51.7758   27.0648 H         1 UNK         0.0000 
     41 H41        -4.0306   52.2630   26.6045 H         1 UNK         0.0000 
     42 H42        -2.8962   50.1248   30.1730 H         1 UNK         0.0000 
     43 H43        -5.2321   49.6453   30.6225 H         1 UNK         0.0000 
     44 H44        -1.2579   51.8240   30.2148 H         1 UNK         0.0000 
     45 H45         0.1275   51.8334   29.1584 H         1 UNK         0.0000 
     46 H46        -0.8956   53.2325   29.2081 H         1 UNK         0.0000 
     47 H47        -2.3465   52.2834   26.2365 H         1 UNK         0.0000 
     48 H48         1.5699   52.4525   24.3067 H         1 UNK         0.0000 
     49 H49         0.5407   53.8388   23.8195 H         1 UNK         0.0000 
     50 H50        -1.2571   51.4895   21.9717 H         1 UNK         0.0000 
     51 H51        -0.0503   50.2165   21.7509 H         1 UNK         0.0000 
     52 H52         0.5352   48.8291   23.4571 H         1 UNK         0.0000 
     53 H53         1.4764   50.0657   24.1812 H         1 UNK         0.0000 
     54 H54         0.9912   48.0976   25.6809 H         1 UNK         0.0000 
     55 H55         0.4009   49.5511   26.4468 H         1 UNK         0.0000 
     56 H56        -1.1521   47.4328   25.1900 H         1 UNK         0.0000 
     57 H57        -3.1700   48.5487   25.1366 H         1 UNK         0.0000 
     58 H58        -2.4880   49.9072   26.0016 H         1 UNK         0.0000 
     59 H59        -2.7862   50.5213   23.5465 H         1 UNK         0.0000 
     60 H60        -1.9457   49.0879   23.0948 H         1 UNK         0.0000 
     61 H61         3.0082   53.6969   19.5983 H         1 UNK         0.0000 
     62 H62         4.1845   54.5197   20.5970 H         1 UNK         0.0000 
     63 H63         4.2845   52.7738   20.3467 H         1 UNK         0.0000 
     64 H64         3.1772   54.0838   25.1958 H         1 UNK         0.0000 
     65 H65         4.8667   55.5080   26.3282 H         1 UNK         0.0000 
     66 H66         7.0296   55.9518   25.2152 H         1 UNK         0.0000 
     67 H67         7.5080   54.9984   22.9834 H         1 UNK         0.0000 
     68 H68         5.8738   53.5372   21.8999 H         1 UNK         0.0000 
     69 H69        -1.2955   48.0985   26.6714 H         1 UNK         0.0000 
@<TRIPOS>BOND
     1    1    2 1    
     2    1   37 1    
     3    1   38 1    
     4    1   39 1    
     5    2    7 ar   
     6    2    3 ar   
     7    3    4 ar   
     8    3   40 1    
     9    4    5 ar   
    10    4   41 1    
    11    5    6 ar   
    12    5    8 1    
    13    6    7 ar   
    14    6   42 1    
    15    7   43 1    
    16    8    9 1    
    17    8   10 1    
    18    8   11 1    
    19   10   44 1    
    20   10   45 1    
    21   10   46 1    
    22   11   12 am   BACKBONE|DICT|INTERRES
    23   11   47 1    
    24   12   13 2    
    25   12   14 1    
    26   14   15 1    
    27   14   19 1    
    28   14   16 1    
    29   16   17 1    
    30   16   48 1    
    31   16   49 1    
    32   17   18 1    
    33   17   25 am   BACKBONE|DICT|INTERRES
    34   18   19 1    
    35   18   50 1    
    36   18   51 1    
    37   19   24 1    
    38   19   20 1    
    39   20   21 1    
    40   20   52 1    
    41   20   53 1    
    42   21   22 1    
    43   21   54 1    
    44   21   55 1    
    45   22   23 1    
    46   22   56 1    
    47   22   69 1    
    48   23   24 1    
    49   23   57 1    
    50   23   58 1    
    51   24   59 1    
    52   24   60 1    
    53   25   26 2    
    54   25   27 1    
    55   27   28 1    
    56   27   29 1    
    57   27   30 1    
    58   29   61 1    
    59   29   62 1    
    60   29   63 1    
    61   30   31 1    
    62   31   36 ar   
    63   31   32 ar   
    64   32   33 ar   
    65   32   64 1    
    66   33   34 ar   
    67   33   65 1    
    68   34   35 ar   
    69   34   66 1    
    70   35   36 ar   
    71   35   67 1    
    72   36   68 1    
@<TRIPOS>SUBSTRUCTURE
     1 UNK         1 GROUP             0       ****    0 ROOT    
