@<TRIPOS>MOLECULE
ZINC39560770_1238
67   72    1
SMALL
USER_CHARGES


@<TRIPOS>ATOM
      1 C1         -3.4020   51.5838   18.5211 C.3       1 UNK         0.0000 
      2 O2         -2.2574   50.8825   18.9785 O.3       1 UNK         0.0000 
      3 C3         -1.6815   51.2001   20.1590 C.2       1 UNK         0.0000 
      4 O4         -2.0828   52.0776   20.9312 O.2       1 UNK         0.0000 
      5 C5         -0.4647   50.2824   20.4838 C.3       1 UNK         0.0000 
      6 H6         -0.6873   49.3274   20.0077 H         1 UNK         0.0000 
      7 C7         -0.3189   49.9622   21.9982 C.3       1 UNK         0.0000 
      8 C8          0.4071   51.0582   22.7664 C.2       1 UNK         0.0000 
      9 C9          0.4954   51.3525   24.0633 C.2       1 UNK         0.0000 
     10 C10        -0.0998   50.6581   25.3001 C.3       1 UNK         0.0000 
     11 C11         0.3204   51.4035   26.5752 C.2       1 UNK         0.0000 
     12 C12         1.1033   52.5030   26.5709 C.2       1 UNK         0.0000 
     13 C13         1.6119   53.0755   25.3343 C.2       1 UNK         0.0000 
     14 C14         1.3245   52.5291   24.1369 C.2       1 UNK         0.0000 
     15 N15         1.7010   52.9243   22.9038 N.2       1 UNK         0.0000 
     16 C16         1.1705   52.0825   22.1028 C.2       1 UNK         0.0000 
     17 C17         1.2564   52.1022   20.5535 C.3       1 UNK         0.0000 
     18 H18         0.5549   52.8707   20.2246 H         1 UNK         0.0000 
     19 N19         0.8262   50.8037   19.9458 N.3       1 UNK         0.0000 
     20 C20         0.9524   50.7248   18.4691 C.3       1 UNK         0.0000 
     21 H21         0.2163   51.4038   18.0351 H         1 UNK         0.0000 
     22 C22         2.3428   51.1972   17.9926 C.3       1 UNK         0.0000 
     23 C23         2.6859   52.6021   18.4998 C.3       1 UNK         0.0000 
     24 H24         1.9599   53.3171   18.1074 H         1 UNK         0.0000 
     25 C25         2.6566   52.5344   20.0400 C.3       1 UNK         0.0000 
     26 N26         4.1105   52.9119   18.0037 N.4       1 UNK         0.0000 
     27 C27         4.5704   54.3854   18.1150 C.3       1 UNK         0.0000 
     28 C28         3.8316   55.2749   17.0805 C.3       1 UNK         0.0000 
     29 C29         4.3195   56.7161   16.9868 C.ar      1 UNK         0.0000 
     30 C30         3.5814   57.8625   16.6874 C.ar      1 UNK         0.0000 
     31 N31         4.4784   58.8967   16.6556 N.pl3     1 UNK         0.0000 
     32 H32         4.3005   59.8896   16.4817 H         1 UNK         0.0000 
     33 C33         5.6833   58.3266   16.9569 C.ar      1 UNK         0.0000 
     34 N34         5.6007   57.0301   17.1495 N.2       1 UNK         0.0000 
     35 C35         0.6649   49.3360   17.8891 C.ar      1 UNK         0.0000 
     36 C36         1.3686   48.2143   18.3476 C.ar      1 UNK         0.0000 
     37 C37         1.1093   46.9530   17.8129 C.ar      1 UNK         0.0000 
     38 C38         0.1444   46.8003   16.8176 C.ar      1 UNK         0.0000 
     39 C39        -0.5599   47.9117   16.3545 C.ar      1 UNK         0.0000 
     40 C40        -0.2991   49.1751   16.8868 C.ar      1 UNK         0.0000 
     41 Cl41       -1.7534   47.7262   15.1217 Cl        1 UNK         0.0000 
     42 H42        -3.2015   52.6526   18.4317 H         1 UNK         0.0000 
     43 H43        -3.6935   51.2109   17.5382 H         1 UNK         0.0000 
     44 H44        -4.2436   51.4446   19.2028 H         1 UNK         0.0000 
     45 H45        -1.2855   49.7388   22.4509 H         1 UNK         0.0000 
     46 H46         0.2580   49.0419   22.0873 H         1 UNK         0.0000 
     47 H47        -1.1877   50.6415   25.2338 H         1 UNK         0.0000 
     48 H48         0.2477   49.6251   25.3567 H         1 UNK         0.0000 
     49 H49        -0.0255   51.0248   27.5276 H         1 UNK         0.0000 
     50 H50         1.3575   52.9728   27.5096 H         1 UNK         0.0000 
     51 H51         2.2339   53.9572   25.3801 H         1 UNK         0.0000 
     52 H52         3.1004   50.4957   18.3513 H         1 UNK         0.0000 
     53 H53         2.4347   51.1407   16.9066 H         1 UNK         0.0000 
     54 H54         2.9750   53.4843   20.4712 H         1 UNK         0.0000 
     55 H55         3.4030   51.8180   20.3905 H         1 UNK         0.0000 
     56 H56         4.7443   52.2790   18.4818 H         1 UNK         0.0000 
     57 H57         4.4239   54.7078   19.1473 H         1 UNK         0.0000 
     58 H58         5.6442   54.3464   17.9185 H         1 UNK         0.0000 
     59 H59         3.9220   54.8153   16.0955 H         1 UNK         0.0000 
     60 H60         2.7621   55.2729   17.2954 H         1 UNK         0.0000 
     61 H61         2.5325   58.0316   16.4899 H         1 UNK         0.0000 
     62 H62         6.5648   58.9499   17.0206 H         1 UNK         0.0000 
     63 H63         2.1229   48.3269   19.1140 H         1 UNK         0.0000 
     64 H64         1.6603   46.0970   18.1703 H         1 UNK         0.0000 
     65 H65        -0.0527   45.8235   16.4007 H         1 UNK         0.0000 
     66 H66        -0.8502   50.0281   16.5192 H         1 UNK         0.0000 
     67 H67         4.1839   52.6085   17.0428 H         1 UNK         0.0000 
@<TRIPOS>BOND
     1    1    2 1    
     2    1   42 1    
     3    1   43 1    
     4    1   44 1    
     5    2    3 1    
     6    3    4 2    
     7    3    5 1    
     8    5    6 1    
     9    5   19 1    
    10    5    7 1    
    11    7    8 1    
    12    7   45 1    
    13    7   46 1    
    14    8   16 1    
    15    8    9 2    
    16    9   14 1    
    17    9   10 1    
    18   10   11 1    
    19   10   47 1    
    20   10   48 1    
    21   11   12 2    
    22   11   49 1    
    23   12   13 1    
    24   12   50 1    
    25   13   14 2    
    26   13   51 1    
    27   14   15 1    
    28   15   16 2    
    29   16   17 1    
    30   17   18 1    
    31   17   25 1    
    32   17   19 1    
    33   19   20 1    
    34   20   21 1    
    35   20   22 1    
    36   20   35 1    
    37   22   23 1    
    38   22   52 1    
    39   22   53 1    
    40   23   24 1    
    41   23   25 1    
    42   23   26 1    
    43   25   54 1    
    44   25   55 1    
    45   26   27 1    
    46   26   56 1    
    47   26   67 1    
    48   27   28 1    
    49   27   57 1    
    50   27   58 1    
    51   28   29 1    
    52   28   59 1    
    53   28   60 1    
    54   29   34 ar   
    55   29   30 ar   
    56   30   31 ar   
    57   30   61 1    
    58   31   32 1    
    59   31   33 ar   
    60   33   34 ar   
    61   33   62 1    
    62   35   40 ar   
    63   35   36 ar   
    64   36   37 ar   
    65   36   63 1    
    66   37   38 ar   
    67   37   64 1    
    68   38   39 ar   
    69   38   65 1    
    70   39   40 ar   
    71   39   41 1    
    72   40   66 1    
@<TRIPOS>SUBSTRUCTURE
     1 UNK         1 GROUP             0       ****    0 ROOT    
