ZINC13347200_5888
                    3D
 Schrodinger Suite 2024-2.
 48 50  0  0  1  0            999 V2000
    1.1729   53.0140   24.9379 C   0  0  0  0  0  0
    1.6589   52.8967   26.3792 C   0  0  0  0  0  0
    0.8636   52.2132   27.3041 C   0  0  0  0  0  0
    1.2760   52.0715   28.6274 C   0  0  0  0  0  0
    2.4871   52.6273   29.0600 C   0  0  0  0  0  0
    3.2777   53.3178   28.1324 C   0  0  0  0  0  0
    2.8889   53.4412   26.7912 C   0  0  0  0  0  0
    3.6789   54.0977   25.8302 N   0  0  0  0  0  0
    4.9995   54.3866   25.8430 C   0  0  0  0  0  0
    5.7867   54.1236   26.7510 O   0  0  0  0  0  0
    5.5183   55.0917   24.5948 C   0  0  0  0  0  0
    6.7042   54.0967   23.6518 S   0  0  0  0  0  0
    6.5326   54.8967   22.0879 C   0  0  0  0  0  0
    7.4466   55.6966   21.6018 N   0  0  0  0  0  0
    7.0324   56.0926   20.3380 N   0  0  0  0  0  0
    5.9042   55.4750   20.0792 C   0  0  0  0  0  0
    5.5047   54.7247   21.1752 N   0  0  0  0  0  0
    4.2710   53.9508   21.3499 C   0  0  0  0  0  0
    4.4758   52.4494   21.2816 C   0  0  0  0  0  0
    3.7646   51.6254   20.4972 C   0  0  0  0  0  0
    5.1754   55.6103   18.7758 C   0  0  0  0  0  0
    5.1048   56.8585   18.1453 C   0  0  0  0  0  0
    4.3966   57.0090   16.9563 C   0  0  0  0  0  0
    3.7773   55.9033   16.3793 C   0  0  0  0  0  0
    3.8758   54.6475   16.9741 C   0  0  0  0  0  0
    4.5798   54.5007   18.1658 C   0  0  0  0  0  0
    2.7925   56.1091   14.7648 Br  0  0  0  0  0  0
    2.9376   52.4967   30.4800 C   0  0  0  0  0  0
    3.9044   53.1957   30.8490 O   0  0  0  0  0  0
    0.1923   52.5593   24.7920 H   0  0  0  0  0  0
    1.1046   54.0623   24.6440 H   0  0  0  0  0  0
    1.8777   52.5276   24.2628 H   0  0  0  0  0  0
   -0.0767   51.7763   26.9999 H   0  0  0  0  0  0
    0.6406   51.5301   29.3166 H   0  0  0  0  0  0
    4.2040   53.7552   28.4731 H   0  0  0  0  0  0
    3.1826   54.3088   24.9792 H   0  0  0  0  0  0
    5.9721   56.0434   24.8714 H   0  0  0  0  0  0
    4.6672   55.2967   23.9579 H   0  0  0  0  0  0
    3.8355   54.1985   22.3140 H   0  0  0  0  0  0
    3.5263   54.2743   20.6194 H   0  0  0  0  0  0
    5.2440   52.0368   21.9210 H   0  0  0  0  0  0
    3.9475   50.5611   20.4906 H   0  0  0  0  0  0
    2.9877   51.9965   19.8443 H   0  0  0  0  0  0
    5.5772   57.7224   18.5894 H   0  0  0  0  0  0
    4.3256   57.9813   16.4885 H   0  0  0  0  0  0
    3.4099   53.7889   16.5129 H   0  0  0  0  0  0
    4.6642   53.5178   18.6056 H   0  0  0  0  0  0
    2.3269   51.7104   31.2330 O   0  5  0  0  0  0
  1  2  1  0  0  0
  1 30  1  0  0  0
  1 31  1  0  0  0
  1 32  1  0  0  0
  2  7  2  0  0  0
  2  3  1  0  0  0
  3  4  2  0  0  0
  3 33  1  0  0  0
  4  5  1  0  0  0
  4 34  1  0  0  0
  5  6  2  0  0  0
  5 28  1  0  0  0
  6  7  1  0  0  0
  6 35  1  0  0  0
  7  8  1  0  0  0
  8  9  1  0  0  0
  8 36  1  0  0  0
  9 10  2  0  0  0
  9 11  1  0  0  0
 11 12  1  0  0  0
 11 37  1  0  0  0
 11 38  1  0  0  0
 12 13  1  0  0  0
 13 17  1  0  0  0
 13 14  2  0  0  0
 14 15  1  0  0  0
 15 16  2  0  0  0
 16 17  1  0  0  0
 16 21  1  0  0  0
 17 18  1  0  0  0
 18 19  1  0  0  0
 18 39  1  0  0  0
 18 40  1  0  0  0
 19 20  2  0  0  0
 19 41  1  0  0  0
 20 42  1  0  0  0
 20 43  1  0  0  0
 21 26  2  0  0  0
 21 22  1  0  0  0
 22 23  2  0  0  0
 22 44  1  0  0  0
 23 24  1  0  0  0
 23 45  1  0  0  0
 24 25  2  0  0  0
 24 27  1  0  0  0
 25 26  1  0  0  0
 25 46  1  0  0  0
 26 47  1  0  0  0
 28 29  2  0  0  0
 28 48  1  0  0  0
M  CHG  1  48  -1
M  END
> <i_i_glide_confnum>
154

> <i_i_glide_lignum>
5889

> <i_i_glide_posenum>
345

> <i_i_glide_rotatable_bonds>
9

> <i_m_Source_File_Index>
2312

> <b_m_subgroup_collapsed>
0

> <r_i_docking_score>
-6.05381

> <r_i_glide_ecoul>
-5.72587

> <r_i_glide_eff_state_penalty>
0

> <r_i_glide_einternal>
3.4093

> <r_i_glide_emodel>
-71.6806

> <r_i_glide_energy>
-49.4241

> <r_i_glide_erotb>
0.687274

> <r_i_glide_esite>
0

> <r_i_glide_evdw>
-43.6982

> <r_i_glide_gscore>
-6.05381

> <r_i_glide_hbond>
-0.266816

> <r_i_glide_ligand_efficiency>
-0.201794

> <r_i_glide_ligand_efficiency_ln>
-1.37549

> <r_i_glide_ligand_efficiency_sa>
-0.62702

> <r_i_glide_lipo>
-2.17029

> <r_i_glide_metal>
0

> <r_i_glide_rewards>
-1.26019

> <s_i_glide_gridfile>
wee1_glide-grid

> <s_m_Source_File>
wee1_decoys_glide_SP.sdf

> <s_m_Source_Path>
/Users/zhangxujun/Desktop

> <s_m_entry_id>
2587

> <s_m_entry_name>
wee1_decoys_glide_SP.2312

> <s_m_subgroup_title>
wee1_decoys_glide_SP

> <s_m_subgroupid>
wee1_decoys_glide_SP


$$$$
