ZINC11044359_5075
                    3D
 Schrodinger Suite 2024-2.
 63 66  0  0  1  0            999 V2000
    3.1248   51.7915   19.8874 C   0  0  0  0  0  0
    4.0044   53.0394   20.1048 C   0  0  1  0  0  0
    3.4977   53.9372   19.7523 H   0  0  0  0  0  0
    4.4248   53.1942   21.5888 C   0  0  0  0  0  0
    5.5017   52.7334   21.9751 O   0  0  0  0  0  0
    3.5099   53.7842   22.3874 N   0  0  0  0  0  0
    3.5718   53.8938   23.7895 C   0  0  0  0  0  0
    2.3681   53.7638   24.4825 C   0  0  0  0  0  0
    2.3645   53.7508   25.8739 C   0  0  0  0  0  0
    3.5597   53.8985   26.5831 C   0  0  0  0  0  0
    4.7588   54.0973   25.8950 C   0  0  0  0  0  0
    4.7662   54.0965   24.5002 C   0  0  0  0  0  0
    3.5692   53.7934   28.3779 S   0  0  0  0  0  0
    4.7036   52.9464   28.7632 O   0  0  0  0  0  0
    3.4753   55.1644   28.8897 O   0  0  0  0  0  0
    2.0824   52.9376   28.8178 N   0  0  0  0  0  0
    1.9152   51.5267   28.4249 C   0  0  0  0  0  0
    0.4666   51.2987   27.9410 C   0  0  0  0  0  0
   -0.5497   51.7709   29.0099 C   0  0  0  0  0  0
   -0.2528   53.2017   29.5326 C   0  0  0  0  0  0
    1.2240   53.3975   29.9288 C   0  0  0  0  0  0
    5.8426   54.1962   18.6887 C   0  0  2  0  0  0
    5.9766   54.8058   19.5848 H   0  0  0  0  0  0
    4.9068   54.9084   17.7171 C   0  0  0  0  0  0
    4.3562   54.2214   16.6288 C   0  0  0  0  0  0
    3.5062   54.8821   15.7459 C   0  0  0  0  0  0
    3.2119   56.2288   15.9478 C   0  0  0  0  0  0
    3.7609   56.9215   17.0255 C   0  0  0  0  0  0
    4.6037   56.2599   17.9133 C   0  0  0  0  0  0
    7.1924   53.8802   18.0819 C   0  0  0  0  0  0
    7.5754   52.8516   17.2175 C   0  0  0  0  0  0
    8.9274   52.8686   16.8660 C   0  0  0  0  0  0
    9.6076   53.9270   17.4410 C   0  0  0  0  0  0
    8.5698   54.8968   18.4255 S   0  0  0  0  0  0
    2.1762   51.8677   20.4204 H   0  0  0  0  0  0
    2.8826   51.6598   18.8321 H   0  0  0  0  0  0
    3.6181   50.8761   20.2203 H   0  0  0  0  0  0
    2.6289   54.0398   21.9640 H   0  0  0  0  0  0
    1.4373   53.6260   23.9508 H   0  0  0  0  0  0
    1.4249   53.6367   26.3907 H   0  0  0  0  0  0
    5.6859   54.2115   26.4386 H   0  0  0  0  0  0
    5.7065   54.2221   23.9849 H   0  0  0  0  0  0
    2.6703   51.2931   27.6816 H   0  0  0  0  0  0
    2.1129   50.8976   29.2883 H   0  0  0  0  0  0
    0.2933   51.8401   27.0116 H   0  0  0  0  0  0
    0.2981   50.2527   27.6818 H   0  0  0  0  0  0
   -0.5307   51.0770   29.8517 H   0  0  0  0  0  0
   -1.5634   51.7117   28.6111 H   0  0  0  0  0  0
   -0.8952   53.4210   30.3830 H   0  0  0  0  0  0
   -0.4955   53.9340   28.7612 H   0  0  0  0  0  0
    1.4431   52.7875   30.8067 H   0  0  0  0  0  0
    1.4459   54.4368   30.1717 H   0  0  0  0  0  0
    4.5832   53.1775   16.4647 H   0  0  0  0  0  0
    3.0804   54.3536   14.9045 H   0  0  0  0  0  0
    2.5560   56.7436   15.2617 H   0  0  0  0  0  0
    3.5315   57.9686   17.1703 H   0  0  0  0  0  0
    5.0282   56.8055   18.7440 H   0  0  0  0  0  0
    6.8912   52.0944   16.8636 H   0  0  0  0  0  0
    9.3893   52.1361   16.2190 H   0  0  0  0  0  0
   10.6550   54.1764   17.3487 H   0  0  0  0  0  0
    5.2704   52.8968   19.2954 N   0  3  0  0  0  0
    5.1048   52.2131   18.5594 H   0  0  0  0  0  0
    5.9459   52.4843   19.9227 H   0  0  0  0  0  0
  1  2  1  0  0  0
  1 35  1  0  0  0
  1 36  1  0  0  0
  1 37  1  0  0  0
  2  3  1  0  0  0
  2  4  1  0  0  0
  2 61  1  0  0  0
  4  5  2  0  0  0
  4  6  1  0  0  0
  6  7  1  0  0  0
  6 38  1  0  0  0
  7 12  2  0  0  0
  7  8  1  0  0  0
  8  9  2  0  0  0
  8 39  1  0  0  0
  9 10  1  0  0  0
  9 40  1  0  0  0
 10 11  2  0  0  0
 10 13  1  0  0  0
 11 12  1  0  0  0
 11 41  1  0  0  0
 12 42  1  0  0  0
 13 14  2  0  0  0
 13 15  2  0  0  0
 13 16  1  0  0  0
 16 21  1  0  0  0
 16 17  1  0  0  0
 17 18  1  0  0  0
 17 43  1  0  0  0
 17 44  1  0  0  0
 18 19  1  0  0  0
 18 45  1  0  0  0
 18 46  1  0  0  0
 19 20  1  0  0  0
 19 47  1  0  0  0
 19 48  1  0  0  0
 20 21  1  0  0  0
 20 49  1  0  0  0
 20 50  1  0  0  0
 21 51  1  0  0  0
 21 52  1  0  0  0
 22 23  1  0  0  0
 22 24  1  0  0  0
 22 30  1  0  0  0
 22 61  1  0  0  0
 24 29  2  0  0  0
 24 25  1  0  0  0
 25 26  2  0  0  0
 25 53  1  0  0  0
 26 27  1  0  0  0
 26 54  1  0  0  0
 27 28  2  0  0  0
 27 55  1  0  0  0
 28 29  1  0  0  0
 28 56  1  0  0  0
 29 57  1  0  0  0
 30 34  1  0  0  0
 30 31  2  0  0  0
 31 32  1  0  0  0
 31 58  1  0  0  0
 32 33  2  0  0  0
 32 59  1  0  0  0
 33 34  1  0  0  0
 33 60  1  0  0  0
 61 62  1  0  0  0
 61 63  1  0  0  0
M  CHG  1  61   1
M  END
> <i_i_glide_confnum>
325

> <i_i_glide_lignum>
5076

> <i_i_glide_posenum>
253

> <i_i_glide_rotatable_bonds>
9

> <i_m_Source_File_Index>
2224

> <b_m_subgroup_collapsed>
0

> <r_i_docking_score>
-4.139

> <r_i_glide_ecoul>
-5.80071

> <r_i_glide_eff_state_penalty>
0

> <r_i_glide_einternal>
14.0636

> <r_i_glide_emodel>
-51.5256

> <r_i_glide_energy>
-48.0895

> <r_i_glide_erotb>
0.77817

> <r_i_glide_esite>
-0.0892834

> <r_i_glide_evdw>
-42.2888

> <r_i_glide_gscore>
-4.139

> <r_i_glide_hbond>
-0.164571

> <r_i_glide_ligand_efficiency>
-0.125424

> <r_i_glide_ligand_efficiency_ln>
-0.920493

> <r_i_glide_ligand_efficiency_sa>
-0.402303

> <r_i_glide_lipo>
-2.29576

> <r_i_glide_metal>
0

> <r_i_glide_rewards>
0.616985

> <s_i_glide_gridfile>
wee1_glide-grid

> <s_m_Source_File>
wee1_decoys_glide_SP.sdf

> <s_m_Source_Path>
/Users/zhangxujun/Desktop

> <s_m_entry_id>
2499

> <s_m_entry_name>
wee1_decoys_glide_SP.2224

> <s_m_subgroup_title>
wee1_decoys_glide_SP

> <s_m_subgroupid>
wee1_decoys_glide_SP


$$$$
