@<TRIPOS>MOLECULE
ZINC66354559_4462
52   55    1
SMALL
USER_CHARGES


@<TRIPOS>ATOM
      1 C1          0.2940   52.6108   30.2831 C.3       1 UNK         0.0000 
      2 C2          0.4272   54.1364   30.0869 C.3       1 UNK         0.0000 
      3 C3          1.7022   54.6448   29.3600 C.3       1 UNK         0.0000 
      4 C4          1.7848   54.0955   27.9024 C.3       1 UNK         0.0000 
      5 C5          3.1998   54.1707   27.3556 C.2       1 UNK         0.0000 
      6 C6          4.2696   54.2653   28.1713 C.2       1 UNK         0.0000 
      7 C7          4.1415   54.3300   29.6713 C.3       1 UNK         0.0000 
      8 O8          2.7964   54.0953   30.0979 O.3       1 UNK         0.0000 
      9 S9          5.8457   54.3053   27.3141 S.3       1 UNK         0.0000 
     10 C10         4.9540   54.6634   25.7943 C.3       1 UNK         0.0000 
     11 H11         4.7260   55.7317   25.8281 H         1 UNK         0.0000 
     12 C12         3.6828   53.8081   25.9730 C.3       1 UNK         0.0000 
     13 H13         3.9844   52.7711   26.0658 H         1 UNK         0.0000 
     14 C14         2.8878   53.8820   24.6580 C.2       1 UNK         0.0000 
     15 N15         3.4920   54.0191   23.5357 N.2       1 UNK         0.0000 
     16 C16         4.8907   54.0968   23.5580 C.2       1 UNK         0.0000 
     17 N17         5.6604   54.4147   24.5404 N.2       1 UNK         0.0000 
     18 S18         5.8126   53.7017   22.0776 S.3       1 UNK         0.0000 
     19 C19         4.5609   53.6159   20.7472 C.3       1 UNK         0.0000 
     20 C20         5.1375   54.1835   19.4475 C.2       1 UNK         0.0000 
     21 O21         5.2103   55.4059   19.3230 O.2       1 UNK         0.0000 
     22 N22         5.5836   53.2968   18.5283 N.am      1 UNK         0.0000 
     23 C23         6.2241   53.5791   17.3067 C.ar      1 UNK         0.0000 
     24 C24         7.1048   52.6082   16.8229 C.ar      1 UNK         0.0000 
     25 C25         7.7730   52.8041   15.6177 C.ar      1 UNK         0.0000 
     26 C26         7.5548   53.9711   14.8892 C.ar      1 UNK         0.0000 
     27 C27         6.6695   54.9408   15.3549 C.ar      1 UNK         0.0000 
     28 C28         6.0002   54.7464   16.5606 C.ar      1 UNK         0.0000 
     29 Cl29        8.3819   54.2148   13.3944 Cl        1 UNK         0.0000 
     30 N30         1.5314   53.6966   24.6511 N.pl3     1 UNK         0.0000 
     31 C31         1.8061   56.1897   29.3777 C.3       1 UNK         0.0000 
     32 H32         0.1801   52.0751   29.3414 H         1 UNK         0.0000 
     33 H33         1.1570   52.1961   30.8049 H         1 UNK         0.0000 
     34 H34        -0.5856   52.3759   30.8832 H         1 UNK         0.0000 
     35 H35        -0.4566   54.4966   29.5638 H         1 UNK         0.0000 
     36 H36         0.3837   54.6018   31.0733 H         1 UNK         0.0000 
     37 H37         1.4621   53.0576   27.8449 H         1 UNK         0.0000 
     38 H38         1.1044   54.6355   27.2593 H         1 UNK         0.0000 
     39 H39         4.7044   53.5014   30.0814 H         1 UNK         0.0000 
     40 H40         4.5518   55.2532   30.0747 H         1 UNK         0.0000 
     41 H41         4.2440   52.5815   20.6112 H         1 UNK         0.0000 
     42 H42         3.6722   54.1987   20.9904 H         1 UNK         0.0000 
     43 H43         5.5044   52.3050   18.7302 H         1 UNK         0.0000 
     44 H44         7.2747   51.6972   17.3783 H         1 UNK         0.0000 
     45 H45         8.4552   52.0515   15.2504 H         1 UNK         0.0000 
     46 H46         6.4974   55.8398   14.7818 H         1 UNK         0.0000 
     47 H47         5.3041   55.5018   16.8925 H         1 UNK         0.0000 
     48 H48         1.0527   53.6525   23.7652 H         1 UNK         0.0000 
     49 H49         1.0382   53.4608   25.4976 H         1 UNK         0.0000 
     50 H50         1.8363   56.5682   30.4000 H         1 UNK         0.0000 
     51 H51         2.7044   56.5501   28.8820 H         1 UNK         0.0000 
     52 H52         0.9549   56.6558   28.8840 H         1 UNK         0.0000 
@<TRIPOS>BOND
     1    1    2 1    
     2    1   32 1    
     3    1   33 1    
     4    1   34 1    
     5    2    3 1    
     6    2   35 1    
     7    2   36 1    
     8    3    8 1    
     9    3    4 1    
    10    3   31 1    
    11    4    5 1    
    12    4   37 1    
    13    4   38 1    
    14    5   12 1    
    15    5    6 2    
    16    6    7 1    
    17    6    9 1    
    18    7    8 1    
    19    7   39 1    
    20    7   40 1    
    21    9   10 1    
    22   10   11 1    
    23   10   17 1    
    24   10   12 1    
    25   12   13 1    
    26   12   14 1    
    27   14   15 2    
    28   14   30 1    
    29   15   16 1    
    30   16   17 2    
    31   16   18 1    
    32   18   19 1    
    33   19   20 1    
    34   19   41 1    
    35   19   42 1    
    36   20   21 2    
    37   20   22 am   BACKBONE|DICT|INTERRES
    38   22   23 1    
    39   22   43 1    
    40   23   28 ar   
    41   23   24 ar   
    42   24   25 ar   
    43   24   44 1    
    44   25   26 ar   
    45   25   45 1    
    46   26   27 ar   
    47   26   29 1    
    48   27   28 ar   
    49   27   46 1    
    50   28   47 1    
    51   30   48 1    
    52   30   49 1    
    53   31   50 1    
    54   31   51 1    
    55   31   52 1    
@<TRIPOS>SUBSTRUCTURE
     1 UNK         1 GROUP             0       ****    0 ROOT    
