@<TRIPOS>MOLECULE
ZINC15719201_3280
61   65    1
SMALL
USER_CHARGES


@<TRIPOS>ATOM
      1 C1          5.3843   54.2325   26.6528 C.ar      1 UNK         0.0000 
      2 C2          4.1854   54.4232   25.9734 C.ar      1 UNK         0.0000 
      3 C3          4.1836   54.4966   24.5834 C.ar      1 UNK         0.0000 
      4 C4          5.3782   54.3744   23.8612 C.ar      1 UNK         0.0000 
      5 C5          6.5820   54.1978   24.5622 C.ar      1 UNK         0.0000 
      6 C6          6.5817   54.1229   25.9535 C.ar      1 UNK         0.0000 
      7 N7          5.3891   54.4736   22.4372 N.pl3     1 UNK         0.0000 
      8 C8          4.6460   53.8059   21.4617 C.ar      1 UNK         0.0000 
      9 C9          5.1720   54.2748   20.2604 C.ar      1 UNK         0.0000 
     10 C10         6.2348   55.1172   20.5752 C.ar      1 UNK         0.0000 
     11 N11         6.3849   55.1939   21.8752 N.2       1 UNK         0.0000 
     12 C12         7.1572   55.8701   19.6421 C.3       1 UNK         0.0000 
     13 C13         8.6558   55.7194   19.7217 C.3       1 UNK         0.0000 
     14 C14         7.8858   55.1357   18.5460 C.3       1 UNK         0.0000 
     15 C15         3.5213   52.9098   21.6323 C.2       1 UNK         0.0000 
     16 O16         2.6986   53.0657   22.5277 O.2       1 UNK         0.0000 
     17 N17         3.4567   51.9365   20.6947 N.am      1 UNK         0.0000 
     18 C18         2.4588   50.9548   20.5240 C.ar      1 UNK         0.0000 
     19 C19         2.3948   50.3326   19.2735 C.ar      1 UNK         0.0000 
     20 C20         1.4403   49.3510   19.0137 C.ar      1 UNK         0.0000 
     21 C21         0.5270   48.9870   20.0009 C.ar      1 UNK         0.0000 
     22 C22         0.5797   49.5920   21.2606 C.ar      1 UNK         0.0000 
     23 C23         1.5525   50.5609   21.5239 C.ar      1 UNK         0.0000 
     24 S24        -0.5815   49.1403   22.5519 S.o2      1 UNK         0.0000 
     25 O25        -1.2953   47.9784   22.0088 O.2       1 UNK         0.0000 
     26 O26         0.2913   48.8636   23.6989 O.2       1 UNK         0.0000 
     27 N27        -1.4603   50.6732   22.5590 N.2       1 UNK         0.0000 
     28 C28        -1.7589   51.2236   23.6674 C.2       1 UNK         0.0000 
     29 C29        -2.4755   52.5715   23.7374 C.3       1 UNK         0.0000 
     30 C30        -3.7800   52.6299   24.5633 C.3       1 UNK         0.0000 
     31 C31        -3.5859   52.7582   26.0819 C.3       1 UNK         0.0000 
     32 C32        -2.8956   51.5664   26.7662 C.3       1 UNK         0.0000 
     33 C33        -1.4871   51.2226   26.2535 C.3       1 UNK         0.0000 
     34 N34        -1.4598   50.6667   24.9053 N.pl3     1 UNK         0.0000 
     35 H35         5.3874   54.1733   27.7313 H         1 UNK         0.0000 
     36 H36         3.2608   54.5240   26.5221 H         1 UNK         0.0000 
     37 H37         3.2499   54.7128   24.0892 H         1 UNK         0.0000 
     38 H38         7.5180   54.1070   24.0307 H         1 UNK         0.0000 
     39 H39         7.5013   53.9717   26.4968 H         1 UNK         0.0000 
     40 H40         4.8347   54.0316   19.2625 H         1 UNK         0.0000 
     41 H41         6.7858   56.8618   19.3803 H         1 UNK         0.0000 
     42 H42         9.2803   56.5988   19.5614 H         1 UNK         0.0000 
     43 H43         9.0772   55.0524   20.4738 H         1 UNK         0.0000 
     44 H44         7.7738   54.0533   18.4706 H         1 UNK         0.0000 
     45 H45         7.9690   55.6113   17.5681 H         1 UNK         0.0000 
     46 H46         4.1750   51.9362   19.9861 H         1 UNK         0.0000 
     47 H47         3.0941   50.5951   18.4903 H         1 UNK         0.0000 
     48 H48         1.4139   48.8750   18.0444 H         1 UNK         0.0000 
     49 H49        -0.2141   48.2321   19.7825 H         1 UNK         0.0000 
     50 H50         1.5831   50.9864   22.5138 H         1 UNK         0.0000 
     51 H51        -1.7746   53.3409   24.0646 H         1 UNK         0.0000 
     52 H52        -2.7333   52.8659   22.7197 H         1 UNK         0.0000 
     53 H53        -4.3668   53.4832   24.2212 H         1 UNK         0.0000 
     54 H54        -4.3996   51.7562   24.3470 H         1 UNK         0.0000 
     55 H55        -4.5633   52.9048   26.5445 H         1 UNK         0.0000 
     56 H56        -3.0253   53.6701   26.2965 H         1 UNK         0.0000 
     57 H57        -3.5268   50.6801   26.6855 H         1 UNK         0.0000 
     58 H58        -2.8289   51.7676   27.8348 H         1 UNK         0.0000 
     59 H59        -0.9848   50.5512   26.9534 H         1 UNK         0.0000 
     60 H60        -0.8872   52.1340   26.2266 H         1 UNK         0.0000 
     61 H61        -0.8420   49.8620   24.8427 H         1 UNK         0.0000 
@<TRIPOS>BOND
     1    1    6 ar   
     2    1    2 ar   
     3    1   35 1    
     4    2    3 ar   
     5    2   36 1    
     6    3    4 ar   
     7    3   37 1    
     8    4    5 ar   
     9    4    7 1    
    10    5    6 ar   
    11    5   38 1    
    12    6   39 1    
    13    7   11 ar   
    14    7    8 ar   
    15    8    9 ar   
    16    8   15 1    
    17    9   10 ar   
    18    9   40 1    
    19   10   11 ar   
    20   10   12 1    
    21   12   14 1    
    22   12   13 1    
    23   12   41 1    
    24   13   14 1    
    25   13   42 1    
    26   13   43 1    
    27   14   44 1    
    28   14   45 1    
    29   15   16 2    
    30   15   17 am   BACKBONE|DICT|INTERRES
    31   17   18 1    
    32   17   46 1    
    33   18   23 ar   
    34   18   19 ar   
    35   19   20 ar   
    36   19   47 1    
    37   20   21 ar   
    38   20   48 1    
    39   21   22 ar   
    40   21   49 1    
    41   22   23 ar   
    42   22   24 1    
    43   23   50 1    
    44   24   25 2    
    45   24   26 2    
    46   24   27 1    
    47   27   28 2    
    48   28   34 1    
    49   28   29 1    
    50   29   30 1    
    51   29   51 1    
    52   29   52 1    
    53   30   31 1    
    54   30   53 1    
    55   30   54 1    
    56   31   32 1    
    57   31   55 1    
    58   31   56 1    
    59   32   33 1    
    60   32   57 1    
    61   32   58 1    
    62   33   34 1    
    63   33   59 1    
    64   33   60 1    
    65   34   61 1    
@<TRIPOS>SUBSTRUCTURE
     1 UNK         1 GROUP             0       ****    0 ROOT    
