ZINC15738731_3258
                    3D
 Schrodinger Suite 2024-2.
 51 53  0  0  1  0            999 V2000
    3.3842   54.2087   22.8430 C   0  0  0  0  0  0
    3.5443   54.0987   24.3572 C   0  0  0  0  0  0
    4.6286   54.7382   24.9685 C   0  0  0  0  0  0
    4.8158   54.6643   26.3465 C   0  0  0  0  0  0
    3.9172   53.9474   27.1354 C   0  0  0  0  0  0
    2.8405   53.2966   26.5333 C   0  0  0  0  0  0
    2.6398   53.3599   25.1440 C   0  0  0  0  0  0
    1.6290   52.6297   24.4843 N   0  0  0  0  0  0
    0.5532   51.9769   24.9837 C   0  0  0  0  0  0
    0.1550   52.0964   26.1411 O   0  0  0  0  0  0
   -0.1968   50.9913   24.0588 C   0  0  0  0  0  0
    0.4062   50.9077   22.7208 N   0  0  0  0  0  0
   -0.0875   51.4874   21.6150 C   0  0  0  0  0  0
   -1.1575   52.0962   21.5726 O   0  0  0  0  0  0
    0.7813   51.4006   20.4724 C   0  0  0  0  0  0
    1.8309   50.5416   20.1440 C   0  0  0  0  0  0
    2.2844   50.9278   18.8811 C   0  0  0  0  0  0
    1.4698   51.9678   18.4686 C   0  0  0  0  0  0
    0.5437   52.2348   19.4241 O   0  0  0  0  0  0
    1.4357   53.0141   16.8794 Br  0  0  0  0  0  0
    4.1872   53.8038   28.9025 S   0  0  0  0  0  0
    4.5661   52.4125   29.1691 O   0  0  0  0  0  0
    5.0894   54.8949   29.2808 O   0  0  0  0  0  0
    2.6241   54.1048   29.6814 N   0  0  0  0  0  0
    1.6758   52.9665   29.7838 C   0  0  0  0  0  0
    0.7286   53.1957   30.9702 C   0  0  0  0  0  0
    0.0273   54.5646   30.8612 C   0  0  0  0  0  0
    0.9762   55.7471   30.5451 C   0  0  0  0  0  0
    1.9848   55.4186   29.4231 C   0  0  0  0  0  0
    4.1044   54.8956   22.3957 H   0  0  0  0  0  0
    3.5033   53.2314   22.3733 H   0  0  0  0  0  0
    2.3866   54.5738   22.5925 H   0  0  0  0  0  0
    5.3379   55.2970   24.3754 H   0  0  0  0  0  0
    5.6647   55.1587   26.7965 H   0  0  0  0  0  0
    2.2090   52.6825   27.1491 H   0  0  0  0  0  0
    1.7646   52.5387   23.4895 H   0  0  0  0  0  0
   -1.2487   51.2757   24.0091 H   0  0  0  0  0  0
   -0.1585   50.0000   24.5108 H   0  0  0  0  0  0
    1.2556   50.3682   22.6466 H   0  0  0  0  0  0
    2.2364   49.7393   20.7426 H   0  0  0  0  0  0
    3.1030   50.4967   18.3200 H   0  0  0  0  0  0
    1.0450   52.9476   28.8947 H   0  0  0  0  0  0
    2.2141   52.0238   29.8816 H   0  0  0  0  0  0
   -0.0184   52.4005   31.0124 H   0  0  0  0  0  0
    1.2802   53.1232   31.9076 H   0  0  0  0  0  0
   -0.4955   54.7607   31.7918 H   0  0  0  0  0  0
   -0.7272   54.4967   30.0774 H   0  0  0  0  0  0
    1.5043   56.0521   31.4466 H   0  0  0  0  0  0
    0.3918   56.6254   30.2720 H   0  0  0  0  0  0
    2.7416   56.1981   29.3270 H   0  0  0  0  0  0
    1.4053   55.3387   28.5015 H   0  0  0  0  0  0
  1  2  1  0  0  0
  1 30  1  0  0  0
  1 31  1  0  0  0
  1 32  1  0  0  0
  2  7  2  0  0  0
  2  3  1  0  0  0
  3  4  2  0  0  0
  3 33  1  0  0  0
  4  5  1  0  0  0
  4 34  1  0  0  0
  5  6  2  0  0  0
  5 21  1  0  0  0
  6  7  1  0  0  0
  6 35  1  0  0  0
  7  8  1  0  0  0
  8  9  1  0  0  0
  8 36  1  0  0  0
  9 10  2  0  0  0
  9 11  1  0  0  0
 11 12  1  0  0  0
 11 37  1  0  0  0
 11 38  1  0  0  0
 12 13  1  0  0  0
 12 39  1  0  0  0
 13 14  2  0  0  0
 13 15  1  0  0  0
 15 19  1  0  0  0
 15 16  2  0  0  0
 16 17  1  0  0  0
 16 40  1  0  0  0
 17 18  2  0  0  0
 17 41  1  0  0  0
 18 19  1  0  0  0
 18 20  1  0  0  0
 21 22  2  0  0  0
 21 23  2  0  0  0
 21 24  1  0  0  0
 24 29  1  0  0  0
 24 25  1  0  0  0
 25 26  1  0  0  0
 25 42  1  0  0  0
 25 43  1  0  0  0
 26 27  1  0  0  0
 26 44  1  0  0  0
 26 45  1  0  0  0
 27 28  1  0  0  0
 27 46  1  0  0  0
 27 47  1  0  0  0
 28 29  1  0  0  0
 28 48  1  0  0  0
 28 49  1  0  0  0
 29 50  1  0  0  0
 29 51  1  0  0  0
M  END
> <i_i_glide_confnum>
153

> <i_i_glide_lignum>
3259

> <i_i_glide_posenum>
345

> <i_i_glide_rotatable_bonds>
8

> <i_m_Source_File_Index>
5356

> <b_m_subgroup_collapsed>
0

> <r_i_docking_score>
-4.14589

> <r_i_glide_ecoul>
-3.59992

> <r_i_glide_eff_state_penalty>
0

> <r_i_glide_einternal>
7.06902

> <r_i_glide_emodel>
-50.9182

> <r_i_glide_energy>
-44.3561

> <r_i_glide_erotb>
0.605908

> <r_i_glide_esite>
-0.0139255

> <r_i_glide_evdw>
-40.7561

> <r_i_glide_gscore>
-4.14589

> <r_i_glide_hbond>
0

> <r_i_glide_ligand_efficiency>
-0.142962

> <r_i_glide_ligand_efficiency_ln>
-0.949303

> <r_i_glide_ligand_efficiency_sa>
-0.439223

> <r_i_glide_lipo>
-2.26026

> <r_i_glide_metal>
0

> <r_i_glide_rewards>
0.100183

> <s_i_glide_gridfile>
wee1_glide-grid

> <s_m_Source_File>
wee1_decoys_glide_SP.sdf

> <s_m_Source_Path>
/Users/zhangxujun/Desktop

> <s_m_entry_id>
5631

> <s_m_entry_name>
wee1_decoys_glide_SP.5356

> <s_m_subgroup_title>
wee1_decoys_glide_SP

> <s_m_subgroupid>
wee1_decoys_glide_SP


$$$$
