ZINC06239275_3277
                    3D
 Schrodinger Suite 2024-2.
 50 53  0  0  1  0            999 V2000
   -0.5474   51.3132   29.0107 C   0  0  0  0  0  0
   -0.4325   52.6014   28.4250 O   0  0  0  0  0  0
    0.8328   52.9338   28.0068 C   0  0  0  0  0  0
    1.0929   52.9041   26.6411 C   0  0  0  0  0  0
    2.3197   53.2966   26.1156 C   0  0  0  0  0  0
    3.3171   53.6984   27.0150 C   0  0  0  0  0  0
    3.0864   53.7424   28.4028 C   0  0  0  0  0  0
    1.8263   53.3717   28.8948 C   0  0  0  0  0  0
    1.5804   53.4400   30.2482 O   0  0  0  0  0  0
    0.7486   54.5263   30.6429 C   0  0  0  0  0  0
    4.0291   54.1586   29.3264 O   0  0  0  0  0  0
    5.3338   54.5099   28.8782 C   0  0  0  0  0  0
    2.5625   53.3326   24.6303 C   0  0  0  0  0  0
    2.1646   52.4277   23.5961 C   0  0  0  0  0  0
    2.7566   52.9733   22.4730 C   0  0  0  0  0  0
    3.4177   54.0969   22.8370 N   0  0  0  0  0  0
    3.9376   54.6962   22.2133 H   0  0  0  0  0  0
    3.3008   54.3231   24.1450 N   0  0  0  0  0  0
    2.7758   52.4990   21.1895 O   0  0  0  0  0  0
    2.0335   51.3736   21.0145 C   0  0  0  0  0  0
    1.3480   50.7014   21.9759 C   0  0  0  0  0  0
    1.3522   51.1175   23.4674 C   0  0  2  0  0  0
    1.8843   50.3399   24.0197 H   0  0  0  0  0  0
   -0.0544   51.1861   24.0606 C   0  0  0  0  0  0
   -0.9367   52.1961   23.6605 C   0  0  0  0  0  0
   -2.1772   52.3227   24.2795 C   0  0  0  0  0  0
   -2.5379   51.4356   25.2918 C   0  0  0  0  0  0
   -1.6832   50.4009   25.6680 C   0  0  0  0  0  0
   -0.4443   50.2710   25.0470 C   0  0  0  0  0  0
   -4.2053   51.6563   26.1809 Br  0  0  0  0  0  0
    0.5683   49.5650   21.6015 C   0  0  0  0  0  0
   -0.0967   48.6789   21.2684 N   0  0  0  0  0  0
    2.1249   51.0328   19.6911 N   0  0  0  0  0  0
   -1.6017   51.0616   29.1337 H   0  0  0  0  0  0
   -0.0956   50.5413   28.3845 H   0  0  0  0  0  0
   -0.0873   51.2964   29.9993 H   0  0  0  0  0  0
    0.2767   52.6537   25.9951 H   0  0  0  0  0  0
    4.2747   53.9878   26.6110 H   0  0  0  0  0  0
    0.6479   54.5289   31.7279 H   0  0  0  0  0  0
    1.1790   55.4851   30.3489 H   0  0  0  0  0  0
   -0.2536   54.4512   30.2210 H   0  0  0  0  0  0
    5.9043   54.8974   29.7185 H   0  0  0  0  0  0
    5.8666   53.6445   28.4803 H   0  0  0  0  0  0
    5.3114   55.2959   28.1229 H   0  0  0  0  0  0
   -0.6427   52.8980   22.8942 H   0  0  0  0  0  0
   -2.8494   53.1172   23.9920 H   0  0  0  0  0  0
   -1.9635   49.7140   26.4547 H   0  0  0  0  0  0
    0.2223   49.4825   25.3669 H   0  0  0  0  0  0
    1.6182   50.2370   19.3331 H   0  0  0  0  0  0
    2.9209   51.3363   19.1457 H   0  0  0  0  0  0
  1  2  1  0  0  0
  1 34  1  0  0  0
  1 35  1  0  0  0
  1 36  1  0  0  0
  2  3  1  0  0  0
  3  8  2  0  0  0
  3  4  1  0  0  0
  4  5  2  0  0  0
  4 37  1  0  0  0
  5  6  1  0  0  0
  5 13  1  0  0  0
  6  7  2  0  0  0
  6 38  1  0  0  0
  7  8  1  0  0  0
  7 11  1  0  0  0
  8  9  1  0  0  0
  9 10  1  0  0  0
 10 39  1  0  0  0
 10 40  1  0  0  0
 10 41  1  0  0  0
 11 12  1  0  0  0
 12 42  1  0  0  0
 12 43  1  0  0  0
 12 44  1  0  0  0
 13 18  2  0  0  0
 13 14  1  0  0  0
 14 22  1  0  0  0
 14 15  2  0  0  0
 15 16  1  0  0  0
 15 19  1  0  0  0
 16 17  1  0  0  0
 16 18  1  0  0  0
 19 20  1  0  0  0
 20 21  2  0  0  0
 20 33  1  0  0  0
 21 22  1  0  0  0
 21 31  1  0  0  0
 22 23  1  0  0  0
 22 24  1  0  0  0
 24 29  2  0  0  0
 24 25  1  0  0  0
 25 26  2  0  0  0
 25 45  1  0  0  0
 26 27  1  0  0  0
 26 46  1  0  0  0
 27 28  2  0  0  0
 27 30  1  0  0  0
 28 29  1  0  0  0
 28 47  1  0  0  0
 29 48  1  0  0  0
 31 32  3  0  0  0
 33 49  1  0  0  0
 33 50  1  0  0  0
M  END
> <i_i_glide_confnum>
7

> <i_i_glide_lignum>
3278

> <i_i_glide_posenum>
271

> <i_i_glide_rotatable_bonds>
6

> <i_m_Source_File_Index>
4950

> <b_m_subgroup_collapsed>
0

> <r_i_docking_score>
-4.72577

> <r_i_glide_ecoul>
-4.68918

> <r_i_glide_eff_state_penalty>
0

> <r_i_glide_einternal>
9.80665

> <r_i_glide_emodel>
-51.7768

> <r_i_glide_energy>
-44.1

> <r_i_glide_erotb>
0.173805

> <r_i_glide_esite>
-0.0381434

> <r_i_glide_evdw>
-39.4109

> <r_i_glide_gscore>
-4.72577

> <r_i_glide_hbond>
-0.0453227

> <r_i_glide_ligand_efficiency>
-0.152444

> <r_i_glide_ligand_efficiency_ln>
-1.06581

> <r_i_glide_ligand_efficiency_sa>
-0.478886

> <r_i_glide_lipo>
-1.99799

> <r_i_glide_metal>
0

> <r_i_glide_rewards>
-0.144208

> <s_i_glide_gridfile>
wee1_glide-grid

> <s_m_Source_File>
wee1_decoys_glide_SP.sdf

> <s_m_Source_Path>
/Users/zhangxujun/Desktop

> <s_m_entry_id>
5225

> <s_m_entry_name>
wee1_decoys_glide_SP.4950

> <s_m_subgroup_title>
wee1_decoys_glide_SP

> <s_m_subgroupid>
wee1_decoys_glide_SP


$$$$
