@<TRIPOS>MOLECULE
ZINC34988619_5304
56   60    1
SMALL
USER_CHARGES


@<TRIPOS>ATOM
      1 C1          4.4784   54.4713   29.2969 C.3       1 UNK         0.0000 
      2 C2          4.3881   53.9550   27.8536 C.3       1 UNK         0.0000 
      3 H3          4.5927   52.8812   27.8751 H         1 UNK         0.0000 
      4 C4          2.9804   54.2262   27.2990 C.3       1 UNK         0.0000 
      5 C5          2.7720   53.5919   25.9149 C.3       1 UNK         0.0000 
      6 C6          3.9491   53.9347   24.9842 C.2       1 UNK         0.0000 
      7 C7          5.1540   54.4336   25.5082 C.2       1 UNK         0.0000 
      8 S8          6.2763   54.8786   24.2798 S.3       1 UNK         0.0000 
      9 C9          5.1647   54.3788   23.0276 C.2       1 UNK         0.0000 
     10 C10         3.9889   53.7998   23.5613 C.2       1 UNK         0.0000 
     11 C11         2.9515   53.1896   22.7254 C.2       1 UNK         0.0000 
     12 O12         2.9574   53.2970   21.5032 O.2       1 UNK         0.0000 
     13 N13         2.0541   52.4095   23.3511 N.am      1 UNK         0.0000 
     14 C14         1.0209   51.6199   22.6821 C.3       1 UNK         0.0000 
     15 H15         0.4356   52.2328   21.9889 H         1 UNK         0.0000 
     16 C16         1.6446   50.4388   21.8892 C.3       1 UNK         0.0000 
     17 C17         0.5158   49.5095   21.4246 C.3       1 UNK         0.0000 
     18 S18        -0.6917   49.4983   22.8559 S.o2      1 UNK         0.0000 
     19 O19        -0.4970   48.3022   23.6809 O.2       1 UNK         0.0000 
     20 O20        -2.0223   49.8475   22.3484 O.2       1 UNK         0.0000 
     21 C21         0.0727   50.9832   23.7129 C.3       1 UNK         0.0000 
     22 N22         5.4933   54.4842   21.6716 N.am      1 UNK         0.0000 
     23 C23         6.4368   55.2562   21.0871 C.2       1 UNK         0.0000 
     24 O24         7.1057   56.0970   21.6824 O.2       1 UNK         0.0000 
     25 C25         6.6616   55.0039   19.6736 C.2       1 UNK         0.0000 
     26 C26         6.1070   54.0488   18.8130 C.2       1 UNK         0.0000 
     27 C27         6.6892   54.0580   17.5085 C.ar      1 UNK         0.0000 
     28 C28         6.4295   53.2360   16.3956 C.ar      1 UNK         0.0000 
     29 C29         7.1349   53.4288   15.2083 C.ar      1 UNK         0.0000 
     30 C30         8.0940   54.4296   15.1017 C.ar      1 UNK         0.0000 
     31 C31         8.3847   55.2668   16.1755 C.ar      1 UNK         0.0000 
     32 C32         7.6823   55.0712   17.3757 C.ar      1 UNK         0.0000 
     33 S33         7.8809   55.9757   18.8612 S.3       1 UNK         0.0000 
     34 Cl34        4.8788   52.8966   19.1842 Cl        1 UNK         0.0000 
     35 C35         5.4719   54.6330   26.9830 C.3       1 UNK         0.0000 
     36 H36         4.0906   55.4857   29.3785 H         1 UNK         0.0000 
     37 H37         3.8982   53.8442   29.9754 H         1 UNK         0.0000 
     38 H38         5.5045   54.4969   29.6612 H         1 UNK         0.0000 
     39 H39         2.2316   53.8313   27.9868 H         1 UNK         0.0000 
     40 H40         2.7832   55.2971   27.2816 H         1 UNK         0.0000 
     41 H41         1.8238   53.9518   25.5090 H         1 UNK         0.0000 
     42 H42         2.6861   52.5107   26.0309 H         1 UNK         0.0000 
     43 H43         2.0526   52.3973   24.3596 H         1 UNK         0.0000 
     44 H44         2.3553   49.8948   22.5175 H         1 UNK         0.0000 
     45 H45         2.2291   50.7950   21.0381 H         1 UNK         0.0000 
     46 H46         0.7792   48.4974   21.1243 H         1 UNK         0.0000 
     47 H47         0.0102   49.9851   20.5850 H         1 UNK         0.0000 
     48 H48        -0.6375   51.6002   24.2621 H         1 UNK         0.0000 
     49 H49         0.7097   50.5124   24.4647 H         1 UNK         0.0000 
     50 H50         4.8686   53.9889   21.0465 H         1 UNK         0.0000 
     51 H51         5.6969   52.4424   16.4663 H         1 UNK         0.0000 
     52 H52         6.9335   52.7892   14.3605 H         1 UNK         0.0000 
     53 H53         8.6243   54.5545   14.1680 H         1 UNK         0.0000 
     54 H54         9.1374   56.0393   16.0910 H         1 UNK         0.0000 
     55 H55         6.4509   54.2158   27.2280 H         1 UNK         0.0000 
     56 H56         5.5109   55.6967   27.1963 H         1 UNK         0.0000 
@<TRIPOS>BOND
     1    1    2 1    
     2    1   36 1    
     3    1   37 1    
     4    1   38 1    
     5    2    3 1    
     6    2   35 1    
     7    2    4 1    
     8    4    5 1    
     9    4   39 1    
    10    4   40 1    
    11    5    6 1    
    12    5   41 1    
    13    5   42 1    
    14    6   10 1    
    15    6    7 2    
    16    7    8 1    
    17    7   35 1    
    18    8    9 1    
    19    9   10 2    
    20    9   22 am   BACKBONE|DICT|INTERRES
    21   10   11 1    
    22   11   12 2    
    23   11   13 am   BACKBONE|DICT|INTERRES
    24   13   14 1    
    25   13   43 1    
    26   14   15 1    
    27   14   21 1    
    28   14   16 1    
    29   16   17 1    
    30   16   44 1    
    31   16   45 1    
    32   17   18 1    
    33   17   46 1    
    34   17   47 1    
    35   18   19 2    
    36   18   20 2    
    37   18   21 1    
    38   21   48 1    
    39   21   49 1    
    40   22   23 am   BACKBONE|DICT|INTERRES
    41   22   50 1    
    42   23   24 2    
    43   23   25 1    
    44   25   33 1    
    45   25   26 2    
    46   26   27 1    
    47   26   34 1    
    48   27   32 ar   
    49   27   28 ar   
    50   28   29 ar   
    51   28   51 1    
    52   29   30 ar   
    53   29   52 1    
    54   30   31 ar   
    55   30   53 1    
    56   31   32 ar   
    57   31   54 1    
    58   32   33 1    
    59   35   55 1    
    60   35   56 1    
@<TRIPOS>SUBSTRUCTURE
     1 UNK         1 GROUP             0       ****    0 ROOT    
