@<TRIPOS>MOLECULE
ZINC04453458_4706
37   39    1
SMALL
USER_CHARGES


@<TRIPOS>ATOM
      1 C1          0.9222   56.4240   30.7963 C.3       1 UNK         0.0000 
      2 C2          1.5131   56.3866   29.3913 C.3       1 UNK         0.0000 
      3 C3          2.4357   55.1861   29.1688 C.3       1 UNK         0.0000 
      4 C4          1.6711   53.8956   28.9761 C.ar      1 UNK         0.0000 
      5 C5          1.3691   53.1585   27.8401 C.ar      1 UNK         0.0000 
      6 C6          0.6358   52.0722   28.3372 C.ar      1 UNK         0.0000 
      7 N7          0.4462   52.0966   29.6322 N.2       1 UNK         0.0000 
      8 N8          1.0857   53.2048   30.0098 N.pl3     1 UNK         0.0000 
      9 H9          1.1026   53.4942   30.9758 H         1 UNK         0.0000 
     10 O10         0.1246   51.0496   27.5854 O.3       1 UNK         0.0000 
     11 C11         0.3878   51.1224   26.2543 C.2       1 UNK         0.0000 
     12 C12         1.1002   52.0878   25.6131 C.2       1 UNK         0.0000 
     13 C13         1.7167   53.2974   26.3508 C.3       1 UNK         0.0000 
     14 H14         1.1803   54.1639   25.9865 H         1 UNK         0.0000 
     15 C15         3.1874   53.6403   26.0282 C.ar      1 UNK         0.0000 
     16 C16         4.2118   53.4540   26.9757 C.ar      1 UNK         0.0000 
     17 C17         5.5333   53.7987   26.6903 C.ar      1 UNK         0.0000 
     18 C18         5.8623   54.3139   25.4378 C.ar      1 UNK         0.0000 
     19 C19         4.8636   54.4968   24.4833 C.ar      1 UNK         0.0000 
     20 C20         3.5353   54.1831   24.7804 C.ar      1 UNK         0.0000 
     21 F21         2.5824   54.4558   23.8585 F         1 UNK         0.0000 
     22 C22         1.2663   51.9782   24.1974 C.1       1 UNK         0.0000 
     23 N23         1.3690   51.8400   23.0526 N.1       1 UNK         0.0000 
     24 N24        -0.1697   50.0054   25.6940 N.pl3     1 UNK         0.0000 
     25 H25         0.2914   57.2964   30.8817 H         1 UNK         0.0000 
     26 H26         0.3055   55.5518   31.0044 H         1 UNK         0.0000 
     27 H27         1.6902   56.5001   31.5659 H         1 UNK         0.0000 
     28 H28         2.0864   57.2967   29.2354 H         1 UNK         0.0000 
     29 H29         0.7073   56.4019   28.6507 H         1 UNK         0.0000 
     30 H30         3.1495   55.0992   29.9877 H         1 UNK         0.0000 
     31 H31         3.0428   55.4011   28.2913 H         1 UNK         0.0000 
     32 H32         4.0003   53.0228   27.9431 H         1 UNK         0.0000 
     33 H33         6.3042   53.6414   27.4304 H         1 UNK         0.0000 
     34 H34         6.8872   54.5623   25.2023 H         1 UNK         0.0000 
     35 H35         5.1117   54.8944   23.5117 H         1 UNK         0.0000 
     36 H36        -0.0506   49.8022   24.7122 H         1 UNK         0.0000 
     37 H37        -0.4928   49.2565   26.2976 H         1 UNK         0.0000 
@<TRIPOS>BOND
     1    1    2 1    
     2    1   25 1    
     3    1   26 1    
     4    1   27 1    
     5    2    3 1    
     6    2   28 1    
     7    2   29 1    
     8    3    4 1    
     9    3   30 1    
    10    3   31 1    
    11    4    8 ar   
    12    4    5 ar   
    13    5   13 1    
    14    5    6 ar   
    15    6    7 ar   
    16    6   10 1    
    17    7    8 ar   
    18    8    9 1    
    19   10   11 1    
    20   11   12 2    
    21   11   24 1    
    22   12   13 1    
    23   12   22 1    
    24   13   14 1    
    25   13   15 1    
    26   15   20 ar   
    27   15   16 ar   
    28   16   17 ar   
    29   16   32 1    
    30   17   18 ar   
    31   17   33 1    
    32   18   19 ar   
    33   18   34 1    
    34   19   20 ar   
    35   19   35 1    
    36   20   21 1    
    37   22   23 3    
    38   24   36 1    
    39   24   37 1    
@<TRIPOS>SUBSTRUCTURE
     1 UNK         1 GROUP             0       ****    0 ROOT    
