@<TRIPOS>MOLECULE
ZINC38984178_3481
53   56    1
SMALL
USER_CHARGES


@<TRIPOS>ATOM
      1 C1          3.3664   52.6462   29.3362 C.3       1 UNK         0.0000 
      2 C2          2.5677   52.6830   28.0453 C.ar      1 UNK         0.0000 
      3 C3          1.3046   52.0964   27.9735 C.ar      1 UNK         0.0000 
      4 C4          0.5771   52.1542   26.7874 C.ar      1 UNK         0.0000 
      5 C5          1.0993   52.7867   25.6527 C.ar      1 UNK         0.0000 
      6 C6          2.4024   53.3269   25.6967 C.ar      1 UNK         0.0000 
      7 C7          3.1057   53.2967   26.9116 C.ar      1 UNK         0.0000 
      8 S8          3.1826   54.1428   24.2753 S.o2      1 UNK         0.0000 
      9 O9          4.5459   54.4380   24.7355 O.2       1 UNK         0.0000 
     10 O10         2.3044   55.2857   24.0817 O.2       1 UNK         0.0000 
     11 N11         2.9975   52.8967   23.0659 N.2       1 UNK         0.0000 
     12 C12         3.6243   53.0307   21.9667 C.2       1 UNK         0.0000 
     13 C13         3.5097   51.8541   20.9259 C.3       1 UNK         0.0000 
     14 H14         4.0282   50.9972   21.3525 H         1 UNK         0.0000 
     15 N15         4.3044   52.0967   19.6817 N.pl3     1 UNK         0.0000 
     16 C16         5.0442   53.1755   19.4606 C.2       1 UNK         0.0000 
     17 C17         5.7921   53.2967   18.2881 C.2       1 UNK         0.0000 
     18 C18         6.5516   54.4075   18.0948 C.2       1 UNK         0.0000 
     19 C19         6.6116   55.4896   19.0798 C.2       1 UNK         0.0000 
     20 C20         5.9045   55.3929   20.2316 C.2       1 UNK         0.0000 
     21 C21         5.0723   54.2498   20.5427 C.2       1 UNK         0.0000 
     22 N22         4.4271   54.1340   21.6447 N.2       1 UNK         0.0000 
     23 N23         2.1312   51.4299   20.6340 N.pl3     1 UNK         0.0000 
     24 C24         1.3396   50.6811   21.5257 C.ar      1 UNK         0.0000 
     25 C25        -0.0328   50.6053   21.2815 C.ar      1 UNK         0.0000 
     26 C26        -0.8820   49.9956   22.2057 C.ar      1 UNK         0.0000 
     27 C27        -0.3644   49.4676   23.3952 C.ar      1 UNK         0.0000 
     28 C28         1.0188   49.4858   23.6001 C.ar      1 UNK         0.0000 
     29 C29         1.8650   50.0648   22.6652 C.ar      1 UNK         0.0000 
     30 C30        -1.2804   48.8968   24.4490 C.2       1 UNK         0.0000 
     31 O31        -2.4464   48.5851   24.2183 O.2       1 UNK         0.0000 
     32 O32        -0.7091   48.8017   25.6817 O.3       1 UNK         0.0000 
     33 C33         0.1858   52.9302   24.4413 C.3       1 UNK         0.0000 
     34 H34         2.8114   52.1838   30.1533 H         1 UNK         0.0000 
     35 H35         4.2955   52.0944   29.1881 H         1 UNK         0.0000 
     36 H36         3.6363   53.6587   29.6386 H         1 UNK         0.0000 
     37 H37         0.8737   51.6069   28.8356 H         1 UNK         0.0000 
     38 H38        -0.4124   51.7199   26.7635 H         1 UNK         0.0000 
     39 H39         4.0909   53.7341   26.9844 H         1 UNK         0.0000 
     40 H40         5.7683   52.5022   17.5516 H         1 UNK         0.0000 
     41 H41         7.1347   54.4918   17.1877 H         1 UNK         0.0000 
     42 H42         7.2185   56.3623   18.8817 H         1 UNK         0.0000 
     43 H43         5.9643   56.2063   20.9402 H         1 UNK         0.0000 
     44 H44         1.6546   51.9071   19.8809 H         1 UNK         0.0000 
     45 H45        -0.4538   51.0550   20.3942 H         1 UNK         0.0000 
     46 H46        -1.9456   49.9779   22.0103 H         1 UNK         0.0000 
     47 H47         1.4573   49.0708   24.4976 H         1 UNK         0.0000 
     48 H48         2.9204   50.0699   22.8817 H         1 UNK         0.0000 
     49 H49        -1.2956   48.4957   26.3855 H         1 UNK         0.0000 
     50 H50        -0.8474   52.6711   24.6752 H         1 UNK         0.0000 
     51 H51         0.1715   53.9582   24.0817 H         1 UNK         0.0000 
     52 H52         0.5131   52.3011   23.6211 H         1 UNK         0.0000 
     53 H53         4.3722   51.3464   18.9827 H         1 UNK         0.0000 
@<TRIPOS>BOND
     1    1    2 1    
     2    1   34 1    
     3    1   35 1    
     4    1   36 1    
     5    2    7 ar   
     6    2    3 ar   
     7    3    4 ar   
     8    3   37 1    
     9    4    5 ar   
    10    4   38 1    
    11    5    6 ar   
    12    5   33 1    
    13    6    7 ar   
    14    6    8 1    
    15    7   39 1    
    16    8    9 2    
    17    8   10 2    
    18    8   11 1    
    19   11   12 2    
    20   12   22 1    
    21   12   13 1    
    22   13   14 1    
    23   13   15 1    
    24   13   23 1    
    25   15   16 2    
    26   15   53 1    
    27   16   21 1    
    28   16   17 1    
    29   17   18 2    
    30   17   40 1    
    31   18   19 1    
    32   18   41 1    
    33   19   20 2    
    34   19   42 1    
    35   20   21 1    
    36   20   43 1    
    37   21   22 2    
    38   23   24 1    
    39   23   44 1    
    40   24   29 ar   
    41   24   25 ar   
    42   25   26 ar   
    43   25   45 1    
    44   26   27 ar   
    45   26   46 1    
    46   27   28 ar   
    47   27   30 1    
    48   28   29 ar   
    49   28   47 1    
    50   29   48 1    
    51   30   31 2    
    52   30   32 1    
    53   32   49 1    
    54   33   50 1    
    55   33   51 1    
    56   33   52 1    
@<TRIPOS>SUBSTRUCTURE
     1 UNK         1 GROUP             0       ****    0 ROOT    
