@<TRIPOS>MOLECULE
ZINC39634418_4078
66   70    1
SMALL
USER_CHARGES


@<TRIPOS>ATOM
      1 C1          6.1328   54.7589   27.2022 C.3       1 UNK         0.0000 
      2 C2          5.7282   54.5188   25.7581 C.ar      1 UNK         0.0000 
      3 C3          4.3863   54.3338   25.4232 C.ar      1 UNK         0.0000 
      4 C4          4.0275   54.1082   24.0963 C.ar      1 UNK         0.0000 
      5 C5          5.0060   54.1029   23.0930 C.ar      1 UNK         0.0000 
      6 C6          6.3466   54.2865   23.4361 C.ar      1 UNK         0.0000 
      7 C7          6.7043   54.4965   24.7635 C.ar      1 UNK         0.0000 
      8 C8          4.6361   53.9130   21.6247 C.3       1 UNK         0.0000 
      9 N9          3.4552   53.0802   21.4072 N.am      1 UNK         0.0000 
     10 C10         3.4765   51.7691   21.1166 C.2       1 UNK         0.0000 
     11 O11         4.5268   51.1721   20.8948 O.2       1 UNK         0.0000 
     12 C12         2.1363   50.9993   20.9632 C.3       1 UNK         0.0000 
     13 H13         2.3357   49.9905   21.3306 H         1 UNK         0.0000 
     14 C14         1.0646   51.5667   21.9263 C.3       1 UNK         0.0000 
     15 N15        -0.1879   51.4855   21.1722 N.am      1 UNK         0.0000 
     16 C16         0.0098   50.9801   19.8056 C.3       1 UNK         0.0000 
     17 C17         1.5291   50.9900   19.5298 C.3       1 UNK         0.0000 
     18 C18         1.9288   52.2320   18.6610 C.3       1 UNK         0.0000 
     19 C19         1.3613   52.1969   17.2273 C.3       1 UNK         0.0000 
     20 N20         1.8264   50.8867   16.5546 N.4       1 UNK         0.0000 
     21 C21         1.4051   49.6321   17.3466 C.3       1 UNK         0.0000 
     22 C22         2.0192   49.7444   18.7500 C.3       1 UNK         0.0000 
     23 C23        -1.4494   51.6977   21.6458 C.2       1 UNK         0.0000 
     24 O24        -2.4263   51.6918   20.8899 O.2       1 UNK         0.0000 
     25 C25        -1.6859   51.9258   23.0677 C.2       1 UNK         0.0000 
     26 C26        -2.8951   52.1039   23.7296 C.2       1 UNK         0.0000 
     27 C27        -2.6154   52.1976   25.0896 C.2       1 UNK         0.0000 
     28 C28        -1.2406   52.0989   25.2303 C.2       1 UNK         0.0000 
     29 O29        -0.6822   51.9592   23.9940 O.3       1 UNK         0.0000 
     30 C30        -0.3451   52.0969   26.4253 C.ar      1 UNK         0.0000 
     31 C31         0.9927   52.4957   26.3348 C.ar      1 UNK         0.0000 
     32 C32         1.7957   52.4966   27.4737 C.ar      1 UNK         0.0000 
     33 C33         1.2682   52.0966   28.6977 C.ar      1 UNK         0.0000 
     34 C34        -0.0614   51.6980   28.7977 C.ar      1 UNK         0.0000 
     35 C35        -0.8673   51.6954   27.6603 C.ar      1 UNK         0.0000 
     36 F36         2.0565   52.0946   29.7975 F         1 UNK         0.0000 
     37 H37         5.2721   54.8524   27.8662 H         1 UNK         0.0000 
     38 H38         6.7661   53.9439   27.5592 H         1 UNK         0.0000 
     39 H39         6.7104   55.6791   27.2819 H         1 UNK         0.0000 
     40 H40         3.6222   54.3677   26.1841 H         1 UNK         0.0000 
     41 H41         2.9847   53.9774   23.8486 H         1 UNK         0.0000 
     42 H42         7.1193   54.2855   22.6802 H         1 UNK         0.0000 
     43 H43         7.7443   54.6431   25.0074 H         1 UNK         0.0000 
     44 H44         4.4491   54.8949   21.1914 H         1 UNK         0.0000 
     45 H45         5.5007   53.5059   21.0927 H         1 UNK         0.0000 
     46 H46         2.5650   53.5492   21.4762 H         1 UNK         0.0000 
     47 H47         1.0389   50.9442   22.8209 H         1 UNK         0.0000 
     48 H48         1.1974   52.6237   22.1567 H         1 UNK         0.0000 
     49 H49        -0.5937   51.4457   19.0283 H         1 UNK         0.0000 
     50 H50        -0.3095   49.9392   19.8482 H         1 UNK         0.0000 
     51 H51         1.5994   53.1474   19.1504 H         1 UNK         0.0000 
     52 H52         3.0145   52.3188   18.5783 H         1 UNK         0.0000 
     53 H53         0.2717   52.2115   17.1859 H         1 UNK         0.0000 
     54 H54         1.7494   53.0113   16.6138 H         1 UNK         0.0000 
     55 H55         1.4771   50.8311   15.6087 H         1 UNK         0.0000 
     56 H56         0.3147   49.5879   17.3383 H         1 UNK         0.0000 
     57 H57         1.8113   48.7823   16.7936 H         1 UNK         0.0000 
     58 H58         3.1047   49.7378   18.6880 H         1 UNK         0.0000 
     59 H59         1.7641   48.8423   19.3042 H         1 UNK         0.0000 
     60 H60        -3.8783   52.1222   23.2805 H         1 UNK         0.0000 
     61 H61        -3.3334   52.3132   25.8859 H         1 UNK         0.0000 
     62 H62         1.4108   52.8011   25.3882 H         1 UNK         0.0000 
     63 H63         2.8328   52.7900   27.4179 H         1 UNK         0.0000 
     64 H64        -0.4657   51.3753   29.7477 H         1 UNK         0.0000 
     65 H65        -1.8925   51.3637   27.7493 H         1 UNK         0.0000 
     66 H66         2.8418   50.8531   16.4929 H         1 UNK         0.0000 
@<TRIPOS>BOND
     1    1    2 1    
     2    1   37 1    
     3    1   38 1    
     4    1   39 1    
     5    2    7 ar   
     6    2    3 ar   
     7    3    4 ar   
     8    3   40 1    
     9    4    5 ar   
    10    4   41 1    
    11    5    6 ar   
    12    5    8 1    
    13    6    7 ar   
    14    6   42 1    
    15    7   43 1    
    16    8    9 1    
    17    8   44 1    
    18    8   45 1    
    19    9   10 am   BACKBONE|DICT|INTERRES
    20    9   46 1    
    21   10   11 2    
    22   10   12 1    
    23   12   13 1    
    24   12   17 1    
    25   12   14 1    
    26   14   15 1    
    27   14   47 1    
    28   14   48 1    
    29   15   16 1    
    30   15   23 am   BACKBONE|DICT|INTERRES
    31   16   17 1    
    32   16   49 1    
    33   16   50 1    
    34   17   22 1    
    35   17   18 1    
    36   18   19 1    
    37   18   51 1    
    38   18   52 1    
    39   19   20 1    
    40   19   53 1    
    41   19   54 1    
    42   20   21 1    
    43   20   55 1    
    44   20   66 1    
    45   21   22 1    
    46   21   56 1    
    47   21   57 1    
    48   22   58 1    
    49   22   59 1    
    50   23   24 2    
    51   23   25 1    
    52   25   29 1    
    53   25   26 2    
    54   26   27 1    
    55   26   60 1    
    56   27   28 2    
    57   27   61 1    
    58   28   29 1    
    59   28   30 1    
    60   30   35 ar   
    61   30   31 ar   
    62   31   32 ar   
    63   31   62 1    
    64   32   33 ar   
    65   32   63 1    
    66   33   34 ar   
    67   33   36 1    
    68   34   35 ar   
    69   34   64 1    
    70   35   65 1    
@<TRIPOS>SUBSTRUCTURE
     1 UNK         1 GROUP             0       ****    0 ROOT    
