@<TRIPOS>MOLECULE
ZINC63354680_6069
70   75    1
SMALL
USER_CHARGES


@<TRIPOS>ATOM
      1 C1          1.5412   52.5949   23.7260 C.3       1 UNK         0.0000 
      2 O2          1.2363   52.0991   25.0263 O.3       1 UNK         0.0000 
      3 C3         -0.0783   52.0532   25.4546 C.ar      1 UNK         0.0000 
      4 C4         -1.1630   52.4325   24.6484 C.ar      1 UNK         0.0000 
      5 C5         -2.4716   52.3306   25.1112 C.ar      1 UNK         0.0000 
      6 C6         -2.7414   51.8518   26.3994 C.ar      1 UNK         0.0000 
      7 C7         -1.6578   51.4982   27.2137 C.ar      1 UNK         0.0000 
      8 C8         -0.3385   51.5902   26.7548 C.ar      1 UNK         0.0000 
      9 C9          0.7942   51.1200   27.6677 C.3       1 UNK         0.0000 
     10 O10         1.8594   52.0689   27.7390 O.3       1 UNK         0.0000 
     11 C11         1.7648   53.1974   28.5323 C.ar      1 UNK         0.0000 
     12 C12         0.6894   53.4329   29.4067 C.ar      1 UNK         0.0000 
     13 C13         0.6433   54.5844   30.1857 C.ar      1 UNK         0.0000 
     14 C14         1.6508   55.5334   30.0817 C.ar      1 UNK         0.0000 
     15 C15         2.7331   55.3022   29.2397 C.ar      1 UNK         0.0000 
     16 C16         2.8154   54.1365   28.4661 C.ar      1 UNK         0.0000 
     17 C17         4.0228   53.9098   27.5341 C.3       1 UNK         0.0000 
     18 C18         3.8232   54.5907   26.1579 C.3       1 UNK         0.0000 
     19 C19         5.0155   54.3486   25.2085 C.3       1 UNK         0.0000 
     20 C20         6.3664   54.7218   25.8493 C.3       1 UNK         0.0000 
     21 C21         6.5691   54.0062   27.1989 C.3       1 UNK         0.0000 
     22 C22         5.3965   54.2575   28.1693 C.3       1 UNK         0.0000 
     23 C23        -4.1732   51.6386   26.9320 C.3       1 UNK         0.0000 
     24 H24        -4.0770   51.8308   28.0028 H         1 UNK         0.0000 
     25 C25        -4.6960   50.1709   26.8165 C.3       1 UNK         0.0000 
     26 H26        -5.4437   49.9680   27.5851 H         1 UNK         0.0000 
     27 C27        -5.2558   49.9383   25.4356 C.2       1 UNK         0.0000 
     28 C28        -4.5641   48.9651   24.8243 C.2       1 UNK         0.0000 
     29 C29        -4.6390   48.4047   23.4678 C.2       1 UNK         0.0000 
     30 C30        -3.7774   47.4445   23.0767 C.2       1 UNK         0.0000 
     31 C31        -2.7771   46.9865   24.0345 C.2       1 UNK         0.0000 
     32 C32        -2.7148   47.4751   25.3002 C.2       1 UNK         0.0000 
     33 C33        -3.6082   48.4700   25.7184 C.2       1 UNK         0.0000 
     34 N34        -3.6955   49.0800   26.8807 N.pl3     1 UNK         0.0000 
     35 C35        -6.3679   50.8800   25.0240 C.3       1 UNK         0.0000 
     36 C36        -5.8828   52.3347   25.2083 C.3       1 UNK         0.0000 
     37 N37        -5.1908   52.6053   26.4819 N.3       1 UNK         0.0000 
     38 H38         2.6205   52.5777   23.5774 H         1 UNK         0.0000 
     39 H39         1.0931   51.9767   22.9471 H         1 UNK         0.0000 
     40 H40         1.2112   53.6289   23.6060 H         1 UNK         0.0000 
     41 H41        -1.0095   52.7937   23.6448 H         1 UNK         0.0000 
     42 H42        -3.2582   52.6127   24.4387 H         1 UNK         0.0000 
     43 H43        -1.8430   51.1022   28.2036 H         1 UNK         0.0000 
     44 H44         1.2033   50.2018   27.2461 H         1 UNK         0.0000 
     45 H45         0.4386   50.8490   28.6610 H         1 UNK         0.0000 
     46 H46        -0.1281   52.7365   29.5015 H         1 UNK         0.0000 
     47 H47        -0.1848   54.7494   30.8564 H         1 UNK         0.0000 
     48 H48         1.6031   56.4388   30.6698 H         1 UNK         0.0000 
     49 H49         3.5035   56.0531   29.1947 H         1 UNK         0.0000 
     50 H50         4.0645   52.8341   27.3609 H         1 UNK         0.0000 
     51 H51         3.6792   55.6664   26.2697 H         1 UNK         0.0000 
     52 H52         2.9336   54.1857   25.6753 H         1 UNK         0.0000 
     53 H53         4.8743   54.9033   24.2797 H         1 UNK         0.0000 
     54 H54         5.0362   53.2989   24.9222 H         1 UNK         0.0000 
     55 H55         6.4148   55.8029   25.9937 H         1 UNK         0.0000 
     56 H56         7.1787   54.4708   25.1670 H         1 UNK         0.0000 
     57 H57         7.5029   54.3335   27.6572 H         1 UNK         0.0000 
     58 H58         6.6719   52.9335   27.0279 H         1 UNK         0.0000 
     59 H59         5.5613   53.6338   29.0497 H         1 UNK         0.0000 
     60 H60         5.4426   55.2964   28.4840 H         1 UNK         0.0000 
     61 H61        -5.3786   48.7455   22.7567 H         1 UNK         0.0000 
     62 H62        -3.8275   47.0233   22.0829 H         1 UNK         0.0000 
     63 H63        -2.0499   46.2509   23.7218 H         1 UNK         0.0000 
     64 H64        -1.9450   47.1172   25.9736 H         1 UNK         0.0000 
     65 H65        -7.2524   50.7103   25.6389 H         1 UNK         0.0000 
     66 H66        -6.6819   50.7200   23.9935 H         1 UNK         0.0000 
     67 H67        -6.7186   53.0289   25.1138 H         1 UNK         0.0000 
     68 H68        -5.2504   52.5973   24.3636 H         1 UNK         0.0000 
     69 H69        -4.8161   53.5439   26.4983 H         1 UNK         0.0000 
     70 H70        -3.0717   48.8936   27.6754 H         1 UNK         0.0000 
@<TRIPOS>BOND
     1    1    2 1    
     2    1   38 1    
     3    1   39 1    
     4    1   40 1    
     5    2    3 1    
     6    3    8 ar   
     7    3    4 ar   
     8    4    5 ar   
     9    4   41 1    
    10    5    6 ar   
    11    5   42 1    
    12    6    7 ar   
    13    6   23 1    
    14    7    8 ar   
    15    7   43 1    
    16    8    9 1    
    17    9   10 1    
    18    9   44 1    
    19    9   45 1    
    20   10   11 1    
    21   11   16 ar   
    22   11   12 ar   
    23   12   13 ar   
    24   12   46 1    
    25   13   14 ar   
    26   13   47 1    
    27   14   15 ar   
    28   14   48 1    
    29   15   16 ar   
    30   15   49 1    
    31   16   17 1    
    32   17   22 1    
    33   17   18 1    
    34   17   50 1    
    35   18   19 1    
    36   18   51 1    
    37   18   52 1    
    38   19   20 1    
    39   19   53 1    
    40   19   54 1    
    41   20   21 1    
    42   20   55 1    
    43   20   56 1    
    44   21   22 1    
    45   21   57 1    
    46   21   58 1    
    47   22   59 1    
    48   22   60 1    
    49   23   24 1    
    50   23   37 1    
    51   23   25 1    
    52   25   26 1    
    53   25   34 1    
    54   25   27 1    
    55   27   28 2    
    56   27   35 1    
    57   28   33 1    
    58   28   29 1    
    59   29   30 2    
    60   29   61 1    
    61   30   31 1    
    62   30   62 1    
    63   31   32 2    
    64   31   63 1    
    65   32   33 1    
    66   32   64 1    
    67   33   34 2    
    68   34   70 1    
    69   35   36 1    
    70   35   65 1    
    71   35   66 1    
    72   36   37 1    
    73   36   67 1    
    74   36   68 1    
    75   37   69 1    
@<TRIPOS>SUBSTRUCTURE
     1 UNK         1 GROUP             0       ****    0 ROOT    
