@<TRIPOS>MOLECULE
ZINC65074858_3093
71   74    1
SMALL
USER_CHARGES


@<TRIPOS>ATOM
      1 C1          0.0852   52.5558   29.5210 C.3       1 UNK         0.0000 
      2 C2          0.4410   53.6632   28.5090 C.3       1 UNK         0.0000 
      3 C3          1.1038   54.8550   29.2307 C.3       1 UNK         0.0000 
      4 C4          1.3430   53.1692   27.3495 C.3       1 UNK         0.0000 
      5 C5          0.7192   52.1353   26.4137 C.ar      1 UNK         0.0000 
      6 C6          0.2089   52.5227   25.1744 C.ar      1 UNK         0.0000 
      7 C7         -0.3114   51.5749   24.3024 C.ar      1 UNK         0.0000 
      8 C8         -0.2711   50.2245   24.6416 C.ar      1 UNK         0.0000 
      9 C9          0.2230   49.8276   25.8888 C.ar      1 UNK         0.0000 
     10 C10         0.7040   50.7891   26.7747 C.ar      1 UNK         0.0000 
     11 S11        -0.8635   49.0216   23.4528 S.o2      1 UNK         0.0000 
     12 O12        -0.4962   47.6963   23.9700 O.2       1 UNK         0.0000 
     13 O13        -2.2629   49.3699   23.1857 O.2       1 UNK         0.0000 
     14 N14         0.0797   49.3236   21.9718 N.pl3     1 UNK         0.0000 
     15 C15        -0.4158   50.2565   20.9237 C.3       1 UNK         0.0000 
     16 C16         0.5171   51.4719   20.7178 C.3       1 UNK         0.0000 
     17 C17         2.0112   51.0887   20.5359 C.3       1 UNK         0.0000 
     18 C18         2.4108   50.1981   21.7470 C.3       1 UNK         0.0000 
     19 C19         1.5171   48.9662   21.9329 C.3       1 UNK         0.0000 
     20 C20         2.8700   52.3592   20.4396 C.2       1 UNK         0.0000 
     21 N21         3.1596   52.9457   19.2711 N.pl3     1 UNK         0.0000 
     22 C22         2.9241   52.3629   17.9527 C.3       1 UNK         0.0000 
     23 C23         2.0247   51.1228   18.0675 C.3       1 UNK         0.0000 
     24 N24         2.3044   50.3671   19.2825 N.3       1 UNK         0.0000 
     25 N25         3.3059   52.8780   21.5950 N.pl3     1 UNK         0.0000 
     26 C26         4.0997   54.0880   21.8001 C.3       1 UNK         0.0000 
     27 C27         4.7874   54.0965   23.1574 C.ar      1 UNK         0.0000 
     28 C28         6.1797   54.1015   23.2161 C.ar      1 UNK         0.0000 
     29 C29         6.8235   54.1050   24.4469 C.ar      1 UNK         0.0000 
     30 C30         6.0943   54.1188   25.6355 C.ar      1 UNK         0.0000 
     31 C31         4.6914   54.1225   25.5739 C.ar      1 UNK         0.0000 
     32 C32         4.0412   54.1053   24.3392 C.ar      1 UNK         0.0000 
     33 O33         6.8320   54.1372   26.8034 O.3       1 UNK         0.0000 
     34 C34         6.1584   54.0937   28.0558 C.3       1 UNK         0.0000 
     35 H35         0.9790   52.0934   29.9421 H         1 UNK         0.0000 
     36 H36        -0.5129   51.7668   29.0637 H         1 UNK         0.0000 
     37 H37        -0.5010   52.9478   30.3539 H         1 UNK         0.0000 
     38 H38        -0.4956   54.0291   28.0834 H         1 UNK         0.0000 
     39 H39         2.0853   54.5879   29.6260 H         1 UNK         0.0000 
     40 H40         1.2359   55.7018   28.5532 H         1 UNK         0.0000 
     41 H41         0.4960   55.2025   30.0677 H         1 UNK         0.0000 
     42 H42         1.6590   54.0229   26.7472 H         1 UNK         0.0000 
     43 H43         2.2700   52.7550   27.7491 H         1 UNK         0.0000 
     44 H44         0.2173   53.5610   24.8785 H         1 UNK         0.0000 
     45 H45        -0.7332   51.8883   23.3613 H         1 UNK         0.0000 
     46 H46         0.2333   48.7840   26.1781 H         1 UNK         0.0000 
     47 H47         1.0965   50.4965   27.7351 H         1 UNK         0.0000 
     48 H48        -0.5389   49.6845   20.0022 H         1 UNK         0.0000 
     49 H49        -1.4153   50.5980   21.1959 H         1 UNK         0.0000 
     50 H50         0.1598   52.0742   19.8848 H         1 UNK         0.0000 
     51 H51         0.4462   52.1406   21.5718 H         1 UNK         0.0000 
     52 H52         2.3537   50.7618   22.6774 H         1 UNK         0.0000 
     53 H53         3.4510   49.8915   21.6537 H         1 UNK         0.0000 
     54 H54         1.7736   48.4967   22.8804 H         1 UNK         0.0000 
     55 H55         1.6741   48.2252   21.1474 H         1 UNK         0.0000 
     56 H56         2.4936   53.1166   17.2944 H         1 UNK         0.0000 
     57 H57         3.9058   52.0864   17.5626 H         1 UNK         0.0000 
     58 H58         0.9726   51.4050   18.0192 H         1 UNK         0.0000 
     59 H59         2.2139   50.4817   17.2048 H         1 UNK         0.0000 
     60 H60         3.2577   50.0240   19.2108 H         1 UNK         0.0000 
     61 H61         3.0528   52.3734   22.4313 H         1 UNK         0.0000 
     62 H62         4.8380   54.1303   20.9980 H         1 UNK         0.0000 
     63 H63         3.4327   54.9415   21.6825 H         1 UNK         0.0000 
     64 H64         6.7703   54.1025   22.3137 H         1 UNK         0.0000 
     65 H65         7.9037   54.0967   24.4780 H         1 UNK         0.0000 
     66 H66         4.0962   54.1306   26.4722 H         1 UNK         0.0000 
     67 H67         2.9615   54.1087   24.3059 H         1 UNK         0.0000 
     68 H68         6.8940   54.0886   28.8590 H         1 UNK         0.0000 
     69 H69         5.5221   54.9672   28.1999 H         1 UNK         0.0000 
     70 H70         5.5573   53.1873   28.1567 H         1 UNK         0.0000 
     71 H71         3.6891   53.8048   19.3170 H         1 UNK         0.0000 
@<TRIPOS>BOND
     1    1    2 1    
     2    1   35 1    
     3    1   36 1    
     4    1   37 1    
     5    2    3 1    
     6    2    4 1    
     7    2   38 1    
     8    3   39 1    
     9    3   40 1    
    10    3   41 1    
    11    4    5 1    
    12    4   42 1    
    13    4   43 1    
    14    5   10 ar   
    15    5    6 ar   
    16    6    7 ar   
    17    6   44 1    
    18    7    8 ar   
    19    7   45 1    
    20    8    9 ar   
    21    8   11 1    
    22    9   10 ar   
    23    9   46 1    
    24   10   47 1    
    25   11   12 2    
    26   11   13 2    
    27   11   14 1    
    28   14   19 1    
    29   14   15 1    
    30   15   16 1    
    31   15   48 1    
    32   15   49 1    
    33   16   17 1    
    34   16   50 1    
    35   16   51 1    
    36   17   24 1    
    37   17   18 1    
    38   17   20 1    
    39   18   19 1    
    40   18   52 1    
    41   18   53 1    
    42   19   54 1    
    43   19   55 1    
    44   20   21 2    
    45   20   25 1    
    46   21   22 1    
    47   21   71 1    
    48   22   23 1    
    49   22   56 1    
    50   22   57 1    
    51   23   24 1    
    52   23   58 1    
    53   23   59 1    
    54   24   60 1    
    55   25   26 1    
    56   25   61 1    
    57   26   27 1    
    58   26   62 1    
    59   26   63 1    
    60   27   32 ar   
    61   27   28 ar   
    62   28   29 ar   
    63   28   64 1    
    64   29   30 ar   
    65   29   65 1    
    66   30   31 ar   
    67   30   33 1    
    68   31   32 ar   
    69   31   66 1    
    70   32   67 1    
    71   33   34 1    
    72   34   68 1    
    73   34   69 1    
    74   34   70 1    
@<TRIPOS>SUBSTRUCTURE
     1 UNK         1 GROUP             0       ****    0 ROOT    
