@<TRIPOS>MOLECULE
ZINC40733284_1144
55   58    1
SMALL
USER_CHARGES


@<TRIPOS>ATOM
      1 C1          1.3221   56.7608   30.5226 C.3       1 UNK         0.0000 
      2 C2          1.5018   55.3536   29.9903 C.ar      1 UNK         0.0000 
      3 C3          0.7053   54.3064   30.4667 C.ar      1 UNK         0.0000 
      4 C4          0.8754   53.0162   29.9633 C.ar      1 UNK         0.0000 
      5 C5          1.8292   52.7693   28.9759 C.ar      1 UNK         0.0000 
      6 C6          2.6255   53.8132   28.4852 C.ar      1 UNK         0.0000 
      7 C7          2.4550   55.1022   28.9996 C.ar      1 UNK         0.0000 
      8 C8          3.6719   53.5415   27.4105 C.3       1 UNK         0.0000 
      9 O9          3.7598   54.6442   26.5036 O.3       1 UNK         0.0000 
     10 C10         3.9656   54.3093   25.1852 C.ar      1 UNK         0.0000 
     11 C11         2.9072   53.8175   24.4041 C.ar      1 UNK         0.0000 
     12 C12         3.1475   53.4881   23.0587 C.ar      1 UNK         0.0000 
     13 C13         4.4275   53.6227   22.5033 C.ar      1 UNK         0.0000 
     14 C14         5.4680   54.1046   23.3006 C.ar      1 UNK         0.0000 
     15 C15         5.2394   54.4646   24.6288 C.ar      1 UNK         0.0000 
     16 Br16        6.6815   55.1446   25.6736 Br        1 UNK         0.0000 
     17 C17         4.7189   53.2487   21.0549 C.3       1 UNK         0.0000 
     18 N18         3.5010   53.2607   20.1106 N.4       1 UNK         0.0000 
     19 C19         3.8261   53.0851   18.6164 C.3       1 UNK         0.0000 
     20 C20         4.6351   54.2556   18.0757 C.ar      1 UNK         0.0000 
     21 C21         6.0080   54.1070   17.7961 C.ar      1 UNK         0.0000 
     22 C22         6.7734   55.2004   17.3636 C.ar      1 UNK         0.0000 
     23 C23         6.1302   56.4245   17.2176 C.ar      1 UNK         0.0000 
     24 C24         4.7954   56.5665   17.4655 C.ar      1 UNK         0.0000 
     25 C25         4.0100   55.5007   17.8865 C.ar      1 UNK         0.0000 
     26 O26         4.4218   57.8502   17.2254 O.3       1 UNK         0.0000 
     27 C27         5.5973   58.5580   16.9155 C.3       1 UNK         0.0000 
     28 O28         6.6413   57.6188   16.8118 O.3       1 UNK         0.0000 
     29 O29         1.6772   53.6808   25.0215 O.3       1 UNK         0.0000 
     30 C30         0.6015   53.0704   24.3154 C.3       1 UNK         0.0000 
     31 H31         0.3038   56.9149   30.8609 H         1 UNK         0.0000 
     32 H32         1.9826   56.9574   31.3659 H         1 UNK         0.0000 
     33 H33         1.5149   57.5013   29.7457 H         1 UNK         0.0000 
     34 H34        -0.0313   54.4858   31.2380 H         1 UNK         0.0000 
     35 H35         0.2641   52.2091   30.3458 H         1 UNK         0.0000 
     36 H36         1.9453   51.7640   28.5935 H         1 UNK         0.0000 
     37 H37         3.0679   55.9115   28.6326 H         1 UNK         0.0000 
     38 H38         3.4295   52.6071   26.9023 H         1 UNK         0.0000 
     39 H39         4.6407   53.4044   27.8920 H         1 UNK         0.0000 
     40 H40         2.3444   53.1097   22.4426 H         1 UNK         0.0000 
     41 H41         6.4621   54.2167   22.8885 H         1 UNK         0.0000 
     42 H42         5.1319   52.2413   20.9780 H         1 UNK         0.0000 
     43 H43         5.4331   53.9480   20.6172 H         1 UNK         0.0000 
     44 H44         3.0003   54.1399   20.2197 H         1 UNK         0.0000 
     45 H45         2.8491   53.0370   18.1354 H         1 UNK         0.0000 
     46 H46         4.3038   52.0989   18.5245 H         1 UNK         0.0000 
     47 H47         6.4852   53.1433   17.9288 H         1 UNK         0.0000 
     48 H48         7.8273   55.0873   17.1570 H         1 UNK         0.0000 
     49 H49         2.9548   55.6284   18.0824 H         1 UNK         0.0000 
     50 H50         5.4659   59.0905   15.9693 H         1 UNK         0.0000 
     51 H51         5.8170   59.2839   17.7046 H         1 UNK         0.0000 
     52 H52        -0.2537   52.9557   24.9832 H         1 UNK         0.0000 
     53 H53         0.2860   53.6855   23.4709 H         1 UNK         0.0000 
     54 H54         0.8680   52.0730   23.9581 H         1 UNK         0.0000 
     55 H55         2.8680   52.5272   20.3958 H         1 UNK         0.0000 
@<TRIPOS>BOND
     1    1    2 1    
     2    1   31 1    
     3    1   32 1    
     4    1   33 1    
     5    2    7 ar   
     6    2    3 ar   
     7    3    4 ar   
     8    3   34 1    
     9    4    5 ar   
    10    4   35 1    
    11    5    6 ar   
    12    5   36 1    
    13    6    7 ar   
    14    6    8 1    
    15    7   37 1    
    16    8    9 1    
    17    8   38 1    
    18    8   39 1    
    19    9   10 1    
    20   10   15 ar   
    21   10   11 ar   
    22   11   12 ar   
    23   11   29 1    
    24   12   13 ar   
    25   12   40 1    
    26   13   14 ar   
    27   13   17 1    
    28   14   15 ar   
    29   14   41 1    
    30   15   16 1    
    31   17   18 1    
    32   17   42 1    
    33   17   43 1    
    34   18   19 1    
    35   18   44 1    
    36   18   55 1    
    37   19   20 1    
    38   19   45 1    
    39   19   46 1    
    40   20   25 ar   
    41   20   21 ar   
    42   21   22 ar   
    43   21   47 1    
    44   22   23 ar   
    45   22   48 1    
    46   23   28 1    
    47   23   24 ar   
    48   24   25 ar   
    49   24   26 1    
    50   25   49 1    
    51   26   27 1    
    52   27   28 1    
    53   27   50 1    
    54   27   51 1    
    55   29   30 1    
    56   30   52 1    
    57   30   53 1    
    58   30   54 1    
@<TRIPOS>SUBSTRUCTURE
     1 UNK         1 GROUP             0       ****    0 ROOT    
