@<TRIPOS>MOLECULE
ZINC36056505_4287
41   43    1
SMALL
USER_CHARGES


@<TRIPOS>ATOM
      1 C1          0.7164   51.5930   21.5475 C.ar      1 UNK         0.0000 
      2 C2          0.1709   52.0963   20.3715 C.ar      1 UNK         0.0000 
      3 C3         -1.1049   51.6977   19.9781 C.ar      1 UNK         0.0000 
      4 C4         -1.8175   50.7679   20.7275 C.ar      1 UNK         0.0000 
      5 C5         -1.2662   50.2585   21.8991 C.ar      1 UNK         0.0000 
      6 C6         -0.0057   50.6866   22.3329 C.ar      1 UNK         0.0000 
      7 C7          0.5808   50.2055   23.6730 C.3       1 UNK         0.0000 
      8 H8          1.6636   50.1945   23.5236 H         1 UNK         0.0000 
      9 C9          0.2498   51.0529   24.9491 C.3       1 UNK         0.0000 
     10 H10         0.9727   50.7407   25.7028 H         1 UNK         0.0000 
     11 C11        -1.1539   50.6985   25.5642 C.3       1 UNK         0.0000 
     12 N12        -1.1729   49.2254   25.6812 N.am      1 UNK         0.0000 
     13 C13        -0.6705   48.3318   24.8022 C.2       1 UNK         0.0000 
     14 O14        -1.1378   47.2073   24.6449 O.2       1 UNK         0.0000 
     15 N15         0.3040   48.7986   23.9961 N.am      1 UNK         0.0000 
     16 C16        -1.4218   51.3716   26.9510 C.3       1 UNK         0.0000 
     17 F17        -1.4862   52.7011   26.8816 F         1 UNK         0.0000 
     18 F18        -2.5829   50.9690   27.4770 F         1 UNK         0.0000 
     19 F19        -0.4666   51.0800   27.8334 F         1 UNK         0.0000 
     20 O20        -2.2218   51.0922   24.7156 O.3       1 UNK         0.0000 
     21 C21         0.5068   52.5708   24.7338 C.2       1 UNK         0.0000 
     22 O22        -0.2481   53.2383   24.0243 O.2       1 UNK         0.0000 
     23 C23         1.7884   53.1210   25.2582 C.ar      1 UNK         0.0000 
     24 C24         2.6092   53.8782   24.4128 C.ar      1 UNK         0.0000 
     25 C25         3.7997   54.4183   24.8940 C.ar      1 UNK         0.0000 
     26 C26         4.1530   54.2372   26.2284 C.ar      1 UNK         0.0000 
     27 C27         3.3185   53.5261   27.0897 C.ar      1 UNK         0.0000 
     28 C28         2.1349   52.9694   26.6056 C.ar      1 UNK         0.0000 
     29 Cl29        5.6385   54.8956   26.8191 Cl        1 UNK         0.0000 
     30 Br30       -1.8983   52.4681   18.4308 Br        1 UNK         0.0000 
     31 H31         1.6935   51.9320   21.8598 H         1 UNK         0.0000 
     32 H32         0.7225   52.8180   19.7847 H         1 UNK         0.0000 
     33 H33        -2.8035   50.4559   20.4143 H         1 UNK         0.0000 
     34 H34        -1.8414   49.5543   22.4824 H         1 UNK         0.0000 
     35 H35        -1.6923   48.8264   26.4547 H         1 UNK         0.0000 
     36 H36         0.8532   48.0990   23.5232 H         1 UNK         0.0000 
     37 H37        -2.9921   50.5653   24.9422 H         1 UNK         0.0000 
     38 H38         2.3412   54.0358   23.3765 H         1 UNK         0.0000 
     39 H39         4.4497   54.9691   24.2316 H         1 UNK         0.0000 
     40 H40         3.5942   53.3953   28.1257 H         1 UNK         0.0000 
     41 H41         1.5019   52.4263   27.2910 H         1 UNK         0.0000 
@<TRIPOS>BOND
     1    1    6 ar   
     2    1    2 ar   
     3    1   31 1    
     4    2    3 ar   
     5    2   32 1    
     6    3    4 ar   
     7    3   30 1    
     8    4    5 ar   
     9    4   33 1    
    10    5    6 ar   
    11    5   34 1    
    12    6    7 1    
    13    7    8 1    
    14    7   15 1    
    15    7    9 1    
    16    9   10 1    
    17    9   11 1    
    18    9   21 1    
    19   11   12 1    
    20   11   16 1    
    21   11   20 1    
    22   12   13 am   BACKBONE|DICT|INTERRES
    23   12   35 1    
    24   13   14 2    
    25   13   15 am   BACKBONE|DICT|INTERRES
    26   15   36 1    
    27   16   17 1    
    28   16   18 1    
    29   16   19 1    
    30   20   37 1    
    31   21   22 2    
    32   21   23 1    
    33   23   28 ar   
    34   23   24 ar   
    35   24   25 ar   
    36   24   38 1    
    37   25   26 ar   
    38   25   39 1    
    39   26   27 ar   
    40   26   29 1    
    41   27   28 ar   
    42   27   40 1    
    43   28   41 1    
@<TRIPOS>SUBSTRUCTURE
     1 UNK         1 GROUP             0       ****    0 ROOT    
