@<TRIPOS>MOLECULE
ZINC12754936_2704
54   57    1
SMALL
USER_CHARGES


@<TRIPOS>ATOM
      1 C1         -1.3550   50.2842   22.6487 C.3       1 UNK         0.0000 
      2 C2         -1.2614   50.5151   24.1496 C.ar      1 UNK         0.0000 
      3 C3         -0.2292   49.8915   24.8617 C.ar      1 UNK         0.0000 
      4 C4         -0.0792   50.1158   26.2286 C.ar      1 UNK         0.0000 
      5 C5         -0.9583   50.9824   26.8808 C.ar      1 UNK         0.0000 
      6 C6         -2.0143   51.5653   26.1988 C.ar      1 UNK         0.0000 
      7 C7         -2.1687   51.3493   24.8336 C.ar      1 UNK         0.0000 
      8 S8         -3.5119   52.1758   23.9967 S.o2      1 UNK         0.0000 
      9 O9         -2.8954   53.2966   23.2817 O.2       1 UNK         0.0000 
     10 O10        -4.2567   51.1357   23.2812 O.2       1 UNK         0.0000 
     11 N11        -4.6054   52.8501   25.2042 N.pl3     1 UNK         0.0000 
     12 C12        -4.3925   54.1879   25.7900 C.3       1 UNK         0.0000 
     13 N13        -0.8228   51.2968   28.2249 N.am      1 UNK         0.0000 
     14 C14        -0.0204   52.2231   28.7765 C.2       1 UNK         0.0000 
     15 O15        -0.2040   52.5269   29.9533 O.2       1 UNK         0.0000 
     16 C16         1.1012   52.7858   28.0245 C.ar      1 UNK         0.0000 
     17 C17         2.2097   53.3773   28.6395 C.ar      1 UNK         0.0000 
     18 C18         3.0704   53.7574   27.6113 C.ar      1 UNK         0.0000 
     19 N19         2.3956   53.4829   26.4343 N.pl3     1 UNK         0.0000 
     20 N20         1.2109   52.8997   26.7151 N.2       1 UNK         0.0000 
     21 C21         2.7743   53.6933   25.0686 C.ar      1 UNK         0.0000 
     22 C22         4.1055   53.9688   24.7140 C.ar      1 UNK         0.0000 
     23 C23         4.4787   54.0967   23.3814 C.ar      1 UNK         0.0000 
     24 C24         3.5262   53.9657   22.3817 C.ar      1 UNK         0.0000 
     25 C25         2.1993   53.7012   22.7054 C.ar      1 UNK         0.0000 
     26 C26         1.8211   53.5717   24.0396 C.ar      1 UNK         0.0000 
     27 F27         3.9032   54.0907   21.0901 F         1 UNK         0.0000 
     28 C28         4.4418   54.4056   27.8164 C.3       1 UNK         0.0000 
     29 C29         4.6308   54.7630   29.3069 C.3       1 UNK         0.0000 
     30 C30         4.0866   53.6658   30.2375 C.3       1 UNK         0.0000 
     31 C31         2.5699   53.5272   30.1036 C.3       1 UNK         0.0000 
     32 H32        -2.2322   49.6827   22.4086 H         1 UNK         0.0000 
     33 H33        -1.4473   51.2345   22.1231 H         1 UNK         0.0000 
     34 H34        -0.4702   49.7847   22.2536 H         1 UNK         0.0000 
     35 H35         0.4680   49.2355   24.3599 H         1 UNK         0.0000 
     36 H36         0.7223   49.6367   26.7720 H         1 UNK         0.0000 
     37 H37        -2.6900   52.2013   26.7457 H         1 UNK         0.0000 
     38 H38        -5.4653   52.3385   25.4221 H         1 UNK         0.0000 
     39 H39        -4.2095   54.9173   25.0003 H         1 UNK         0.0000 
     40 H40        -5.2779   54.4794   26.3541 H         1 UNK         0.0000 
     41 H41        -3.5492   54.1716   26.4793 H         1 UNK         0.0000 
     42 H42        -1.4712   50.8283   28.8447 H         1 UNK         0.0000 
     43 H43         4.9008   54.0295   25.4320 H         1 UNK         0.0000 
     44 H44         5.5089   54.2886   23.1196 H         1 UNK         0.0000 
     45 H45         1.4688   53.6022   21.9160 H         1 UNK         0.0000 
     46 H46         0.7831   53.3590   24.2569 H         1 UNK         0.0000 
     47 H47         5.2231   53.6930   27.5479 H         1 UNK         0.0000 
     48 H48         4.5754   55.2965   27.2039 H         1 UNK         0.0000 
     49 H49         4.1096   55.6963   29.5186 H         1 UNK         0.0000 
     50 H50         5.6865   54.9466   29.5128 H         1 UNK         0.0000 
     51 H51         4.3048   53.8717   31.2803 H         1 UNK         0.0000 
     52 H52         4.5729   52.7146   30.0082 H         1 UNK         0.0000 
     53 H53         2.0539   54.4083   30.4829 H         1 UNK         0.0000 
     54 H54         2.2252   52.6818   30.7002 H         1 UNK         0.0000 
@<TRIPOS>BOND
     1    1    2 1    
     2    1   32 1    
     3    1   33 1    
     4    1   34 1    
     5    2    7 ar   
     6    2    3 ar   
     7    3    4 ar   
     8    3   35 1    
     9    4    5 ar   
    10    4   36 1    
    11    5    6 ar   
    12    5   13 1    
    13    6    7 ar   
    14    6   37 1    
    15    7    8 1    
    16    8    9 2    
    17    8   10 2    
    18    8   11 1    
    19   11   12 1    
    20   11   38 1    
    21   12   39 1    
    22   12   40 1    
    23   12   41 1    
    24   13   14 am   BACKBONE|DICT|INTERRES
    25   13   42 1    
    26   14   15 2    
    27   14   16 1    
    28   16   20 ar   
    29   16   17 ar   
    30   17   31 1    
    31   17   18 ar   
    32   18   19 ar   
    33   18   28 1    
    34   19   20 ar   
    35   19   21 1    
    36   21   26 ar   
    37   21   22 ar   
    38   22   23 ar   
    39   22   43 1    
    40   23   24 ar   
    41   23   44 1    
    42   24   25 ar   
    43   24   27 1    
    44   25   26 ar   
    45   25   45 1    
    46   26   46 1    
    47   28   29 1    
    48   28   47 1    
    49   28   48 1    
    50   29   30 1    
    51   29   49 1    
    52   29   50 1    
    53   30   31 1    
    54   30   51 1    
    55   30   52 1    
    56   31   53 1    
    57   31   54 1    
@<TRIPOS>SUBSTRUCTURE
     1 UNK         1 GROUP             0       ****    0 ROOT    
