@<TRIPOS>MOLECULE
ZINC24033758_2783
49   52    1
SMALL
USER_CHARGES


@<TRIPOS>ATOM
      1 C1         -0.3511   51.1036   26.3627 C.ar      1 UNK         0.0000 
      2 C2          0.3051   51.7124   25.2917 C.ar      1 UNK         0.0000 
      3 C3          1.2236   52.7467   25.5176 C.ar      1 UNK         0.0000 
      4 C4          1.4298   53.1900   26.8335 C.ar      1 UNK         0.0000 
      5 C5          0.7594   52.5980   27.9060 C.ar      1 UNK         0.0000 
      6 C6         -0.1137   51.5361   27.6660 C.ar      1 UNK         0.0000 
      7 N7          1.0246   52.9819   29.2277 N.pl3     1 UNK         0.0000 
      8 C8          0.8749   54.3787   29.6112 C.3       1 UNK         0.0000 
      9 C9          2.2511   55.0773   29.6134 C.3       1 UNK         0.0000 
     10 C10         3.3717   54.0168   29.6140 C.3       1 UNK         0.0000 
     11 S11         2.4920   52.4084   30.0125 S.o2      1 UNK         0.0000 
     12 O12         2.3404   52.3538   31.4670 O.2       1 UNK         0.0000 
     13 O13         3.1043   51.2975   29.2817 O.2       1 UNK         0.0000 
     14 C14         2.0105   53.3352   24.3732 C.2       1 UNK         0.0000 
     15 O15         1.5251   53.4200   23.2455 O.2       1 UNK         0.0000 
     16 N16         3.2629   53.6966   24.7186 N.am      1 UNK         0.0000 
     17 C17         4.3510   54.0969   23.9367 C.ar      1 UNK         0.0000 
     18 C18         5.4845   54.4962   24.6496 C.ar      1 UNK         0.0000 
     19 C19         6.6350   54.8947   23.9775 C.ar      1 UNK         0.0000 
     20 C20         6.6650   54.8971   22.5863 C.ar      1 UNK         0.0000 
     21 C21         5.5306   54.5085   21.8562 C.ar      1 UNK         0.0000 
     22 C22         4.3794   54.0956   22.5331 C.ar      1 UNK         0.0000 
     23 N23         5.5009   54.4904   20.4550 N.am      1 UNK         0.0000 
     24 C24         6.1647   55.3124   19.6151 C.2       1 UNK         0.0000 
     25 O25         6.8250   56.2945   19.9680 O.2       1 UNK         0.0000 
     26 C26         6.0304   54.9445   18.2278 C.2       1 UNK         0.0000 
     27 C27         5.7108   53.6978   17.6730 C.2       1 UNK         0.0000 
     28 C28         5.7384   53.6948   16.2753 C.2       1 UNK         0.0000 
     29 C29         6.1103   54.9221   15.7472 C.2       1 UNK         0.0000 
     30 S30         6.4415   56.0931   16.9827 S.3       1 UNK         0.0000 
     31 H31        -1.0299   50.2798   26.1915 H         1 UNK         0.0000 
     32 H32         0.1244   51.3472   24.2903 H         1 UNK         0.0000 
     33 H33         2.1179   53.9964   27.0334 H         1 UNK         0.0000 
     34 H34        -0.6113   51.0361   28.4862 H         1 UNK         0.0000 
     35 H35         0.3044   54.8964   28.8422 H         1 UNK         0.0000 
     36 H36         0.2822   54.5454   30.5123 H         1 UNK         0.0000 
     37 H37         2.3515   55.7351   28.7479 H         1 UNK         0.0000 
     38 H38         2.3037   55.7427   30.4763 H         1 UNK         0.0000 
     39 H39         3.8559   53.9105   28.6440 H         1 UNK         0.0000 
     40 H40         4.1442   54.1959   30.3610 H         1 UNK         0.0000 
     41 H41         3.4846   53.5741   25.6930 H         1 UNK         0.0000 
     42 H42         5.4864   54.4978   25.7302 H         1 UNK         0.0000 
     43 H43         7.5045   55.2035   24.5339 H         1 UNK         0.0000 
     44 H44         7.5762   55.1982   22.0895 H         1 UNK         0.0000 
     45 H45         3.5191   53.7868   21.9587 H         1 UNK         0.0000 
     46 H46         4.8923   53.8058   20.0331 H         1 UNK         0.0000 
     47 H47         5.4675   52.8135   18.2463 H         1 UNK         0.0000 
     48 H48         5.5069   52.8240   15.6777 H         1 UNK         0.0000 
     49 H49         6.2187   55.1883   14.7065 H         1 UNK         0.0000 
@<TRIPOS>BOND
     1    1    6 ar   
     2    1    2 ar   
     3    1   31 1    
     4    2    3 ar   
     5    2   32 1    
     6    3    4 ar   
     7    3   14 1    
     8    4    5 ar   
     9    4   33 1    
    10    5    6 ar   
    11    5    7 1    
    12    6   34 1    
    13    7   11 1    
    14    7    8 1    
    15    8    9 1    
    16    8   35 1    
    17    8   36 1    
    18    9   10 1    
    19    9   37 1    
    20    9   38 1    
    21   10   11 1    
    22   10   39 1    
    23   10   40 1    
    24   11   12 2    
    25   11   13 2    
    26   14   15 2    
    27   14   16 am   BACKBONE|DICT|INTERRES
    28   16   17 1    
    29   16   41 1    
    30   17   22 ar   
    31   17   18 ar   
    32   18   19 ar   
    33   18   42 1    
    34   19   20 ar   
    35   19   43 1    
    36   20   21 ar   
    37   20   44 1    
    38   21   22 ar   
    39   21   23 1    
    40   22   45 1    
    41   23   24 am   BACKBONE|DICT|INTERRES
    42   23   46 1    
    43   24   25 2    
    44   24   26 1    
    45   26   30 1    
    46   26   27 2    
    47   27   28 1    
    48   27   47 1    
    49   28   29 2    
    50   28   48 1    
    51   29   30 1    
    52   29   49 1    
@<TRIPOS>SUBSTRUCTURE
     1 UNK         1 GROUP             0       ****    0 ROOT    
