ZINC36311773_1187
                    3D
 Schrodinger Suite 2024-2.
 68 71  0  0  1  0            999 V2000
    3.7631   54.5313   27.7372 C   0  0  0  0  0  0
    5.1884   54.5568   27.1441 C   0  0  0  0  0  0
    6.0744   53.4861   27.8037 C   0  0  0  0  0  0
    5.2585   54.5017   25.6105 C   0  0  0  0  0  0
    6.4516   54.8768   24.9901 C   0  0  0  0  0  0
    6.5633   54.8730   23.6064 C   0  0  0  0  0  0
    5.4717   54.4966   22.8169 C   0  0  0  0  0  0
    4.2823   54.0945   23.4251 C   0  0  0  0  0  0
    4.1753   54.0982   24.8164 C   0  0  0  0  0  0
    5.5358   54.4862   21.4131 N   0  0  0  0  0  0
    6.1865   55.3815   20.6289 C   0  0  0  0  0  0
    6.7041   56.4050   21.0808 O   0  0  0  0  0  0
    6.3244   55.0513   19.1150 C   0  0  2  0  0  0
    7.0334   54.2210   19.1062 H   0  0  0  0  0  0
    6.9162   56.1497   18.1550 C   0  0  0  0  0  0
    6.3510   57.5913   18.2164 C   0  0  0  0  0  0
    7.4233   58.4964   17.5968 C   0  0  0  0  0  0
    8.7511   57.7311   17.6957 C   0  0  0  0  0  0
    8.4277   56.3806   18.3473 C   0  0  0  0  0  0
    5.0236   54.3696   18.5684 N   0  3  0  0  0  0
    3.9702   55.3421   17.9866 C   0  0  0  0  0  0
    2.6940   54.5625   17.5993 C   0  0  0  0  0  0
    3.0721   53.5096   16.6354 N   0  0  0  0  0  0
    4.0468   52.5275   17.1519 C   0  0  0  0  0  0
    5.3439   53.2777   17.5174 C   0  0  0  0  0  0
    2.3433   53.3166   15.4987 C   0  0  0  0  0  0
    1.2899   53.9236   15.2765 O   0  0  0  0  0  0
    2.8417   52.3435   14.4527 C   0  0  0  0  0  0
    4.1878   52.3222   14.0514 C   0  0  0  0  0  0
    4.6261   51.4162   13.0841 C   0  0  0  0  0  0
    3.7223   50.5332   12.4949 C   0  0  0  0  0  0
    2.3782   50.5626   12.8649 C   0  0  0  0  0  0
    1.9394   51.4679   13.8329 C   0  0  0  0  0  0
    1.1448   49.3630   12.0525 Br  0  0  0  0  0  0
    3.1253   55.2917   27.2845 H   0  0  0  0  0  0
    3.7840   54.7256   28.8095 H   0  0  0  0  0  0
    3.2845   53.5619   27.5919 H   0  0  0  0  0  0
    5.6150   55.5216   27.4205 H   0  0  0  0  0  0
    7.0934   53.4966   27.4164 H   0  0  0  0  0  0
    6.1389   53.6377   28.8814 H   0  0  0  0  0  0
    5.6628   52.4966   27.6330 H   0  0  0  0  0  0
    7.3000   55.1762   25.5832 H   0  0  0  0  0  0
    7.4987   55.1679   23.1574 H   0  0  0  0  0  0
    3.4336   53.7899   22.8287 H   0  0  0  0  0  0
    3.2431   53.7895   25.2632 H   0  0  0  0  0  0
    5.0241   53.7366   20.9766 H   0  0  0  0  0  0
    6.8133   55.8287   17.1170 H   0  0  0  0  0  0
    5.3746   57.7188   17.7545 H   0  0  0  0  0  0
    6.2248   57.9197   19.2462 H   0  0  0  0  0  0
    7.1821   58.7002   16.5517 H   0  0  0  0  0  0
    7.4716   59.4648   18.0998 H   0  0  0  0  0  0
    9.1742   57.5793   16.6997 H   0  0  0  0  0  0
    9.4924   58.2827   18.2788 H   0  0  0  0  0  0
    8.6592   56.4745   19.4097 H   0  0  0  0  0  0
    9.0376   55.5518   17.9828 H   0  0  0  0  0  0
    3.7426   56.0522   18.7827 H   0  0  0  0  0  0
    4.3917   55.8644   17.1268 H   0  0  0  0  0  0
    2.2573   54.0963   18.4816 H   0  0  0  0  0  0
    1.9387   55.2459   17.2047 H   0  0  0  0  0  0
    4.2455   51.6970   16.4763 H   0  0  0  0  0  0
    3.6390   52.0507   18.0461 H   0  0  0  0  0  0
    5.8487   53.7278   16.6596 H   0  0  0  0  0  0
    6.0204   52.5647   17.9955 H   0  0  0  0  0  0
    4.9028   53.0070   14.4829 H   0  0  0  0  0  0
    5.6656   51.3999   12.7913 H   0  0  0  0  0  0
    4.0612   49.8309   11.7473 H   0  0  0  0  0  0
    0.8933   51.4728   14.1098 H   0  0  0  0  0  0
    4.5881   53.8895   19.3405 H   0  0  0  0  0  0
  1  2  1  0  0  0
  1 35  1  0  0  0
  1 36  1  0  0  0
  1 37  1  0  0  0
  2  3  1  0  0  0
  2  4  1  0  0  0
  2 38  1  0  0  0
  3 39  1  0  0  0
  3 40  1  0  0  0
  3 41  1  0  0  0
  4  9  2  0  0  0
  4  5  1  0  0  0
  5  6  2  0  0  0
  5 42  1  0  0  0
  6  7  1  0  0  0
  6 43  1  0  0  0
  7  8  2  0  0  0
  7 10  1  0  0  0
  8  9  1  0  0  0
  8 44  1  0  0  0
  9 45  1  0  0  0
 10 11  1  0  0  0
 10 46  1  0  0  0
 11 12  2  0  0  0
 11 13  1  0  0  0
 13 14  1  0  0  0
 13 15  1  0  0  0
 13 20  1  0  0  0
 15 19  1  0  0  0
 15 16  1  0  0  0
 15 47  1  0  0  0
 16 17  1  0  0  0
 16 48  1  0  0  0
 16 49  1  0  0  0
 17 18  1  0  0  0
 17 50  1  0  0  0
 17 51  1  0  0  0
 18 19  1  0  0  0
 18 52  1  0  0  0
 18 53  1  0  0  0
 19 54  1  0  0  0
 19 55  1  0  0  0
 20 25  1  0  0  0
 20 21  1  0  0  0
 20 68  1  0  0  0
 21 22  1  0  0  0
 21 56  1  0  0  0
 21 57  1  0  0  0
 22 23  1  0  0  0
 22 58  1  0  0  0
 22 59  1  0  0  0
 23 24  1  0  0  0
 23 26  1  0  0  0
 24 25  1  0  0  0
 24 60  1  0  0  0
 24 61  1  0  0  0
 25 62  1  0  0  0
 25 63  1  0  0  0
 26 27  2  0  0  0
 26 28  1  0  0  0
 28 33  2  0  0  0
 28 29  1  0  0  0
 29 30  2  0  0  0
 29 64  1  0  0  0
 30 31  1  0  0  0
 30 65  1  0  0  0
 31 32  2  0  0  0
 31 66  1  0  0  0
 32 33  1  0  0  0
 32 34  1  0  0  0
 33 67  1  0  0  0
M  CHG  1  20   1
M  END
> <i_i_glide_confnum>
370

> <i_i_glide_lignum>
1188

> <i_i_glide_posenum>
366

> <i_i_glide_rotatable_bonds>
8

> <i_m_Source_File_Index>
616

> <b_m_subgroup_collapsed>
0

> <r_i_docking_score>
-4.94256

> <r_i_glide_ecoul>
-5.93474

> <r_i_glide_eff_state_penalty>
0

> <r_i_glide_einternal>
12.6933

> <r_i_glide_emodel>
-46.7934

> <r_i_glide_energy>
-38.9269

> <r_i_glide_erotb>
0.544409

> <r_i_glide_esite>
-0.0253773

> <r_i_glide_evdw>
-32.9922

> <r_i_glide_gscore>
-4.94256

> <r_i_glide_hbond>
-0.162931

> <r_i_glide_ligand_efficiency>
-0.149775

> <r_i_glide_ligand_efficiency_ln>
-1.0992

> <r_i_glide_ligand_efficiency_sa>
-0.480407

> <r_i_glide_lipo>
-2.58448

> <r_i_glide_metal>
0

> <r_i_glide_rewards>
-0.174368

> <s_i_glide_gridfile>
wee1_glide-grid

> <s_m_Source_File>
wee1_decoys_glide_SP.sdf

> <s_m_Source_Path>
/Users/zhangxujun/Desktop

> <s_m_entry_id>
891

> <s_m_entry_name>
wee1_decoys_glide_SP.616

> <s_m_subgroup_title>
wee1_decoys_glide_SP

> <s_m_subgroupid>
wee1_decoys_glide_SP


$$$$
