@<TRIPOS>MOLECULE
ZINC23328350_3728
67   70    1
SMALL
USER_CHARGES


@<TRIPOS>ATOM
      1 C1          3.5343   54.0132   22.8677 C.3       1 UNK         0.0000 
      2 C2          3.5021   54.0399   24.3838 C.ar      1 UNK         0.0000 
      3 C3          4.6133   54.4532   25.1138 C.ar      1 UNK         0.0000 
      4 C4          4.5562   54.4998   26.5036 C.ar      1 UNK         0.0000 
      5 C5          3.3798   54.1571   27.1935 C.ar      1 UNK         0.0000 
      6 C6          2.2754   53.6960   26.4580 C.ar      1 UNK         0.0000 
      7 C7          2.3436   53.6593   25.0595 C.ar      1 UNK         0.0000 
      8 O8          1.1067   53.3569   27.1132 O.3       1 UNK         0.0000 
      9 C9          0.7575   51.9731   27.1566 C.3       1 UNK         0.0000 
     10 C10        -0.0603   51.5721   25.9380 C.ar      1 UNK         0.0000 
     11 N11        -0.7299   52.3943   25.1718 N.2       1 UNK         0.0000 
     12 N12        -1.2071   51.6555   24.1016 N.2       1 UNK         0.0000 
     13 C13        -0.9147   50.3953   24.3179 C.ar      1 UNK         0.0000 
     14 N14        -0.2018   50.2775   25.4931 N.pl3     1 UNK         0.0000 
     15 N15         0.3045   49.1305   26.0817 N.3       1 UNK         0.0000 
     16 S16        -1.2081   49.0733   23.1747 S.3       1 UNK         0.0000 
     17 C17        -2.5404   49.7316   22.0949 C.3       1 UNK         0.0000 
     18 H18        -2.8401   48.8756   21.4887 H         1 UNK         0.0000 
     19 C19        -3.8251   50.1720   22.8359 C.3       1 UNK         0.0000 
     20 C20        -2.0211   50.7855   21.0878 C.2       1 UNK         0.0000 
     21 O21        -2.3352   51.9734   21.1893 O.2       1 UNK         0.0000 
     22 N22        -1.2167   50.3328   20.1088 N.am      1 UNK         0.0000 
     23 C23        -0.6216   51.1386   19.0312 C.3       1 UNK         0.0000 
     24 H24        -0.2566   50.3512   18.3679 H         1 UNK         0.0000 
     25 C25         0.6106   51.9602   19.4611 C.3       1 UNK         0.0000 
     26 C26         1.2912   52.5836   18.2380 C.3       1 UNK         0.0000 
     27 C27         0.3494   53.5677   17.5217 C.3       1 UNK         0.0000 
     28 C28        -1.0816   53.0507   17.3654 C.ar      1 UNK         0.0000 
     29 C29        -1.5657   51.9475   18.1123 C.ar      1 UNK         0.0000 
     30 C30        -2.9013   51.5559   17.9267 C.ar      1 UNK         0.0000 
     31 C31        -3.7455   52.2273   17.0490 C.ar      1 UNK         0.0000 
     32 C32        -3.2667   53.3112   16.3267 C.ar      1 UNK         0.0000 
     33 C33        -1.9454   53.7137   16.4871 C.ar      1 UNK         0.0000 
     34 C34         3.2715   54.2976   28.7212 C.3       1 UNK         0.0000 
     35 C35         4.6248   54.4116   29.4503 C.3       1 UNK         0.0000 
     36 C36         2.3353   55.4560   29.1310 C.3       1 UNK         0.0000 
     37 H37         4.4072   54.5303   22.4664 H         1 UNK         0.0000 
     38 H38         3.5347   52.9856   22.5048 H         1 UNK         0.0000 
     39 H39         2.6484   54.5067   22.4632 H         1 UNK         0.0000 
     40 H40         5.5218   54.7499   24.6079 H         1 UNK         0.0000 
     41 H41         5.4336   54.8471   27.0268 H         1 UNK         0.0000 
     42 H42         1.4908   53.3559   24.4801 H         1 UNK         0.0000 
     43 H43         0.1639   51.8150   28.0574 H         1 UNK         0.0000 
     44 H44         1.6468   51.3546   27.2838 H         1 UNK         0.0000 
     45 H45        -0.3914   48.5842   26.5846 H         1 UNK         0.0000 
     46 H46         0.9298   48.6026   25.4885 H         1 UNK         0.0000 
     47 H47        -4.6020   50.4828   22.1364 H         1 UNK         0.0000 
     48 H48        -4.2344   49.3524   23.4275 H         1 UNK         0.0000 
     49 H49        -3.6591   51.0114   23.5100 H         1 UNK         0.0000 
     50 H50        -0.9228   49.3687   20.1521 H         1 UNK         0.0000 
     51 H51         1.3143   51.3308   20.0076 H         1 UNK         0.0000 
     52 H52         0.3099   52.7519   20.1483 H         1 UNK         0.0000 
     53 H53         1.5992   51.7987   17.5466 H         1 UNK         0.0000 
     54 H54         2.2078   53.0970   18.5363 H         1 UNK         0.0000 
     55 H55         0.7676   53.8316   16.5490 H         1 UNK         0.0000 
     56 H56         0.3034   54.4995   18.0825 H         1 UNK         0.0000 
     57 H57        -3.2937   50.7048   18.4624 H         1 UNK         0.0000 
     58 H58        -4.7678   51.9041   16.9232 H         1 UNK         0.0000 
     59 H59        -3.9146   53.8378   15.6420 H         1 UNK         0.0000 
     60 H60        -1.5860   54.5619   15.9218 H         1 UNK         0.0000 
     61 H61         2.8195   53.3700   29.0766 H         1 UNK         0.0000 
     62 H62         5.2493   53.5349   29.2651 H         1 UNK         0.0000 
     63 H63         5.1881   55.2966   29.1581 H         1 UNK         0.0000 
     64 H64         4.4720   54.4927   30.5212 H         1 UNK         0.0000 
     65 H65         1.3649   55.3881   28.6413 H         1 UNK         0.0000 
     66 H66         2.1471   55.4485   30.2056 H         1 UNK         0.0000 
     67 H67         2.7539   56.4296   28.8813 H         1 UNK         0.0000 
@<TRIPOS>BOND
     1    1    2 1    
     2    1   37 1    
     3    1   38 1    
     4    1   39 1    
     5    2    7 ar   
     6    2    3 ar   
     7    3    4 ar   
     8    3   40 1    
     9    4    5 ar   
    10    4   41 1    
    11    5    6 ar   
    12    5   34 1    
    13    6    7 ar   
    14    6    8 1    
    15    7   42 1    
    16    8    9 1    
    17    9   10 1    
    18    9   43 1    
    19    9   44 1    
    20   10   14 ar   
    21   10   11 ar   
    22   11   12 ar   
    23   12   13 ar   
    24   13   14 ar   
    25   13   16 1    
    26   14   15 1    
    27   15   45 1    
    28   15   46 1    
    29   16   17 1    
    30   17   18 1    
    31   17   19 1    
    32   17   20 1    
    33   19   47 1    
    34   19   48 1    
    35   19   49 1    
    36   20   21 2    
    37   20   22 am   BACKBONE|DICT|INTERRES
    38   22   23 1    
    39   22   50 1    
    40   23   24 1    
    41   23   29 1    
    42   23   25 1    
    43   25   26 1    
    44   25   51 1    
    45   25   52 1    
    46   26   27 1    
    47   26   53 1    
    48   26   54 1    
    49   27   28 1    
    50   27   55 1    
    51   27   56 1    
    52   28   33 ar   
    53   28   29 ar   
    54   29   30 ar   
    55   30   31 ar   
    56   30   57 1    
    57   31   32 ar   
    58   31   58 1    
    59   32   33 ar   
    60   32   59 1    
    61   33   60 1    
    62   34   35 1    
    63   34   36 1    
    64   34   61 1    
    65   35   62 1    
    66   35   63 1    
    67   35   64 1    
    68   36   65 1    
    69   36   66 1    
    70   36   67 1    
@<TRIPOS>SUBSTRUCTURE
     1 UNK         1 GROUP             0       ****    0 ROOT    
