ZINC03007055_1063
                    3D
 Schrodinger Suite 2024-2.
 69 72  0  0  1  0            999 V2000
    8.0893   54.5804   14.7106 C   0  0  0  0  0  0
    6.5489   54.5771   14.7568 C   0  0  0  0  0  0
    4.5087   53.8840   16.0801 C   0  0  0  0  0  0
    4.0592   53.1560   17.3681 C   0  0  0  0  0  0
    4.7272   53.7196   18.6339 C   0  0  0  0  0  0
    5.7581   54.6671   18.5247 C   0  0  0  0  0  0
    6.3040   55.2328   20.0535 S   0  0  0  0  0  0
    5.2311   54.1233   20.8672 C   0  0  0  0  0  0
    4.4195   53.3731   19.9875 C   0  0  0  0  0  0
    3.4371   52.3658   20.4569 C   0  0  0  0  0  0
    3.1873   52.1654   21.6512 O   0  0  0  0  0  0
    2.8746   51.6705   19.4452 O   0  0  0  0  0  0
    1.9855   50.5877   19.6782 C   0  0  0  0  0  0
    0.5584   51.0927   19.9160 C   0  0  0  0  0  0
    5.1816   54.0258   22.2553 N   0  0  0  0  0  0
    6.0005   54.5403   23.1924 C   0  0  0  0  0  0
    7.0664   55.1090   22.9518 O   0  0  0  0  0  0
    5.5460   54.3046   24.6168 C   0  0  0  0  0  0
    4.1966   54.0480   24.9212 C   0  0  0  0  0  0
    3.8141   53.7195   26.2176 C   0  0  0  0  0  0
    4.7608   53.7209   27.2400 C   0  0  0  0  0  0
    6.0905   54.0382   26.9640 C   0  0  0  0  0  0
    6.4803   54.3191   25.6584 C   0  0  0  0  0  0
    4.3245   53.3586   28.9374 S   0  0  0  0  0  0
    4.9216   52.0727   29.2814 O   0  0  0  0  0  0
    4.7070   54.5538   29.6819 O   0  0  0  0  0  0
    2.5840   53.1591   29.0927 N   0  0  0  0  0  0
    2.0117   51.8317   28.7386 C   0  0  0  0  0  0
    0.5006   51.6626   28.9689 C   0  0  0  0  0  0
   -0.3985   52.4788   28.0336 C   0  0  0  0  0  0
   -0.4844   53.9734   28.3660 C   0  0  0  0  0  0
    0.8384   54.7536   28.2805 C   0  0  0  0  0  0
    1.7974   54.3729   29.3948 C   0  0  0  0  0  0
    6.3188   55.2129   17.2238 C   0  0  0  0  0  0
    8.4401   54.7439   13.6889 H   0  0  0  0  0  0
    8.5075   53.6295   15.0476 H   0  0  0  0  0  0
    8.5206   55.3776   15.3146 H   0  0  0  0  0  0
    6.1075   55.5538   14.5432 H   0  0  0  0  0  0
    6.1573   53.8443   14.0478 H   0  0  0  0  0  0
    4.0284   54.8557   15.9481 H   0  0  0  0  0  0
    4.3006   53.2549   15.2104 H   0  0  0  0  0  0
    2.9751   53.2117   17.4380 H   0  0  0  0  0  0
    4.3048   52.0963   17.2799 H   0  0  0  0  0  0
    2.0206   49.9444   18.7984 H   0  0  0  0  0  0
    2.3272   49.9755   20.5132 H   0  0  0  0  0  0
   -0.1334   50.2605   20.0409 H   0  0  0  0  0  0
    0.5033   51.7111   20.8128 H   0  0  0  0  0  0
    0.2100   51.6910   19.0726 H   0  0  0  0  0  0
    4.4620   53.3962   22.5866 H   0  0  0  0  0  0
    3.4331   54.0449   24.1561 H   0  0  0  0  0  0
    2.7887   53.4567   26.4058 H   0  0  0  0  0  0
    6.8214   54.0471   27.7608 H   0  0  0  0  0  0
    7.5190   54.5243   25.4531 H   0  0  0  0  0  0
    2.2093   51.6524   27.6825 H   0  0  0  0  0  0
    2.5681   51.0655   29.2776 H   0  0  0  0  0  0
    0.2571   50.6153   28.7982 H   0  0  0  0  0  0
    0.2458   51.8485   30.0137 H   0  0  0  0  0  0
   -0.0732   52.3467   26.9990 H   0  0  0  0  0  0
   -1.4056   52.0595   28.0792 H   0  0  0  0  0  0
   -0.8956   54.0889   29.3707 H   0  0  0  0  0  0
   -1.2205   54.4001   27.6831 H   0  0  0  0  0  0
    0.7006   55.8304   28.3642 H   0  0  0  0  0  0
    1.2890   54.6225   27.3018 H   0  0  0  0  0  0
    1.2467   54.1961   30.3208 H   0  0  0  0  0  0
    2.4648   55.2073   29.6096 H   0  0  0  0  0  0
    7.4015   55.3459   17.2656 H   0  0  0  0  0  0
    5.8453   56.1479   16.9151 H   0  0  0  0  0  0
    6.0339   54.1321   16.1498 N   0  3  2  0  0  0
    6.4899   53.2602   16.3876 H   0  0  0  0  0  0
  1  2  1  0  0  0
  1 35  1  0  0  0
  1 36  1  0  0  0
  1 37  1  0  0  0
  2 38  1  0  0  0
  2 39  1  0  0  0
  2 68  1  0  0  0
  3  4  1  0  0  0
  3 40  1  0  0  0
  3 41  1  0  0  0
  3 68  1  0  0  0
  4  5  1  0  0  0
  4 42  1  0  0  0
  4 43  1  0  0  0
  5  9  1  0  0  0
  5  6  2  0  0  0
  6  7  1  0  0  0
  6 34  1  0  0  0
  7  8  1  0  0  0
  8  9  2  0  0  0
  8 15  1  0  0  0
  9 10  1  0  0  0
 10 11  2  0  0  0
 10 12  1  0  0  0
 12 13  1  0  0  0
 13 14  1  0  0  0
 13 44  1  0  0  0
 13 45  1  0  0  0
 14 46  1  0  0  0
 14 47  1  0  0  0
 14 48  1  0  0  0
 15 16  1  0  0  0
 15 49  1  0  0  0
 16 17  2  0  0  0
 16 18  1  0  0  0
 18 23  2  0  0  0
 18 19  1  0  0  0
 19 20  2  0  0  0
 19 50  1  0  0  0
 20 21  1  0  0  0
 20 51  1  0  0  0
 21 22  2  0  0  0
 21 24  1  0  0  0
 22 23  1  0  0  0
 22 52  1  0  0  0
 23 53  1  0  0  0
 24 25  2  0  0  0
 24 26  2  0  0  0
 24 27  1  0  0  0
 27 33  1  0  0  0
 27 28  1  0  0  0
 28 29  1  0  0  0
 28 54  1  0  0  0
 28 55  1  0  0  0
 29 30  1  0  0  0
 29 56  1  0  0  0
 29 57  1  0  0  0
 30 31  1  0  0  0
 30 58  1  0  0  0
 30 59  1  0  0  0
 31 32  1  0  0  0
 31 60  1  0  0  0
 31 61  1  0  0  0
 32 33  1  0  0  0
 32 62  1  0  0  0
 32 63  1  0  0  0
 33 64  1  0  0  0
 33 65  1  0  0  0
 34 66  1  0  0  0
 34 67  1  0  0  0
 34 68  1  0  0  0
 68 69  1  0  0  0
M  CHG  1  68   1
M  END
> <i_i_glide_confnum>
194

> <i_i_glide_lignum>
1064

> <i_i_glide_posenum>
385

> <i_i_glide_rotatable_bonds>
9

> <i_m_Source_File_Index>
1265

> <b_m_subgroup_collapsed>
0

> <r_i_docking_score>
-2.60207

> <r_i_glide_ecoul>
-0.760214

> <r_i_glide_eff_state_penalty>
0

> <r_i_glide_einternal>
14.3172

> <r_i_glide_emodel>
-32.8427

> <r_i_glide_energy>
-38.6765

> <r_i_glide_erotb>
0.530659

> <r_i_glide_esite>
-0.0147975

> <r_i_glide_evdw>
-37.9163

> <r_i_glide_gscore>
-2.60207

> <r_i_glide_hbond>
0

> <r_i_glide_ligand_efficiency>
-0.074345

> <r_i_glide_ligand_efficiency_ln>
-0.571213

> <r_i_glide_ligand_efficiency_sa>
-0.243187

> <r_i_glide_lipo>
-2.36456

> <r_i_glide_metal>
0

> <r_i_glide_rewards>
1.25647

> <s_i_glide_gridfile>
wee1_glide-grid

> <s_m_Source_File>
wee1_decoys_glide_SP.sdf

> <s_m_Source_Path>
/Users/zhangxujun/Desktop

> <s_m_entry_id>
1540

> <s_m_entry_name>
wee1_decoys_glide_SP.1265

> <s_m_subgroup_title>
wee1_decoys_glide_SP

> <s_m_subgroupid>
wee1_decoys_glide_SP


$$$$
