@<TRIPOS>MOLECULE
ZINC38893562_1097
74   78    1
SMALL
USER_CHARGES


@<TRIPOS>ATOM
      1 C1         11.5283   57.8922   16.3063 C.3       1 UNK         0.0000 
      2 C2         10.5678   56.7171   16.2846 C.ar      1 UNK         0.0000 
      3 C3         10.6341   55.7423   17.2817 C.ar      1 UNK         0.0000 
      4 C4          9.7610   54.6580   17.2548 C.ar      1 UNK         0.0000 
      5 C5          8.8161   54.5405   16.2279 C.ar      1 UNK         0.0000 
      6 C6          8.7548   55.5206   15.2306 C.ar      1 UNK         0.0000 
      7 C7          9.6330   56.6018   15.2552 C.ar      1 UNK         0.0000 
      8 C8          7.8225   53.3673   16.2061 C.3       1 UNK         0.0000 
      9 H9          7.0511   53.5970   15.4644 H         1 UNK         0.0000 
     10 C10         8.5252   52.0857   15.7406 C.ar      1 UNK         0.0000 
     11 C11         8.4331   51.6904   14.3996 C.ar      1 UNK         0.0000 
     12 C12         9.0904   50.5419   13.9598 C.ar      1 UNK         0.0000 
     13 C13         9.8250   49.7770   14.8631 C.ar      1 UNK         0.0000 
     14 C14         9.9062   50.1491   16.2026 C.ar      1 UNK         0.0000 
     15 C15         9.2551   51.2982   16.6395 C.ar      1 UNK         0.0000 
     16 N16         7.0824   53.1772   17.4646 N.am      1 UNK         0.0000 
     17 C17         6.4306   54.1270   18.1654 C.2       1 UNK         0.0000 
     18 O18         6.3572   55.3004   17.8039 O.2       1 UNK         0.0000 
     19 C19         5.7850   53.7046   19.5014 C.3       1 UNK         0.0000 
     20 H20         6.1205   52.6829   19.6819 H         1 UNK         0.0000 
     21 C21         4.2495   53.6968   19.3578 C.3       1 UNK         0.0000 
     22 C22         3.6408   53.2908   20.7145 C.3       1 UNK         0.0000 
     23 C23         4.0933   54.2076   21.8768 C.3       1 UNK         0.0000 
     24 N24         5.6459   54.1718   21.9827 N.4       1 UNK         0.0000 
     25 C25         6.2482   54.6647   20.6337 C.3       1 UNK         0.0000 
     26 C26         6.3201   54.9764   23.1481 C.3       1 UNK         0.0000 
     27 C27         5.7840   54.7066   24.5556 C.2       1 UNK         0.0000 
     28 N28         4.5971   54.3224   24.9336 N.2       1 UNK         0.0000 
     29 C29         4.7136   54.1761   26.2410 C.2       1 UNK         0.0000 
     30 N30         5.8968   54.4994   26.7321 N.2       1 UNK         0.0000 
     31 O31         6.6361   54.8649   25.6015 O.3       1 UNK         0.0000 
     32 C32         3.5827   53.6136   27.0731 C.ar      1 UNK         0.0000 
     33 C33         2.3240   53.4245   26.4858 C.ar      1 UNK         0.0000 
     34 C34         1.2870   52.8160   27.1848 C.ar      1 UNK         0.0000 
     35 C35         1.4749   52.3758   28.5003 C.ar      1 UNK         0.0000 
     36 C36         2.7182   52.5726   29.1183 C.ar      1 UNK         0.0000 
     37 C37         3.7608   53.1985   28.4022 C.ar      1 UNK         0.0000 
     38 O38         2.8343   52.0966   30.4121 O.3       1 UNK         0.0000 
     39 C39         4.0665   52.2007   31.1019 C.3       1 UNK         0.0000 
     40 O40         0.4943   51.7379   29.2428 O.3       1 UNK         0.0000 
     41 C41        -0.7486   51.3998   28.6348 C.3       1 UNK         0.0000 
     42 H42        12.4330   57.6578   16.8717 H         1 UNK         0.0000 
     43 H43        11.8477   58.1504   15.2945 H         1 UNK         0.0000 
     44 H44        11.0518   58.7684   16.7483 H         1 UNK         0.0000 
     45 H45        11.3558   55.8256   18.0814 H         1 UNK         0.0000 
     46 H46         9.8155   53.9171   18.0395 H         1 UNK         0.0000 
     47 H47         8.0271   55.4510   14.4358 H         1 UNK         0.0000 
     48 H48         9.5784   57.3520   14.4805 H         1 UNK         0.0000 
     49 H49         7.8747   52.2816   13.6926 H         1 UNK         0.0000 
     50 H50         9.0402   50.2477   12.9233 H         1 UNK         0.0000 
     51 H51        10.3321   48.8864   14.5168 H         1 UNK         0.0000 
     52 H52        10.4797   49.5530   16.8985 H         1 UNK         0.0000 
     53 H53         9.3328   51.5835   17.6770 H         1 UNK         0.0000 
     54 H54         6.8700   52.2110   17.6840 H         1 UNK         0.0000 
     55 H55         3.8560   54.6909   19.1291 H         1 UNK         0.0000 
     56 H56         3.9194   52.9593   18.6208 H         1 UNK         0.0000 
     57 H57         2.5510   53.2969   20.6425 H         1 UNK         0.0000 
     58 H58         3.9089   52.2559   20.9369 H         1 UNK         0.0000 
     59 H59         3.7757   55.2424   21.7463 H         1 UNK         0.0000 
     60 H60         3.6601   53.7925   22.7793 H         1 UNK         0.0000 
     61 H61         7.3366   54.6862   20.7240 H         1 UNK         0.0000 
     62 H62         5.8849   55.6868   20.4976 H         1 UNK         0.0000 
     63 H63         7.3634   54.6531   23.0921 H         1 UNK         0.0000 
     64 H64         6.3045   56.0350   22.8779 H         1 UNK         0.0000 
     65 H65         2.1390   53.7268   25.4662 H         1 UNK         0.0000 
     66 H66         0.3421   52.6808   26.6821 H         1 UNK         0.0000 
     67 H67         4.7288   53.3342   28.8593 H         1 UNK         0.0000 
     68 H68         3.9726   51.7261   32.0789 H         1 UNK         0.0000 
     69 H69         4.8763   51.6979   30.5712 H         1 UNK         0.0000 
     70 H70         4.3036   53.2530   31.2639 H         1 UNK         0.0000 
     71 H71        -1.3819   50.8966   29.3665 H         1 UNK         0.0000 
     72 H72        -1.2851   52.2845   28.2871 H         1 UNK         0.0000 
     73 H73        -0.6055   50.7150   27.7958 H         1 UNK         0.0000 
     74 H74         5.9168   53.2065   22.1173 H         1 UNK         0.0000 
@<TRIPOS>BOND
     1    1    2 1    
     2    1   42 1    
     3    1   43 1    
     4    1   44 1    
     5    2    7 ar   
     6    2    3 ar   
     7    3    4 ar   
     8    3   45 1    
     9    4    5 ar   
    10    4   46 1    
    11    5    6 ar   
    12    5    8 1    
    13    6    7 ar   
    14    6   47 1    
    15    7   48 1    
    16    8    9 1    
    17    8   10 1    
    18    8   16 1    
    19   10   15 ar   
    20   10   11 ar   
    21   11   12 ar   
    22   11   49 1    
    23   12   13 ar   
    24   12   50 1    
    25   13   14 ar   
    26   13   51 1    
    27   14   15 ar   
    28   14   52 1    
    29   15   53 1    
    30   16   17 am   BACKBONE|DICT|INTERRES
    31   16   54 1    
    32   17   18 2    
    33   17   19 1    
    34   19   20 1    
    35   19   25 1    
    36   19   21 1    
    37   21   22 1    
    38   21   55 1    
    39   21   56 1    
    40   22   23 1    
    41   22   57 1    
    42   22   58 1    
    43   23   24 1    
    44   23   59 1    
    45   23   60 1    
    46   24   25 1    
    47   24   26 1    
    48   24   74 1    
    49   25   61 1    
    50   25   62 1    
    51   26   27 1    
    52   26   63 1    
    53   26   64 1    
    54   27   31 1    
    55   27   28 2    
    56   28   29 1    
    57   29   30 2    
    58   29   32 1    
    59   30   31 1    
    60   32   37 ar   
    61   32   33 ar   
    62   33   34 ar   
    63   33   65 1    
    64   34   35 ar   
    65   34   66 1    
    66   35   36 ar   
    67   35   40 1    
    68   36   37 ar   
    69   36   38 1    
    70   37   67 1    
    71   38   39 1    
    72   39   68 1    
    73   39   69 1    
    74   39   70 1    
    75   40   41 1    
    76   41   71 1    
    77   41   72 1    
    78   41   73 1    
@<TRIPOS>SUBSTRUCTURE
     1 UNK         1 GROUP             0       ****    0 ROOT    
