@<TRIPOS>MOLECULE
ZINC08397370_1305
45   47    1
SMALL
USER_CHARGES


@<TRIPOS>ATOM
      1 C1          1.8889   50.8044   22.5066 C.3       1 UNK         0.0000 
      2 C2          2.3747   50.5508   21.0696 C.2       1 UNK         0.0000 
      3 N3          3.2845   51.2369   20.4819 N.2       1 UNK         0.0000 
      4 N4          3.7615   52.3635   21.0915 N.pl3     1 UNK         0.0000 
      5 C5          4.6657   53.1523   20.4951 C.2       1 UNK         0.0000 
      6 N6          5.2410   52.8966   19.3166 N.pl3     1 UNK         0.0000 
      7 S7          5.1086   54.6350   21.2933 S.3       1 UNK         0.0000 
      8 C8          5.4916   54.0967   22.9952 C.3       1 UNK         0.0000 
      9 H9          5.8348   53.0660   22.8809 H         1 UNK         0.0000 
     10 C10         6.5397   54.8917   23.6948 C.3       1 UNK         0.0000 
     11 C11         6.0657   54.9228   25.1334 C.2       1 UNK         0.0000 
     12 O12         6.7496   55.3756   26.0501 O.2       1 UNK         0.0000 
     13 N13         4.8133   54.3755   25.2106 N.am      1 UNK         0.0000 
     14 C14         4.3228   54.0946   23.9633 C.2       1 UNK         0.0000 
     15 O15         3.1783   53.7754   23.6393 O.2       1 UNK         0.0000 
     16 C16         4.1388   54.0819   26.4455 C.ar      1 UNK         0.0000 
     17 C17         4.8737   53.6911   27.5835 C.ar      1 UNK         0.0000 
     18 C18         4.2333   53.3319   28.7648 C.ar      1 UNK         0.0000 
     19 C19         2.8463   53.3548   28.8350 C.ar      1 UNK         0.0000 
     20 C20         2.0945   53.7412   27.7309 C.ar      1 UNK         0.0000 
     21 C21         2.7357   54.0962   26.5466 C.ar      1 UNK         0.0000 
     22 Br22        1.9770   52.8323   30.4460 Br        1 UNK         0.0000 
     23 C23         1.6801   49.4596   20.3307 C.ar      1 UNK         0.0000 
     24 C24         2.1953   48.9830   19.1122 C.ar      1 UNK         0.0000 
     25 C25         1.5587   47.9743   18.3976 C.ar      1 UNK         0.0000 
     26 C26         0.3769   47.4276   18.8848 C.ar      1 UNK         0.0000 
     27 C27        -0.1697   47.8899   20.0774 C.ar      1 UNK         0.0000 
     28 C28         0.4764   48.8965   20.7922 C.ar      1 UNK         0.0000 
     29 H29         1.7288   49.8700   23.0468 H         1 UNK         0.0000 
     30 H30         2.5946   51.3746   23.1030 H         1 UNK         0.0000 
     31 H31         0.9554   51.3668   22.5046 H         1 UNK         0.0000 
     32 H32         3.3278   52.6598   21.9567 H         1 UNK         0.0000 
     33 H33         5.8497   53.5712   18.8789 H         1 UNK         0.0000 
     34 H34         7.5044   54.3936   23.6492 H         1 UNK         0.0000 
     35 H35         6.6503   55.9103   23.3198 H         1 UNK         0.0000 
     36 H36         5.9509   53.6176   27.5635 H         1 UNK         0.0000 
     37 H37         4.8118   53.0143   29.6183 H         1 UNK         0.0000 
     38 H38         1.0159   53.7529   27.7874 H         1 UNK         0.0000 
     39 H39         2.1164   54.3812   25.7117 H         1 UNK         0.0000 
     40 H40         3.1053   49.3924   18.6966 H         1 UNK         0.0000 
     41 H41         1.9862   47.6329   17.4656 H         1 UNK         0.0000 
     42 H42        -0.1240   46.6495   18.3282 H         1 UNK         0.0000 
     43 H43        -1.0943   47.4711   20.4468 H         1 UNK         0.0000 
     44 H44         0.0086   49.2306   21.7062 H         1 UNK         0.0000 
     45 H45         5.1056   51.9787   18.8754 H         1 UNK         0.0000 
@<TRIPOS>BOND
     1    1    2 1    
     2    1   29 1    
     3    1   30 1    
     4    1   31 1    
     5    2    3 2    
     6    2   23 1    
     7    3    4 1    
     8    4    5 1    
     9    4   32 1    
    10    5    6 2    
    11    5    7 1    
    12    6   33 1    
    13    6   45 1    
    14    7    8 1    
    15    8    9 1    
    16    8   14 1    
    17    8   10 1    
    18   10   11 1    
    19   10   34 1    
    20   10   35 1    
    21   11   12 2    
    22   11   13 am   BACKBONE|DICT|INTERRES
    23   13   14 am   BACKBONE|DICT|INTERRES
    24   13   16 1    
    25   14   15 2    
    26   16   21 ar   
    27   16   17 ar   
    28   17   18 ar   
    29   17   36 1    
    30   18   19 ar   
    31   18   37 1    
    32   19   20 ar   
    33   19   22 1    
    34   20   21 ar   
    35   20   38 1    
    36   21   39 1    
    37   23   28 ar   
    38   23   24 ar   
    39   24   25 ar   
    40   24   40 1    
    41   25   26 ar   
    42   25   41 1    
    43   26   27 ar   
    44   26   42 1    
    45   27   28 ar   
    46   27   43 1    
    47   28   44 1    
@<TRIPOS>SUBSTRUCTURE
     1 UNK         1 GROUP             0       ****    0 ROOT    
