@<TRIPOS>MOLECULE
ZINC00751323_4415
58   62    1
SMALL
USER_CHARGES


@<TRIPOS>ATOM
      1 C1          0.6970   52.7913   30.9574 C.ar      1 UNK         0.0000 
      2 C2          0.1471   53.7691   30.1369 C.ar      1 UNK         0.0000 
      3 C3          0.9487   54.4404   29.2245 C.ar      1 UNK         0.0000 
      4 C4          2.2936   54.1106   29.0843 C.ar      1 UNK         0.0000 
      5 C5          2.8329   53.0625   29.8443 C.ar      1 UNK         0.0000 
      6 C6          2.0378   52.4502   30.8154 C.ar      1 UNK         0.0000 
      7 C7          4.2493   52.5942   29.5531 C.3       1 UNK         0.0000 
      8 C8          5.0999   53.6429   28.7799 C.3       1 UNK         0.0000 
      9 N9          4.3328   54.1398   27.6326 N.pl3     1 UNK         0.0000 
     10 C10         3.1851   54.8967   28.1446 C.3       1 UNK         0.0000 
     11 C11         4.8327   54.3588   26.3492 C.ar      1 UNK         0.0000 
     12 C12         6.1292   54.8805   26.2337 C.ar      1 UNK         0.0000 
     13 C13         6.7040   55.1116   24.9900 C.ar      1 UNK         0.0000 
     14 C14         6.0094   54.8227   23.8244 C.ar      1 UNK         0.0000 
     15 C15         4.7075   54.3138   23.9191 C.ar      1 UNK         0.0000 
     16 C16         4.0831   54.0961   25.1633 C.ar      1 UNK         0.0000 
     17 C17         2.7019   53.4378   25.1925 C.2       1 UNK         0.0000 
     18 O18         2.2881   52.8957   26.2112 O.2       1 UNK         0.0000 
     19 N19         1.9845   53.3833   24.0532 N.am      1 UNK         0.0000 
     20 C20         0.9138   52.4061   23.7999 C.3       1 UNK         0.0000 
     21 C21        -0.1685   52.1109   24.8307 C.3       1 UNK         0.0000 
     22 C22        -0.4988   52.8966   23.5938 C.3       1 UNK         0.0000 
     23 N23         6.7044   55.0744   22.6258 N.am      1 UNK         0.0000 
     24 C24         6.2666   55.0626   21.3511 C.2       1 UNK         0.0000 
     25 O25         5.1124   54.8193   20.9980 O.2       1 UNK         0.0000 
     26 N26         7.2865   55.3268   20.5112 N.am      1 UNK         0.0000 
     27 C27         7.2453   55.2638   19.1072 C.ar      1 UNK         0.0000 
     28 C28         8.2904   54.5806   18.4747 C.ar      1 UNK         0.0000 
     29 C29         8.3367   54.4911   17.0842 C.ar      1 UNK         0.0000 
     30 C30         7.3530   55.1082   16.3118 C.ar      1 UNK         0.0000 
     31 C31         6.3295   55.8247   16.9298 C.ar      1 UNK         0.0000 
     32 C32         6.2730   55.9126   18.3215 C.ar      1 UNK         0.0000 
     33 F33         5.2897   56.6535   18.8816 F         1 UNK         0.0000 
     34 H34         0.0744   52.2867   31.6819 H         1 UNK         0.0000 
     35 H35        -0.8954   54.0208   30.2088 H         1 UNK         0.0000 
     36 H36         0.5333   55.2198   28.6031 H         1 UNK         0.0000 
     37 H37         2.4504   51.6830   31.4524 H         1 UNK         0.0000 
     38 H38         4.7037   52.2727   30.4860 H         1 UNK         0.0000 
     39 H39         4.1788   51.6974   28.9364 H         1 UNK         0.0000 
     40 H40         6.0013   53.1416   28.4237 H         1 UNK         0.0000 
     41 H41         5.4381   54.4623   29.4189 H         1 UNK         0.0000 
     42 H42         2.5835   55.2350   27.3060 H         1 UNK         0.0000 
     43 H43         3.5049   55.7971   28.6613 H         1 UNK         0.0000 
     44 H44         6.7001   55.1097   27.1222 H         1 UNK         0.0000 
     45 H45         7.7018   55.5112   24.9117 H         1 UNK         0.0000 
     46 H46         4.1840   54.0561   23.0128 H         1 UNK         0.0000 
     47 H47         2.3142   53.9067   23.2555 H         1 UNK         0.0000 
     48 H48         1.2532   51.5726   23.1797 H         1 UNK         0.0000 
     49 H49        -0.5235   51.0831   24.9289 H         1 UNK         0.0000 
     50 H50        -0.1758   52.6327   25.7874 H         1 UNK         0.0000 
     51 H51        -0.7016   53.9635   23.6886 H         1 UNK         0.0000 
     52 H52        -1.0961   52.4282   22.8127 H         1 UNK         0.0000 
     53 H53         7.6758   55.3163   22.7661 H         1 UNK         0.0000 
     54 H54         8.2126   55.3039   20.9085 H         1 UNK         0.0000 
     55 H55         9.0671   54.0982   19.0504 H         1 UNK         0.0000 
     56 H56         9.1352   53.9424   16.6047 H         1 UNK         0.0000 
     57 H57         7.3869   55.0369   15.2344 H         1 UNK         0.0000 
     58 H58         5.5780   56.3194   16.3328 H         1 UNK         0.0000 
@<TRIPOS>BOND
     1    1    6 ar   
     2    1    2 ar   
     3    1   34 1    
     4    2    3 ar   
     5    2   35 1    
     6    3    4 ar   
     7    3   36 1    
     8    4   10 1    
     9    4    5 ar   
    10    5    6 ar   
    11    5    7 1    
    12    6   37 1    
    13    7    8 1    
    14    7   38 1    
    15    7   39 1    
    16    8    9 1    
    17    8   40 1    
    18    8   41 1    
    19    9   10 1    
    20    9   11 1    
    21   10   42 1    
    22   10   43 1    
    23   11   16 ar   
    24   11   12 ar   
    25   12   13 ar   
    26   12   44 1    
    27   13   14 ar   
    28   13   45 1    
    29   14   15 ar   
    30   14   23 1    
    31   15   16 ar   
    32   15   46 1    
    33   16   17 1    
    34   17   18 2    
    35   17   19 am   BACKBONE|DICT|INTERRES
    36   19   20 1    
    37   19   47 1    
    38   20   22 1    
    39   20   21 1    
    40   20   48 1    
    41   21   22 1    
    42   21   49 1    
    43   21   50 1    
    44   22   51 1    
    45   22   52 1    
    46   23   24 am   BACKBONE|DICT|INTERRES
    47   23   53 1    
    48   24   25 2    
    49   24   26 am   BACKBONE|DICT|INTERRES
    50   26   27 1    
    51   26   54 1    
    52   27   32 ar   
    53   27   28 ar   
    54   28   29 ar   
    55   28   55 1    
    56   29   30 ar   
    57   29   56 1    
    58   30   31 ar   
    59   30   57 1    
    60   31   32 ar   
    61   31   58 1    
    62   32   33 1    
@<TRIPOS>SUBSTRUCTURE
     1 UNK         1 GROUP             0       ****    0 ROOT    
