ZINC54982236_1867
                    3D
 Schrodinger Suite 2024-2.
 44 47  0  0  1  0            999 V2000
    1.4891   53.3565   28.3377 C   0  0  0  0  0  0
    0.4021   52.5586   28.7269 C   0  0  0  0  0  0
   -0.1333   52.6603   29.9716 N   0  0  0  0  0  0
    0.3910   53.6057   30.7881 C   0  0  0  0  0  0
    1.3852   54.4605   30.4683 N   0  0  0  0  0  0
    1.9457   54.3084   29.2466 C   0  0  0  0  0  0
    3.2927   55.2967   28.8332 Cl  0  0  0  0  0  0
   -0.0956   53.6967   32.0817 N   0  0  0  0  0  0
   -0.1716   51.5768   27.9029 N   0  0  0  0  0  0
    0.4016   51.1933   26.6071 C   0  0  2  0  0  0
    0.2071   52.2709   25.5028 C   0  0  2  0  0  0
    0.5897   53.2273   25.8484 H   0  0  0  0  0  0
   -1.3021   52.4965   25.1813 C   0  0  0  0  0  0
   -2.0684   51.2036   24.8212 C   0  0  0  0  0  0
   -1.7624   50.0667   25.8205 C   0  0  0  0  0  0
   -0.2387   49.8878   26.0817 C   0  0  1  0  0  0
   -0.0959   49.1393   26.8658 H   0  0  0  0  0  0
    0.5305   49.3618   24.8438 C   0  0  0  0  0  0
    0.7434   50.4626   23.7679 N   0  3  1  0  0  0
    1.0663   51.8917   24.2725 C   0  0  0  0  0  0
    1.7569   50.0211   22.6953 C   0  0  0  0  0  0
    1.2629   49.2967   21.4656 C   0  0  0  0  0  0
    1.7601   50.7168   21.3505 C   0  0  0  0  0  0
    1.9946   53.2449   27.3936 H   0  0  0  0  0  0
    0.3138   54.3634   32.7143 H   0  0  0  0  0  0
   -0.7103   52.9501   32.4337 H   0  0  0  0  0  0
   -0.6381   50.8433   28.4230 H   0  0  0  0  0  0
    1.4589   51.0132   26.8051 H   0  0  0  0  0  0
   -1.7841   52.9445   26.0521 H   0  0  0  0  0  0
   -1.4122   53.2151   24.3678 H   0  0  0  0  0  0
   -3.1409   51.4039   24.8154 H   0  0  0  0  0  0
   -1.8341   50.8903   23.8047 H   0  0  0  0  0  0
   -2.2742   50.2639   26.7646 H   0  0  0  0  0  0
   -2.1874   49.1354   25.4436 H   0  0  0  0  0  0
   -0.0237   48.5663   24.3431 H   0  0  0  0  0  0
    1.5044   48.9735   25.1323 H   0  0  0  0  0  0
    2.1355   51.9178   24.4911 H   0  0  0  0  0  0
    0.8522   52.5538   23.4318 H   0  0  0  0  0  0
    2.7044   49.7333   23.1596 H   0  0  0  0  0  0
    0.1962   49.0941   21.3632 H   0  0  0  0  0  0
    1.8776   48.4964   21.0519 H   0  0  0  0  0  0
    2.7181   50.9026   20.8614 H   0  0  0  0  0  0
    1.0427   51.5152   21.1577 H   0  0  0  0  0  0
   -0.1724   50.5691   23.3550 H   0  0  0  0  0  0
  1  6  2  0  0  0
  1  2  1  0  0  0
  1 24  1  0  0  0
  2  3  2  0  0  0
  2  9  1  0  0  0
  3  4  1  0  0  0
  4  5  2  0  0  0
  4  8  1  0  0  0
  5  6  1  0  0  0
  6  7  1  0  0  0
  8 25  1  0  0  0
  8 26  1  0  0  0
  9 10  1  0  0  0
  9 27  1  0  0  0
 10 16  1  0  0  0
 10 11  1  0  0  0
 10 28  1  0  0  0
 11 12  1  0  0  0
 11 20  1  0  0  0
 11 13  1  0  0  0
 13 14  1  0  0  0
 13 29  1  0  0  0
 13 30  1  0  0  0
 14 15  1  0  0  0
 14 31  1  0  0  0
 14 32  1  0  0  0
 15 16  1  0  0  0
 15 33  1  0  0  0
 15 34  1  0  0  0
 16 17  1  0  0  0
 16 18  1  0  0  0
 18 19  1  0  0  0
 18 35  1  0  0  0
 18 36  1  0  0  0
 19 20  1  0  0  0
 19 21  1  0  0  0
 19 44  1  0  0  0
 20 37  1  0  0  0
 20 38  1  0  0  0
 21 23  1  0  0  0
 21 22  1  0  0  0
 21 39  1  0  0  0
 22 23  1  0  0  0
 22 40  1  0  0  0
 22 41  1  0  0  0
 23 42  1  0  0  0
 23 43  1  0  0  0
M  CHG  1  19   1
M  END
> <i_i_glide_confnum>
1

> <i_i_glide_lignum>
1868

> <i_i_glide_posenum>
325

> <i_i_glide_rotatable_bonds>
3

> <i_m_Source_File_Index>
5256

> <b_m_subgroup_collapsed>
0

> <r_i_docking_score>
-4.77243

> <r_i_glide_ecoul>
-7.25481

> <r_i_glide_eff_state_penalty>
0

> <r_i_glide_einternal>
3.83694

> <r_i_glide_emodel>
-44.0467

> <r_i_glide_energy>
-33.8627

> <r_i_glide_erotb>
0.582139

> <r_i_glide_esite>
-0.138111

> <r_i_glide_evdw>
-26.6079

> <r_i_glide_gscore>
-4.77243

> <r_i_glide_hbond>
-0.293751

> <r_i_glide_ligand_efficiency>
-0.227259

> <r_i_glide_ligand_efficiency_ln>
-1.17997

> <r_i_glide_ligand_efficiency_sa>
-0.626989

> <r_i_glide_lipo>
-1.08312

> <r_i_glide_metal>
0

> <r_i_glide_rewards>
-1.42097

> <s_i_glide_gridfile>
wee1_glide-grid

> <s_m_Source_File>
wee1_decoys_glide_SP.sdf

> <s_m_Source_Path>
/Users/zhangxujun/Desktop

> <s_m_entry_id>
5531

> <s_m_entry_name>
wee1_decoys_glide_SP.5256

> <s_m_subgroup_title>
wee1_decoys_glide_SP

> <s_m_subgroupid>
wee1_decoys_glide_SP


$$$$
