ZINC40735023_3945
                    3D
 Schrodinger Suite 2024-2.
 52 55  0  0  1  0            999 V2000
    7.5374   54.7600   14.7028 C   0  0  0  0  0  0
    6.5092   54.8842   15.8449 C   0  0  2  0  0  0
    5.7400   53.5944   16.0802 C   0  0  0  0  0  0
    5.1804   53.8787   17.4727 C   0  0  2  0  0  0
    4.8579   52.9318   17.9016 H   0  0  0  0  0  0
    3.9955   54.8735   17.3699 C   0  0  0  0  0  0
    4.2866   56.1966   16.5771 C   0  0  0  0  0  0
    5.5126   56.0650   15.5982 C   0  0  0  0  0  0
    3.0232   56.5927   15.7760 C   0  0  0  0  0  0
    4.6334   57.2929   17.6173 C   0  0  0  0  0  0
    6.2850   54.4704   18.2392 N   0  0  0  0  0  0
    7.1968   55.0127   17.2158 C   0  0  0  0  0  0
    6.3879   54.7102   19.6285 C   0  0  0  0  0  0
    5.4994   54.2167   20.6262 C   0  0  0  0  0  0
    5.8059   54.5405   21.9721 C   0  0  0  0  0  0
    6.8889   55.2916   22.2944 N   0  0  0  0  0  0
    7.6833   55.6967   21.2826 C   0  0  0  0  0  0
    7.4812   55.4460   19.9753 N   0  0  0  0  0  0
    4.9760   54.0968   23.0204 N   0  0  0  0  0  0
    5.0476   54.2164   24.4215 C   0  0  0  0  0  0
    6.2685   54.3277   25.1051 C   0  0  0  0  0  0
    6.3003   54.4302   26.4964 C   0  0  0  0  0  0
    5.1108   54.4277   27.2222 C   0  0  0  0  0  0
    3.8908   54.3302   26.5559 C   0  0  0  0  0  0
    3.8528   54.2227   25.1651 C   0  0  0  0  0  0
    2.3045   54.0992   24.3935 Cl  0  0  0  0  0  0
    5.1397   54.5359   28.9422 Cl  0  0  0  0  0  0
    4.3886   53.4067   20.3236 N   0  0  0  0  0  0
    8.1172   55.6767   14.5944 H   0  0  0  0  0  0
    7.0479   54.5640   13.7473 H   0  0  0  0  0  0
    8.2421   53.9462   14.8793 H   0  0  0  0  0  0
    4.9685   53.4018   15.3332 H   0  0  0  0  0  0
    6.3981   52.7220   16.1037 H   0  0  0  0  0  0
    3.2821   54.2963   16.7760 H   0  0  0  0  0  0
    3.4548   55.0411   18.3033 H   0  0  0  0  0  0
    5.9939   57.0237   15.3907 H   0  0  0  0  0  0
    5.0938   55.7796   14.6304 H   0  0  0  0  0  0
    3.1733   57.5302   15.2401 H   0  0  0  0  0  0
    2.7567   55.8338   15.0379 H   0  0  0  0  0  0
    2.1643   56.7294   16.4348 H   0  0  0  0  0  0
    4.6426   58.2905   17.1737 H   0  0  0  0  0  0
    3.9070   57.2964   18.4258 H   0  0  0  0  0  0
    5.6064   57.1485   18.0812 H   0  0  0  0  0  0
    8.1155   54.4225   17.2335 H   0  0  0  0  0  0
    7.4408   56.0619   17.3882 H   0  0  0  0  0  0
    8.5860   56.2305   21.5526 H   0  0  0  0  0  0
    4.0978   53.7243   22.6966 H   0  0  0  0  0  0
    7.2052   54.3017   24.5707 H   0  0  0  0  0  0
    7.2437   54.4944   27.0176 H   0  0  0  0  0  0
    2.9685   54.3305   27.1203 H   0  0  0  0  0  0
    3.8156   53.0116   21.0507 H   0  0  0  0  0  0
    4.2414   53.1248   19.3649 H   0  0  0  0  0  0
  1  2  1  0  0  0
  1 29  1  0  0  0
  1 30  1  0  0  0
  1 31  1  0  0  0
  2  8  1  0  0  0
  2 12  1  0  0  0
  2  3  1  0  0  0
  3  4  1  0  0  0
  3 32  1  0  0  0
  3 33  1  0  0  0
  4  5  1  0  0  0
  4  6  1  0  0  0
  4 11  1  0  0  0
  6  7  1  0  0  0
  6 34  1  0  0  0
  6 35  1  0  0  0
  7  8  1  0  0  0
  7  9  1  0  0  0
  7 10  1  0  0  0
  8 36  1  0  0  0
  8 37  1  0  0  0
  9 38  1  0  0  0
  9 39  1  0  0  0
  9 40  1  0  0  0
 10 41  1  0  0  0
 10 42  1  0  0  0
 10 43  1  0  0  0
 11 12  1  0  0  0
 11 13  1  0  0  0
 12 44  1  0  0  0
 12 45  1  0  0  0
 13 18  2  0  0  0
 13 14  1  0  0  0
 14 15  2  0  0  0
 14 28  1  0  0  0
 15 16  1  0  0  0
 15 19  1  0  0  0
 16 17  2  0  0  0
 17 18  1  0  0  0
 17 46  1  0  0  0
 19 20  1  0  0  0
 19 47  1  0  0  0
 20 25  2  0  0  0
 20 21  1  0  0  0
 21 22  2  0  0  0
 21 48  1  0  0  0
 22 23  1  0  0  0
 22 49  1  0  0  0
 23 24  2  0  0  0
 23 27  1  0  0  0
 24 25  1  0  0  0
 24 50  1  0  0  0
 25 26  1  0  0  0
 28 51  1  0  0  0
 28 52  1  0  0  0
M  END
> <i_i_glide_confnum>
2

> <i_i_glide_lignum>
3946

> <i_i_glide_posenum>
279

> <i_i_glide_rotatable_bonds>
3

> <i_m_Source_File_Index>
5764

> <b_m_subgroup_collapsed>
0

> <r_i_docking_score>
-4.96815

> <r_i_glide_ecoul>
-0.810644

> <r_i_glide_eff_state_penalty>
0

> <r_i_glide_einternal>
1.01766

> <r_i_glide_emodel>
-47.3503

> <r_i_glide_energy>
-36.7916

> <r_i_glide_erotb>
0.357218

> <r_i_glide_esite>
-0.00770829

> <r_i_glide_evdw>
-35.9809

> <r_i_glide_gscore>
-4.96815

> <r_i_glide_hbond>
0

> <r_i_glide_ligand_efficiency>
-0.184006

> <r_i_glide_ligand_efficiency_ln>
-1.1565

> <r_i_glide_ligand_efficiency_sa>
-0.552017

> <r_i_glide_lipo>
-2.40711

> <r_i_glide_metal>
0

> <r_i_glide_rewards>
-0.989909

> <s_i_glide_gridfile>
wee1_glide-grid

> <s_m_Source_File>
wee1_decoys_glide_SP.sdf

> <s_m_Source_Path>
/Users/zhangxujun/Desktop

> <s_m_entry_id>
6039

> <s_m_entry_name>
wee1_decoys_glide_SP.5764

> <s_m_subgroup_title>
wee1_decoys_glide_SP

> <s_m_subgroupid>
wee1_decoys_glide_SP


$$$$
