ZINC14273325_3411
                    3D
 Schrodinger Suite 2024-2.
 53 55  0  0  1  0            999 V2000
    0.2969   54.3238   30.8725 C   0  0  0  0  0  0
    0.8244   52.9179   30.4934 C   0  0  0  0  0  0
    1.3043   52.2329   31.7950 C   0  0  0  0  0  0
   -0.3599   52.0841   29.9404 C   0  0  0  0  0  0
    1.9928   52.9897   29.4366 C   0  0  2  0  0  0
    2.3704   51.9701   29.3365 H   0  0  0  0  0  0
    3.1709   53.8971   29.8774 C   0  0  0  0  0  0
    4.4153   53.7561   28.9863 C   0  0  0  0  0  0
    4.0281   53.8123   27.5024 C   0  0  0  0  0  0
    2.6961   53.6288   27.1048 C   0  0  0  0  0  0
    2.5004   53.6967   25.3966 S   0  0  0  0  0  0
    4.1855   54.0810   25.1756 C   0  0  0  0  0  0
    4.8875   54.0989   26.3988 C   0  0  0  0  0  0
    6.3030   54.4248   26.4957 C   0  0  0  0  0  0
    6.8744   55.1469   25.6809 O   0  0  0  0  0  0
    6.9701   53.8492   27.4930 N   0  0  0  0  0  0
    4.7491   54.2747   23.9129 N   0  0  0  0  0  0
    4.1937   54.0965   22.6904 C   0  0  0  0  0  0
    3.0488   53.6855   22.4982 O   0  0  0  0  0  0
    5.0850   54.4154   21.5070 C   0  0  0  0  0  0
    4.6550   54.0995   20.2086 C   0  0  0  0  0  0
    5.4494   54.3749   19.0960 C   0  0  0  0  0  0
    6.7069   54.9631   19.2631 C   0  0  0  0  0  0
    7.1436   55.2969   20.5499 C   0  0  0  0  0  0
    6.3392   55.0313   21.6585 C   0  0  0  0  0  0
    8.7040   55.9838   20.7994 Cl  0  0  0  0  0  0
    7.5039   55.2179   18.1731 O   0  0  0  0  0  0
    8.3957   54.1592   17.8436 C   0  0  0  0  0  0
    4.8604   53.9758   17.5203 Cl  0  0  0  0  0  0
    1.5062   53.4473   28.0331 C   0  0  0  0  0  0
   -0.4954   54.2619   31.6191 H   0  0  0  0  0  0
   -0.0967   54.8507   30.0096 H   0  0  0  0  0  0
    1.0726   54.9627   31.2880 H   0  0  0  0  0  0
    1.9127   51.3585   31.5957 H   0  0  0  0  0  0
    1.9050   52.8908   32.4108 H   0  0  0  0  0  0
    0.4710   51.9159   32.4220 H   0  0  0  0  0  0
   -0.0268   51.1316   29.5283 H   0  0  0  0  0  0
   -1.0954   51.8533   30.7121 H   0  0  0  0  0  0
   -0.8954   52.6057   29.1481 H   0  0  0  0  0  0
    2.8572   54.9399   29.9507 H   0  0  0  0  0  0
    3.4825   53.6161   30.8813 H   0  0  0  0  0  0
    5.1213   54.5437   29.2525 H   0  0  0  0  0  0
    4.9101   52.8066   29.1975 H   0  0  0  0  0  0
    6.4955   53.2345   28.1357 H   0  0  0  0  0  0
    7.9561   54.0164   27.5961 H   0  0  0  0  0  0
    5.7271   54.5230   23.9390 H   0  0  0  0  0  0
    3.6895   53.6380   20.0475 H   0  0  0  0  0  0
    6.7278   55.2992   22.6322 H   0  0  0  0  0  0
    8.9322   54.4143   16.9298 H   0  0  0  0  0  0
    9.1374   53.9987   18.6277 H   0  0  0  0  0  0
    7.8686   53.2192   17.6677 H   0  0  0  0  0  0
    0.8149   52.7232   27.6027 H   0  0  0  0  0  0
    0.9729   54.3947   28.0985 H   0  0  0  0  0  0
  1  2  1  0  0  0
  1 31  1  0  0  0
  1 32  1  0  0  0
  1 33  1  0  0  0
  2  3  1  0  0  0
  2  4  1  0  0  0
  2  5  1  0  0  0
  3 34  1  0  0  0
  3 35  1  0  0  0
  3 36  1  0  0  0
  4 37  1  0  0  0
  4 38  1  0  0  0
  4 39  1  0  0  0
  5  6  1  0  0  0
  5 30  1  0  0  0
  5  7  1  0  0  0
  7  8  1  0  0  0
  7 40  1  0  0  0
  7 41  1  0  0  0
  8  9  1  0  0  0
  8 42  1  0  0  0
  8 43  1  0  0  0
  9 13  1  0  0  0
  9 10  2  0  0  0
 10 11  1  0  0  0
 10 30  1  0  0  0
 11 12  1  0  0  0
 12 13  2  0  0  0
 12 17  1  0  0  0
 13 14  1  0  0  0
 14 15  2  0  0  0
 14 16  1  0  0  0
 16 44  1  0  0  0
 16 45  1  0  0  0
 17 18  1  0  0  0
 17 46  1  0  0  0
 18 19  2  0  0  0
 18 20  1  0  0  0
 20 25  2  0  0  0
 20 21  1  0  0  0
 21 22  2  0  0  0
 21 47  1  0  0  0
 22 23  1  0  0  0
 22 29  1  0  0  0
 23 24  2  0  0  0
 23 27  1  0  0  0
 24 25  1  0  0  0
 24 26  1  0  0  0
 25 48  1  0  0  0
 27 28  1  0  0  0
 28 49  1  0  0  0
 28 50  1  0  0  0
 28 51  1  0  0  0
 30 52  1  0  0  0
 30 53  1  0  0  0
M  END
> <i_i_glide_confnum>
10

> <i_i_glide_lignum>
3412

> <i_i_glide_posenum>
374

> <i_i_glide_rotatable_bonds>
6

> <i_m_Source_File_Index>
5308

> <b_m_subgroup_collapsed>
0

> <r_i_docking_score>
-6.35197

> <r_i_glide_ecoul>
-0.152735

> <r_i_glide_eff_state_penalty>
0

> <r_i_glide_einternal>
0.502815

> <r_i_glide_emodel>
-65.1566

> <r_i_glide_energy>
-47.1058

> <r_i_glide_erotb>
0.290597

> <r_i_glide_esite>
0

> <r_i_glide_evdw>
-46.9531

> <r_i_glide_gscore>
-6.35197

> <r_i_glide_hbond>
-0.32

> <r_i_glide_ligand_efficiency>
-0.219033

> <r_i_glide_ligand_efficiency_ln>
-1.45444

> <r_i_glide_ligand_efficiency_sa>
-0.67294

> <r_i_glide_lipo>
-2.90973

> <r_i_glide_metal>
0

> <r_i_glide_rewards>
-1.04227

> <s_i_glide_gridfile>
wee1_glide-grid

> <s_m_Source_File>
wee1_decoys_glide_SP.sdf

> <s_m_Source_Path>
/Users/zhangxujun/Desktop

> <s_m_entry_id>
5583

> <s_m_entry_name>
wee1_decoys_glide_SP.5308

> <s_m_subgroup_title>
wee1_decoys_glide_SP

> <s_m_subgroupid>
wee1_decoys_glide_SP


$$$$
