@<TRIPOS>MOLECULE
ZINC12993062_766
68   72    1
SMALL
USER_CHARGES


@<TRIPOS>ATOM
      1 C1          7.1309   53.8033   23.1942 C.3       1 UNK         0.0000 
      2 C2          5.9562   54.7951   23.1514 C.3       1 UNK         0.0000 
      3 H3          6.3313   55.7959   23.3760 H         1 UNK         0.0000 
      4 C4          4.9402   54.4945   24.2649 C.ar      1 UNK         0.0000 
      5 C5          3.6258   54.0962   24.0034 C.ar      1 UNK         0.0000 
      6 C6          2.7523   53.8304   25.0551 C.ar      1 UNK         0.0000 
      7 C7          3.1526   53.9594   26.3888 C.ar      1 UNK         0.0000 
      8 C8          4.4797   54.3587   26.6672 C.ar      1 UNK         0.0000 
      9 C9          5.3391   54.6340   25.5994 C.ar      1 UNK         0.0000 
     10 C10         5.0077   54.4266   28.1022 C.3       1 UNK         0.0000 
     11 C11         3.8883   54.5131   29.1535 C.3       1 UNK         0.0000 
     12 C12         2.8103   53.4551   28.8741 C.3       1 UNK         0.0000 
     13 C13         2.1413   53.7210   27.5141 C.3       1 UNK         0.0000 
     14 N14         5.3946   54.8147   21.7950 N.am      1 UNK         0.0000 
     15 C15         5.9047   55.4664   20.7321 C.2       1 UNK         0.0000 
     16 O16         6.8417   56.2559   20.8309 O.2       1 UNK         0.0000 
     17 C17         5.2990   55.2053   19.3328 C.3       1 UNK         0.0000 
     18 C18         3.4556   54.1585   17.9201 C.3       1 UNK         0.0000 
     19 C19         2.3012   53.1257   17.8988 C.3       1 UNK         0.0000 
     20 C20         2.8048   51.7201   18.3177 C.3       1 UNK         0.0000 
     21 C21         3.5158   51.7706   19.6813 C.3       1 UNK         0.0000 
     22 C22         4.7134   52.7225   19.5795 C.3       1 UNK         0.0000 
     23 C23         1.6378   50.7130   18.4647 C.2       1 UNK         0.0000 
     24 O24         0.5653   51.0797   18.9535 O.2       1 UNK         0.0000 
     25 N25         1.9044   49.4482   18.0814 N.am      1 UNK         0.0000 
     26 C26         1.1552   48.2816   18.2932 C.ar      1 UNK         0.0000 
     27 C27         1.4418   47.1916   17.4474 C.ar      1 UNK         0.0000 
     28 C28         0.8071   45.9556   17.6247 C.ar      1 UNK         0.0000 
     29 C29        -0.1021   45.8412   18.6697 C.ar      1 UNK         0.0000 
     30 C30        -0.3824   46.8911   19.4972 C.ar      1 UNK         0.0000 
     31 C31         0.2277   48.1317   19.3447 C.ar      1 UNK         0.0000 
     32 O32        -1.2522   46.4875   20.4594 O.3       1 UNK         0.0000 
     33 C33        -1.6466   45.1892   20.1001 C.3       1 UNK         0.0000 
     34 O34        -0.7877   44.7432   19.0823 O.3       1 UNK         0.0000 
     35 H35         7.5900   53.7329   24.1797 H         1 UNK         0.0000 
     36 H36         6.7994   52.8097   22.8986 H         1 UNK         0.0000 
     37 H37         7.9062   54.1040   22.4899 H         1 UNK         0.0000 
     38 H38         3.2598   53.9875   22.9932 H         1 UNK         0.0000 
     39 H39         1.7373   53.5349   24.8320 H         1 UNK         0.0000 
     40 H40         6.3517   54.9380   25.8194 H         1 UNK         0.0000 
     41 H41         5.6978   55.2642   28.2210 H         1 UNK         0.0000 
     42 H42         5.5901   53.5220   28.2858 H         1 UNK         0.0000 
     43 H43         4.3067   54.3737   30.1502 H         1 UNK         0.0000 
     44 H44         3.4409   55.5090   29.1449 H         1 UNK         0.0000 
     45 H45         3.2581   52.4599   28.8794 H         1 UNK         0.0000 
     46 H46         2.0599   53.4602   29.6651 H         1 UNK         0.0000 
     47 H47         1.4724   52.8972   27.2603 H         1 UNK         0.0000 
     48 H48         1.5143   54.6096   27.5986 H         1 UNK         0.0000 
     49 H49         4.6209   54.1892   21.6456 H         1 UNK         0.0000 
     50 H50         4.8779   56.1321   18.9382 H         1 UNK         0.0000 
     51 H51         6.0677   54.8636   18.6379 H         1 UNK         0.0000 
     52 H52         3.0593   55.1659   17.7770 H         1 UNK         0.0000 
     53 H53         4.2149   53.9520   17.1631 H         1 UNK         0.0000 
     54 H54         1.5406   53.5011   18.5839 H         1 UNK         0.0000 
     55 H55         1.9203   53.1093   16.8755 H         1 UNK         0.0000 
     56 H56         3.5009   51.3167   17.5722 H         1 UNK         0.0000 
     57 H57         3.9145   50.7941   19.9571 H         1 UNK         0.0000 
     58 H58         2.8621   52.1604   20.4664 H         1 UNK         0.0000 
     59 H59         5.4061   52.4967   18.7669 H         1 UNK         0.0000 
     60 H60         5.2577   52.7009   20.5209 H         1 UNK         0.0000 
     61 H61         2.7819   49.3053   17.5693 H         1 UNK         0.0000 
     62 H62         2.1730   47.3006   16.6572 H         1 UNK         0.0000 
     63 H63         1.0422   45.1196   16.9833 H         1 UNK         0.0000 
     64 H64         0.0128   48.9325   20.0361 H         1 UNK         0.0000 
     65 H65        -2.6734   45.2200   19.7238 H         1 UNK         0.0000 
     66 H66        -1.5729   44.5286   20.9669 H         1 UNK         0.0000 
     67 N67         4.1557   54.1431   19.3078 N.4       1 UNK         0.0000 
     68 H68         3.4654   54.3881   20.0095 H         1 UNK         0.0000 
@<TRIPOS>BOND
     1    1    2 1    
     2    1   35 1    
     3    1   36 1    
     4    1   37 1    
     5    2    3 1    
     6    2    4 1    
     7    2   14 1    
     8    4    9 ar   
     9    4    5 ar   
    10    5    6 ar   
    11    5   38 1    
    12    6    7 ar   
    13    6   39 1    
    14    7   13 1    
    15    7    8 ar   
    16    8    9 ar   
    17    8   10 1    
    18    9   40 1    
    19   10   11 1    
    20   10   41 1    
    21   10   42 1    
    22   11   12 1    
    23   11   43 1    
    24   11   44 1    
    25   12   13 1    
    26   12   45 1    
    27   12   46 1    
    28   13   47 1    
    29   13   48 1    
    30   14   15 am   BACKBONE|DICT|INTERRES
    31   14   49 1    
    32   15   16 2    
    33   15   17 1    
    34   17   50 1    
    35   17   51 1    
    36   17   67 1    
    37   18   19 1    
    38   18   52 1    
    39   18   53 1    
    40   18   67 1    
    41   19   20 1    
    42   19   54 1    
    43   19   55 1    
    44   20   21 1    
    45   20   23 1    
    46   20   56 1    
    47   21   22 1    
    48   21   57 1    
    49   21   58 1    
    50   22   59 1    
    51   22   60 1    
    52   22   67 1    
    53   23   24 2    
    54   23   25 am   BACKBONE|DICT|INTERRES
    55   25   26 1    
    56   25   61 1    
    57   26   31 ar   
    58   26   27 ar   
    59   27   28 ar   
    60   27   62 1    
    61   28   29 ar   
    62   28   63 1    
    63   29   34 1    
    64   29   30 ar   
    65   30   31 ar   
    66   30   32 1    
    67   31   64 1    
    68   32   33 1    
    69   33   34 1    
    70   33   65 1    
    71   33   66 1    
    72   67   68 1    
@<TRIPOS>SUBSTRUCTURE
     1 UNK         1 GROUP             0       ****    0 ROOT    
