@<TRIPOS>MOLECULE
ZINC39636817_3063
63   66    1
SMALL
USER_CHARGES


@<TRIPOS>ATOM
      1 C1          1.4417   55.0251   29.7238 C.ar      1 UNK         0.0000 
      2 C2          0.5756   53.9581   29.4849 C.ar      1 UNK         0.0000 
      3 C3          1.0022   52.8470   28.7518 C.ar      1 UNK         0.0000 
      4 C4          2.3149   52.8224   28.2618 C.ar      1 UNK         0.0000 
      5 C5          3.1949   53.8864   28.4993 C.ar      1 UNK         0.0000 
      6 C6          2.7449   54.9904   29.2325 C.ar      1 UNK         0.0000 
      7 C7          4.6220   53.8182   27.9580 C.3       1 UNK         0.0000 
      8 F8          5.2385   52.7618   28.4821 F         1 UNK         0.0000 
      9 F9          4.5982   53.6976   26.6299 F         1 UNK         0.0000 
     10 F10         5.3382   54.8965   28.2670 F         1 UNK         0.0000 
     11 C11         0.0143   51.7092   28.4707 C.3       1 UNK         0.0000 
     12 N12         0.2638   50.8971   27.2758 N.am      1 UNK         0.0000 
     13 C13         0.1978   51.3370   26.0066 C.2       1 UNK         0.0000 
     14 O14        -0.0612   52.4971   25.7139 O.2       1 UNK         0.0000 
     15 C15         0.5057   50.3220   24.8903 C.3       1 UNK         0.0000 
     16 H16         0.8329   49.4145   25.3907 H         1 UNK         0.0000 
     17 C17         1.6512   50.7799   23.9720 C.3       1 UNK         0.0000 
     18 N18         0.9883   51.3225   22.7912 N.am      1 UNK         0.0000 
     19 C19        -0.4473   51.0278   22.7682 C.3       1 UNK         0.0000 
     20 C20        -0.7083   50.0513   23.9418 C.3       1 UNK         0.0000 
     21 C21        -0.6504   48.6099   23.3792 C.3       1 UNK         0.0000 
     22 C22        -0.8513   47.5424   24.4870 C.3       1 UNK         0.0000 
     23 N23        -2.1958   47.7937   25.2109 N.4       1 UNK         0.0000 
     24 C24        -2.4397   49.2539   25.6453 C.3       1 UNK         0.0000 
     25 C25        -2.1676   50.1942   24.4563 C.3       1 UNK         0.0000 
     26 C26         1.6035   52.0919   21.8600 C.2       1 UNK         0.0000 
     27 O27         0.9987   52.4954   20.8657 O.2       1 UNK         0.0000 
     28 C28         3.0928   52.4585   22.0829 C.3       1 UNK         0.0000 
     29 O29         3.5838   53.3373   21.0665 O.3       1 UNK         0.0000 
     30 C30         4.7293   54.0838   21.2933 C.ar      1 UNK         0.0000 
     31 C31         5.4717   54.0844   22.4889 C.ar      1 UNK         0.0000 
     32 C32         6.6097   54.8874   22.6226 C.ar      1 UNK         0.0000 
     33 C33         7.0275   55.6887   21.5652 C.ar      1 UNK         0.0000 
     34 C34         6.3014   55.6990   20.3758 C.ar      1 UNK         0.0000 
     35 C35         5.1656   54.8962   20.2431 C.ar      1 UNK         0.0000 
     36 Cl36        6.7999   56.7144   19.0746 Cl        1 UNK         0.0000 
     37 H37         1.0993   55.8844   30.2828 H         1 UNK         0.0000 
     38 H38        -0.4335   53.9987   29.8686 H         1 UNK         0.0000 
     39 H39         2.6581   51.9761   27.6848 H         1 UNK         0.0000 
     40 H40         3.4005   55.8282   29.4162 H         1 UNK         0.0000 
     41 H41        -1.0004   52.1086   28.4024 H         1 UNK         0.0000 
     42 H42         0.0111   51.0465   29.3368 H         1 UNK         0.0000 
     43 H43         0.3876   49.9069   27.4362 H         1 UNK         0.0000 
     44 H44         2.2402   49.9032   23.6913 H         1 UNK         0.0000 
     45 H45         2.3046   51.4872   24.4817 H         1 UNK         0.0000 
     46 H46        -0.9523   51.9670   23.0015 H         1 UNK         0.0000 
     47 H47        -0.8580   50.6846   21.8173 H         1 UNK         0.0000 
     48 H48        -1.3744   48.4665   22.5743 H         1 UNK         0.0000 
     49 H49         0.3234   48.4778   22.9061 H         1 UNK         0.0000 
     50 H50        -0.9084   46.5315   24.0854 H         1 UNK         0.0000 
     51 H51        -0.1002   47.5575   25.2779 H         1 UNK         0.0000 
     52 H52        -2.9574   47.5118   24.6116 H         1 UNK         0.0000 
     53 H53        -3.4670   49.3082   26.0078 H         1 UNK         0.0000 
     54 H54        -1.7690   49.4186   26.4821 H         1 UNK         0.0000 
     55 H55        -2.3445   51.2175   24.7903 H         1 UNK         0.0000 
     56 H56        -2.8905   50.0363   23.6551 H         1 UNK         0.0000 
     57 H57         3.6873   51.5449   22.0818 H         1 UNK         0.0000 
     58 H58         3.1522   52.9282   23.0640 H         1 UNK         0.0000 
     59 H59         5.1943   53.4632   23.3269 H         1 UNK         0.0000 
     60 H60         7.1729   54.8726   23.5435 H         1 UNK         0.0000 
     61 H61         7.9179   56.2925   21.6726 H         1 UNK         0.0000 
     62 H62         4.6051   54.9065   19.3200 H         1 UNK         0.0000 
     63 H63        -2.2388   47.2180   26.0425 H         1 UNK         0.0000 
@<TRIPOS>BOND
     1    1    6 ar   
     2    1    2 ar   
     3    1   37 1    
     4    2    3 ar   
     5    2   38 1    
     6    3    4 ar   
     7    3   11 1    
     8    4    5 ar   
     9    4   39 1    
    10    5    6 ar   
    11    5    7 1    
    12    6   40 1    
    13    7    8 1    
    14    7    9 1    
    15    7   10 1    
    16   11   12 1    
    17   11   41 1    
    18   11   42 1    
    19   12   13 am   BACKBONE|DICT|INTERRES
    20   12   43 1    
    21   13   14 2    
    22   13   15 1    
    23   15   16 1    
    24   15   20 1    
    25   15   17 1    
    26   17   18 1    
    27   17   44 1    
    28   17   45 1    
    29   18   19 1    
    30   18   26 am   BACKBONE|DICT|INTERRES
    31   19   20 1    
    32   19   46 1    
    33   19   47 1    
    34   20   25 1    
    35   20   21 1    
    36   21   22 1    
    37   21   48 1    
    38   21   49 1    
    39   22   23 1    
    40   22   50 1    
    41   22   51 1    
    42   23   24 1    
    43   23   52 1    
    44   23   63 1    
    45   24   25 1    
    46   24   53 1    
    47   24   54 1    
    48   25   55 1    
    49   25   56 1    
    50   26   27 2    
    51   26   28 1    
    52   28   29 1    
    53   28   57 1    
    54   28   58 1    
    55   29   30 1    
    56   30   35 ar   
    57   30   31 ar   
    58   31   32 ar   
    59   31   59 1    
    60   32   33 ar   
    61   32   60 1    
    62   33   34 ar   
    63   33   61 1    
    64   34   35 ar   
    65   34   36 1    
    66   35   62 1    
@<TRIPOS>SUBSTRUCTURE
     1 UNK         1 GROUP             0       ****    0 ROOT    
