@<TRIPOS>MOLECULE
ZINC20683208_3169
65   70    1
SMALL
USER_CHARGES


@<TRIPOS>ATOM
      1 C1         -0.7177   51.7676   29.6613 C.ar      1 UNK         0.0000 
      2 C2         -0.5143   51.4706   28.3107 C.ar      1 UNK         0.0000 
      3 C3          0.6576   51.8773   27.6703 C.ar      1 UNK         0.0000 
      4 C4          1.6191   52.5869   28.3847 C.ar      1 UNK         0.0000 
      5 C5          1.4131   52.8873   29.7416 C.ar      1 UNK         0.0000 
      6 C6          0.2359   52.4962   30.3757 C.ar      1 UNK         0.0000 
      7 O7          2.3426   53.5939   30.4745 O.3       1 UNK         0.0000 
      8 C8          3.6656   53.5051   29.9458 C.3       1 UNK         0.0000 
      9 C9          3.6427   53.8267   28.4304 C.3       1 UNK         0.0000 
     10 H10         3.2209   54.8263   28.3062 H         1 UNK         0.0000 
     11 O11         2.7979   52.8937   27.7374 O.3       1 UNK         0.0000 
     12 C12         5.0497   53.8038   27.8104 C.3       1 UNK         0.0000 
     13 N13         4.9995   53.8551   26.3521 N.am      1 UNK         0.0000 
     14 C14         5.7975   54.5901   25.5679 C.2       1 UNK         0.0000 
     15 O15         6.7046   55.2969   26.0184 O.2       1 UNK         0.0000 
     16 C16         5.5445   54.5038   24.0806 C.ar      1 UNK         0.0000 
     17 C17         6.5574   54.8977   23.2054 C.ar      1 UNK         0.0000 
     18 C18         6.3627   54.8958   21.8326 C.ar      1 UNK         0.0000 
     19 C19         5.1272   54.5104   21.2968 C.ar      1 UNK         0.0000 
     20 C20         4.1107   54.0968   22.1608 C.ar      1 UNK         0.0000 
     21 C21         4.3111   54.0966   23.5416 C.ar      1 UNK         0.0000 
     22 N22         4.8563   54.4778   19.9128 N.pl3     1 UNK         0.0000 
     23 C23         5.3103   55.2087   18.8397 C.2       1 UNK         0.0000 
     24 S24         6.3043   56.5673   18.9606 S.2       1 UNK         0.0000 
     25 N25         4.8468   54.7405   17.6256 N.pl3     1 UNK         0.0000 
     26 C26         4.6815   55.6339   16.4478 C.3       1 UNK         0.0000 
     27 C27         3.5366   55.1223   15.5350 C.3       1 UNK         0.0000 
     28 H28         3.5094   55.7120   14.6171 H         1 UNK         0.0000 
     29 C29         3.8404   53.6921   15.0848 C.3       1 UNK         0.0000 
     30 C30         3.8918   52.8284   16.3459 C.3       1 UNK         0.0000 
     31 H31         4.1386   51.8061   16.0490 H         1 UNK         0.0000 
     32 C32         4.9973   53.2934   17.3269 C.3       1 UNK         0.0000 
     33 C33         2.5120   52.7898   17.0184 C.ar      1 UNK         0.0000 
     34 C34         2.0792   51.6682   17.6368 C.ar      1 UNK         0.0000 
     35 C35         0.7560   51.6580   18.2202 C.ar      1 UNK         0.0000 
     36 C36        -0.0124   52.7607   18.1129 C.ar      1 UNK         0.0000 
     37 C37         0.4215   53.9725   17.4270 C.ar      1 UNK         0.0000 
     38 O38        -0.3667   54.9146   17.3108 O.2       1 UNK         0.0000 
     39 N39         1.7110   53.9447   16.9226 N.pl3     1 UNK         0.0000 
     40 C40         2.1449   55.1868   16.2222 C.3       1 UNK         0.0000 
     41 H41        -1.6064   51.4092   30.1607 H         1 UNK         0.0000 
     42 H42        -1.2529   50.8896   27.7744 H         1 UNK         0.0000 
     43 H43         0.8268   51.6183   26.6341 H         1 UNK         0.0000 
     44 H44         0.0723   52.7213   31.4206 H         1 UNK         0.0000 
     45 H45         4.3047   54.2072   30.4809 H         1 UNK         0.0000 
     46 H46         4.0539   52.4964   30.1071 H         1 UNK         0.0000 
     47 H47         5.6510   54.6082   28.2423 H         1 UNK         0.0000 
     48 H48         5.5631   52.8829   28.0912 H         1 UNK         0.0000 
     49 H49         4.3777   53.1913   25.9152 H         1 UNK         0.0000 
     50 H50         7.5045   55.2297   23.5912 H         1 UNK         0.0000 
     51 H51         7.1943   55.1706   21.2066 H         1 UNK         0.0000 
     52 H52         3.1507   53.7938   21.7667 H         1 UNK         0.0000 
     53 H53         3.4919   53.8002   24.1813 H         1 UNK         0.0000 
     54 H54         4.0713   53.8784   19.6968 H         1 UNK         0.0000 
     55 H55         4.4425   56.6522   16.7611 H         1 UNK         0.0000 
     56 H56         5.6248   55.6847   15.8986 H         1 UNK         0.0000 
     57 H57         3.0806   53.3279   14.3912 H         1 UNK         0.0000 
     58 H58         4.7921   53.6472   14.5517 H         1 UNK         0.0000 
     59 H59         5.9793   53.1339   16.8801 H         1 UNK         0.0000 
     60 H60         4.9693   52.6610   18.2155 H         1 UNK         0.0000 
     61 H61         2.7050   50.7859   17.6821 H         1 UNK         0.0000 
     62 H62         0.3957   50.7797   18.7389 H         1 UNK         0.0000 
     63 H63        -1.0011   52.7634   18.5423 H         1 UNK         0.0000 
     64 H64         2.0958   56.0303   16.9138 H         1 UNK         0.0000 
     65 H65         1.3985   55.4462   15.4695 H         1 UNK         0.0000 
@<TRIPOS>BOND
     1    1    6 ar   
     2    1    2 ar   
     3    1   41 1    
     4    2    3 ar   
     5    2   42 1    
     6    3    4 ar   
     7    3   43 1    
     8    4   11 1    
     9    4    5 ar   
    10    5    6 ar   
    11    5    7 1    
    12    6   44 1    
    13    7    8 1    
    14    8    9 1    
    15    8   45 1    
    16    8   46 1    
    17    9   10 1    
    18    9   11 1    
    19    9   12 1    
    20   12   13 1    
    21   12   47 1    
    22   12   48 1    
    23   13   14 am   BACKBONE|DICT|INTERRES
    24   13   49 1    
    25   14   15 2    
    26   14   16 1    
    27   16   21 ar   
    28   16   17 ar   
    29   17   18 ar   
    30   17   50 1    
    31   18   19 ar   
    32   18   51 1    
    33   19   20 ar   
    34   19   22 1    
    35   20   21 ar   
    36   20   52 1    
    37   21   53 1    
    38   22   23 1    
    39   22   54 1    
    40   23   24 2    
    41   23   25 1    
    42   25   32 1    
    43   25   26 1    
    44   26   27 1    
    45   26   55 1    
    46   26   56 1    
    47   27   28 1    
    48   27   40 1    
    49   27   29 1    
    50   29   30 1    
    51   29   57 1    
    52   29   58 1    
    53   30   31 1    
    54   30   32 1    
    55   30   33 1    
    56   32   59 1    
    57   32   60 1    
    58   33   39 ar   
    59   33   34 ar   
    60   34   35 ar   
    61   34   61 1    
    62   35   36 ar   
    63   35   62 1    
    64   36   37 ar   
    65   36   63 1    
    66   37   38 2    
    67   37   39 ar   
    68   39   40 1    
    69   40   64 1    
    70   40   65 1    
@<TRIPOS>SUBSTRUCTURE
     1 UNK         1 GROUP             0       ****    0 ROOT    
