@<TRIPOS>MOLECULE
ZINC39560819_2149
61   65    1
SMALL
USER_CHARGES


@<TRIPOS>ATOM
      1 C1         -3.4028   50.8815   18.4914 C.3       1 UNK         0.0000 
      2 O2         -2.1700   50.4454   19.0472 O.3       1 UNK         0.0000 
      3 C3         -1.6227   51.0963   20.0998 C.2       1 UNK         0.0000 
      4 O4         -2.0997   52.0975   20.6397 O.2       1 UNK         0.0000 
      5 C5         -0.2897   50.4817   20.6211 C.3       1 UNK         0.0000 
      6 H6          0.3470   51.3553   20.7497 H         1 UNK         0.0000 
      7 C7          0.4605   49.5698   19.6078 C.3       1 UNK         0.0000 
      8 C8         -0.0714   48.1435   19.6101 C.2       1 UNK         0.0000 
      9 C9          0.0787   47.1149   18.7733 C.2       1 UNK         0.0000 
     10 C10         0.8906   46.9741   17.4716 C.3       1 UNK         0.0000 
     11 C11         0.6779   45.5742   16.8760 C.2       1 UNK         0.0000 
     12 C12        -0.0953   44.6278   17.4458 C.2       1 UNK         0.0000 
     13 C13        -0.8069   44.8671   18.6876 C.2       1 UNK         0.0000 
     14 C14        -0.7262   46.0536   19.3241 C.2       1 UNK         0.0000 
     15 N15        -1.3223   46.4467   20.4649 N.2       1 UNK         0.0000 
     16 C16        -0.9463   47.6526   20.6424 C.2       1 UNK         0.0000 
     17 C17        -1.3480   48.5757   21.8250 C.3       1 UNK         0.0000 
     18 H18        -2.3503   48.9448   21.6084 H         1 UNK         0.0000 
     19 N19        -0.4402   49.7558   21.9233 N.3       1 UNK         0.0000 
     20 C20        -0.6002   50.6141   23.1229 C.3       1 UNK         0.0000 
     21 H21        -1.5508   51.1441   23.0261 H         1 UNK         0.0000 
     22 C22        -0.6606   49.7724   24.4246 C.3       1 UNK         0.0000 
     23 C23        -1.7685   48.7115   24.3684 C.3       1 UNK         0.0000 
     24 H24        -2.7316   49.2157   24.2559 H         1 UNK         0.0000 
     25 C25        -1.4453   47.7990   23.1636 C.3       1 UNK         0.0000 
     26 N26        -1.7431   47.8924   25.6815 N.4       1 UNK         0.0000 
     27 C27        -2.9478   46.9479   25.8396 C.3       1 UNK         0.0000 
     28 C28        -2.7543   46.0518   27.0657 C.3       1 UNK         0.0000 
     29 O29        -3.5405   44.8967   26.8817 O.3       1 UNK         0.0000 
     30 C30         0.4735   51.7008   23.2703 C.ar      1 UNK         0.0000 
     31 C31         1.7704   51.4996   22.7866 C.ar      1 UNK         0.0000 
     32 C32         2.7039   52.5265   22.8417 C.ar      1 UNK         0.0000 
     33 C33         2.3800   53.7185   23.4752 C.ar      1 UNK         0.0000 
     34 C34         1.1087   53.9096   24.0047 C.ar      1 UNK         0.0000 
     35 C35         0.1490   52.9083   23.8944 C.ar      1 UNK         0.0000 
     36 F36         3.3091   54.6927   23.5853 F         1 UNK         0.0000 
     37 H37        -4.2051   50.8312   19.2313 H         1 UNK         0.0000 
     38 H38        -3.3324   51.9086   18.1262 H         1 UNK         0.0000 
     39 H39        -3.6798   50.2445   17.6484 H         1 UNK         0.0000 
     40 H40         0.4459   49.9962   18.6037 H         1 UNK         0.0000 
     41 H41         1.5138   49.5499   19.8856 H         1 UNK         0.0000 
     42 H42         0.5750   47.7311   16.7534 H         1 UNK         0.0000 
     43 H43         1.9516   47.1290   17.6759 H         1 UNK         0.0000 
     44 H44         1.1772   45.3330   15.9465 H         1 UNK         0.0000 
     45 H45        -0.1979   43.6697   16.9523 H         1 UNK         0.0000 
     46 H46        -1.4186   44.0833   19.0996 H         1 UNK         0.0000 
     47 H47         0.3087   49.2876   24.5660 H         1 UNK         0.0000 
     48 H48        -0.7757   50.3987   25.3097 H         1 UNK         0.0000 
     49 H49        -2.1599   46.9815   23.0745 H         1 UNK         0.0000 
     50 H50        -0.4965   47.2995   23.3534 H         1 UNK         0.0000 
     51 H51        -0.8795   47.3661   25.7283 H         1 UNK         0.0000 
     52 H52        -3.8172   47.6010   25.9384 H         1 UNK         0.0000 
     53 H53        -3.0202   46.3644   24.9229 H         1 UNK         0.0000 
     54 H54        -1.7106   45.7624   27.2045 H         1 UNK         0.0000 
     55 H55        -3.0872   46.5481   27.9784 H         1 UNK         0.0000 
     56 H56        -3.2955   44.2636   27.6034 H         1 UNK         0.0000 
     57 H57         2.0423   50.5632   22.3171 H         1 UNK         0.0000 
     58 H58         3.6925   52.3894   22.4293 H         1 UNK         0.0000 
     59 H59         0.8803   54.8517   24.4806 H         1 UNK         0.0000 
     60 H60        -0.8432   53.0806   24.2877 H         1 UNK         0.0000 
     61 H61        -1.6917   48.4799   26.5222 H         1 UNK         0.0000 
@<TRIPOS>BOND
     1    1    2 1    
     2    1   37 1    
     3    1   38 1    
     4    1   39 1    
     5    2    3 1    
     6    3    4 2    
     7    3    5 1    
     8    5    6 1    
     9    5   19 1    
    10    5    7 1    
    11    7    8 1    
    12    7   40 1    
    13    7   41 1    
    14    8   16 1    
    15    8    9 2    
    16    9   14 1    
    17    9   10 1    
    18   10   11 1    
    19   10   42 1    
    20   10   43 1    
    21   11   12 2    
    22   11   44 1    
    23   12   13 1    
    24   12   45 1    
    25   13   14 2    
    26   13   46 1    
    27   14   15 1    
    28   15   16 2    
    29   16   17 1    
    30   17   18 1    
    31   17   25 1    
    32   17   19 1    
    33   19   20 1    
    34   20   21 1    
    35   20   22 1    
    36   20   30 1    
    37   22   23 1    
    38   22   47 1    
    39   22   48 1    
    40   23   24 1    
    41   23   25 1    
    42   23   26 1    
    43   25   49 1    
    44   25   50 1    
    45   26   27 1    
    46   26   51 1    
    47   26   61 1    
    48   27   28 1    
    49   27   52 1    
    50   27   53 1    
    51   28   29 1    
    52   28   54 1    
    53   28   55 1    
    54   29   56 1    
    55   30   35 ar   
    56   30   31 ar   
    57   31   32 ar   
    58   31   57 1    
    59   32   33 ar   
    60   32   58 1    
    61   33   34 ar   
    62   33   36 1    
    63   34   35 ar   
    64   34   59 1    
    65   35   60 1    
@<TRIPOS>SUBSTRUCTURE
     1 UNK         1 GROUP             0       ****    0 ROOT    
