@<TRIPOS>MOLECULE
ZINC63537910_5016
57   61    1
SMALL
USER_CHARGES


@<TRIPOS>ATOM
      1 C1          4.0037   54.2106   26.6797 C.ar      1 UNK         0.0000 
      2 C2          4.0174   53.9754   28.0527 C.ar      1 UNK         0.0000 
      3 C3          2.9970   53.2316   28.6384 C.ar      1 UNK         0.0000 
      4 C4          1.9564   52.7315   27.8573 C.ar      1 UNK         0.0000 
      5 C5          1.9426   52.9613   26.4820 C.ar      1 UNK         0.0000 
      6 C6          2.9762   53.6971   25.8702 C.ar      1 UNK         0.0000 
      7 C7          3.0021   53.9352   24.3407 C.3       1 UNK         0.0000 
      8 H8          2.5222   54.9093   24.2370 H         1 UNK         0.0000 
      9 C9          2.1822   52.9066   23.4982 C.3       1 UNK         0.0000 
     10 C10         2.3447   53.0460   21.9526 C.3       1 UNK         0.0000 
     11 H11         1.8946   53.9982   21.6817 H         1 UNK         0.0000 
     12 N12         3.7663   53.2071   21.6148 N.3       1 UNK         0.0000 
     13 C13         4.3365   54.3210   22.3542 C.3       1 UNK         0.0000 
     14 H14         3.7722   55.2250   22.1185 H         1 UNK         0.0000 
     15 N15         4.3515   54.1157   23.7957 N.3       1 UNK         0.0000 
     16 C16         5.7095   54.4281   21.7311 C.3       1 UNK         0.0000 
     17 C17         5.4432   54.0972   20.2443 C.3       1 UNK         0.0000 
     18 H18         6.1779   53.4043   19.8335 H         1 UNK         0.0000 
     19 N19         4.1149   53.4735   20.2165 N.3       1 UNK         0.0000 
     20 C20         5.5053   55.3400   19.3132 C.2       1 UNK         0.0000 
     21 O21         5.9045   56.4300   19.7331 O.2       1 UNK         0.0000 
     22 N22         5.1438   55.1713   18.0236 N.am      1 UNK         0.0000 
     23 C23         5.1297   56.2474   17.0261 C.3       1 UNK         0.0000 
     24 C24         3.8585   57.1096   17.1605 C.3       1 UNK         0.0000 
     25 H25         3.6807   57.3097   18.2137 H         1 UNK         0.0000 
     26 C26         2.6411   56.5068   16.4932 C.2       1 UNK         0.0000 
     27 C27         2.1334   57.4055   15.6368 C.2       1 UNK         0.0000 
     28 C28         0.9554   57.3473   14.7618 C.2       1 UNK         0.0000 
     29 C29         0.6118   58.4014   13.9895 C.2       1 UNK         0.0000 
     30 C30         1.4562   59.5863   14.0615 C.2       1 UNK         0.0000 
     31 C31         2.5564   59.6532   14.8575 C.2       1 UNK         0.0000 
     32 C32         2.9168   58.5613   15.6565 C.2       1 UNK         0.0000 
     33 N33         3.9304   58.4262   16.4828 N.pl3     1 UNK         0.0000 
     34 Cl34       -0.8078   58.3508   12.9391 Cl        1 UNK         0.0000 
     35 C35         1.6037   51.9258   21.1751 C.3       1 UNK         0.0000 
     36 F36         0.3138   51.8899   21.5176 F         1 UNK         0.0000 
     37 F37         1.6449   52.0928   19.8540 F         1 UNK         0.0000 
     38 F38         2.1179   50.7240   21.4469 F         1 UNK         0.0000 
     39 Cl39        3.0265   52.9220   30.3381 Cl        1 UNK         0.0000 
     40 H40         4.8072   54.7889   26.2488 H         1 UNK         0.0000 
     41 H41         4.8243   54.3639   28.6581 H         1 UNK         0.0000 
     42 H42         1.1651   52.1549   28.3162 H         1 UNK         0.0000 
     43 H43         1.1255   52.5496   25.9079 H         1 UNK         0.0000 
     44 H44         1.1256   53.0203   23.7460 H         1 UNK         0.0000 
     45 H45         2.4896   51.9027   23.7980 H         1 UNK         0.0000 
     46 H46         4.9048   53.2952   23.9988 H         1 UNK         0.0000 
     47 H47         6.3754   53.6963   22.1744 H         1 UNK         0.0000 
     48 H48         6.1638   55.3999   21.9295 H         1 UNK         0.0000 
     49 H49         4.2023   52.5551   19.7923 H         1 UNK         0.0000 
     50 H50         4.8498   54.2520   17.7253 H         1 UNK         0.0000 
     51 H51         5.2048   55.8182   16.0257 H         1 UNK         0.0000 
     52 H52         6.0255   56.8656   17.1411 H         1 UNK         0.0000 
     53 H53         2.2678   55.5195   16.7248 H         1 UNK         0.0000 
     54 H54         0.3354   56.4635   14.7156 H         1 UNK         0.0000 
     55 H55         1.1955   60.4498   13.4679 H         1 UNK         0.0000 
     56 H56         3.1326   60.5680   14.8803 H         1 UNK         0.0000 
     57 H57         4.6229   59.1511   16.6806 H         1 UNK         0.0000 
@<TRIPOS>BOND
     1    1    6 ar   
     2    1    2 ar   
     3    1   40 1    
     4    2    3 ar   
     5    2   41 1    
     6    3    4 ar   
     7    3   39 1    
     8    4    5 ar   
     9    4   42 1    
    10    5    6 ar   
    11    5   43 1    
    12    6    7 1    
    13    7    8 1    
    14    7   15 1    
    15    7    9 1    
    16    9   10 1    
    17    9   44 1    
    18    9   45 1    
    19   10   11 1    
    20   10   12 1    
    21   10   35 1    
    22   12   19 1    
    23   12   13 1    
    24   13   14 1    
    25   13   15 1    
    26   13   16 1    
    27   15   46 1    
    28   16   17 1    
    29   16   47 1    
    30   16   48 1    
    31   17   18 1    
    32   17   19 1    
    33   17   20 1    
    34   19   49 1    
    35   20   21 2    
    36   20   22 am   BACKBONE|DICT|INTERRES
    37   22   23 1    
    38   22   50 1    
    39   23   24 1    
    40   23   51 1    
    41   23   52 1    
    42   24   25 1    
    43   24   33 1    
    44   24   26 1    
    45   26   27 2    
    46   26   53 1    
    47   27   32 1    
    48   27   28 1    
    49   28   29 2    
    50   28   54 1    
    51   29   30 1    
    52   29   34 1    
    53   30   31 2    
    54   30   55 1    
    55   31   32 1    
    56   31   56 1    
    57   32   33 2    
    58   33   57 1    
    59   35   36 1    
    60   35   37 1    
    61   35   38 1    
@<TRIPOS>SUBSTRUCTURE
     1 UNK         1 GROUP             0       ****    0 ROOT    
