@<TRIPOS>MOLECULE
ZINC13398041_2014
60   64    1
SMALL
USER_CHARGES


@<TRIPOS>ATOM
      1 C1         -2.2188   51.2967   28.4158 C.ar      1 UNK         0.0000 
      2 C2         -3.6021   51.1481   28.4133 C.ar      1 UNK         0.0000 
      3 C3         -4.3343   51.5095   27.2816 C.ar      1 UNK         0.0000 
      4 C4         -3.6811   51.9442   26.1271 C.ar      1 UNK         0.0000 
      5 C5         -2.2971   52.0803   26.1256 C.ar      1 UNK         0.0000 
      6 C6         -1.5676   51.8008   27.2821 C.ar      1 UNK         0.0000 
      7 N7         -0.1979   52.0957   27.2356 N.am      1 UNK         0.0000 
      8 C8          0.5907   52.5410   28.2403 C.2       1 UNK         0.0000 
      9 O9          0.2505   52.5692   29.4255 O.2       1 UNK         0.0000 
     10 C10         1.9518   53.0718   27.8265 C.ar      1 UNK         0.0000 
     11 C11         2.9041   53.3742   28.8113 C.ar      1 UNK         0.0000 
     12 C12         4.1665   53.8892   28.5134 C.ar      1 UNK         0.0000 
     13 C13         4.4639   54.0910   27.1645 C.ar      1 UNK         0.0000 
     14 C14         3.5311   53.8022   26.1281 C.ar      1 UNK         0.0000 
     15 C15         2.2716   53.2970   26.4752 C.ar      1 UNK         0.0000 
     16 C16         4.1693   54.0969   24.8764 C.ar      1 UNK         0.0000 
     17 C17         5.4321   54.5750   25.1870 C.ar      1 UNK         0.0000 
     18 N18         5.6075   54.5477   26.5482 N.pl3     1 UNK         0.0000 
     19 H19         6.4728   54.8143   26.9929 H         1 UNK         0.0000 
     20 C20         6.5214   54.8953   24.1874 C.3       1 UNK         0.0000 
     21 C21         6.2143   54.1303   22.8815 C.3       1 UNK         0.0000 
     22 C22         4.7524   54.2739   22.4024 C.3       1 UNK         0.0000 
     23 C23         3.6660   53.9038   23.4480 C.3       1 UNK         0.0000 
     24 S24        -6.1225   51.4590   27.3217 S.o2      1 UNK         0.0000 
     25 O25        -6.5231   51.7351   28.7070 O.2       1 UNK         0.0000 
     26 O26        -6.5803   52.3265   26.2292 O.2       1 UNK         0.0000 
     27 N27        -6.5802   49.7935   26.9117 N.pl3     1 UNK         0.0000 
     28 C28        -6.1743   49.2636   25.5835 C.3       1 UNK         0.0000 
     29 C29        -4.8706   48.4339   25.6757 C.3       1 UNK         0.0000 
     30 C30        -4.9880   47.3428   26.7613 C.3       1 UNK         0.0000 
     31 C31        -5.3806   47.9674   28.1311 C.3       1 UNK         0.0000 
     32 H32        -4.5770   48.6075   28.4925 H         1 UNK         0.0000 
     33 C33        -6.6907   48.7803   27.9934 C.3       1 UNK         0.0000 
     34 C34        -5.5929   46.8968   29.2232 C.2       1 UNK         0.0000 
     35 O35        -5.6939   47.2954   30.4041 O.co2     1 UNK         0.0000 
     36 O36        -5.6952   45.6967   28.8817 O.co2     1 UNK         0.0000 
     37 H37        -1.6721   51.0235   29.3069 H         1 UNK         0.0000 
     38 H38        -4.0976   50.7831   29.3022 H         1 UNK         0.0000 
     39 H39        -4.2434   52.2068   25.2429 H         1 UNK         0.0000 
     40 H40        -1.8068   52.4533   25.2382 H         1 UNK         0.0000 
     41 H41         0.1896   52.1514   26.3088 H         1 UNK         0.0000 
     42 H42         2.6622   53.2062   29.8517 H         1 UNK         0.0000 
     43 H43         4.8820   54.1090   29.2922 H         1 UNK         0.0000 
     44 H44         1.5719   53.0891   25.6808 H         1 UNK         0.0000 
     45 H45         7.5041   54.6193   24.5659 H         1 UNK         0.0000 
     46 H46         6.5505   55.9684   23.9966 H         1 UNK         0.0000 
     47 H47         6.4387   53.0715   23.0196 H         1 UNK         0.0000 
     48 H48         6.8891   54.4862   22.1010 H         1 UNK         0.0000 
     49 H49         4.6033   53.6725   21.5043 H         1 UNK         0.0000 
     50 H50         4.5898   55.2966   22.0719 H         1 UNK         0.0000 
     51 H51         2.7659   54.4944   23.2709 H         1 UNK         0.0000 
     52 H52         3.3657   52.8681   23.3043 H         1 UNK         0.0000 
     53 H53        -6.9872   48.6382   25.2125 H         1 UNK         0.0000 
     54 H54        -6.0667   50.0936   24.8847 H         1 UNK         0.0000 
     55 H55        -4.6555   47.9764   24.7097 H         1 UNK         0.0000 
     56 H56        -4.0208   49.0813   25.8933 H         1 UNK         0.0000 
     57 H57        -5.7570   46.6429   26.4264 H         1 UNK         0.0000 
     58 H58        -4.0426   46.8023   26.8411 H         1 UNK         0.0000 
     59 H59        -6.9650   49.2767   28.9255 H         1 UNK         0.0000 
     60 H60        -7.5137   48.1151   27.7270 H         1 UNK         0.0000 
@<TRIPOS>BOND
     1    1    6 ar   
     2    1    2 ar   
     3    1   37 1    
     4    2    3 ar   
     5    2   38 1    
     6    3    4 ar   
     7    3   24 1    
     8    4    5 ar   
     9    4   39 1    
    10    5    6 ar   
    11    5   40 1    
    12    6    7 1    
    13    7    8 am   BACKBONE|DICT|INTERRES
    14    7   41 1    
    15    8    9 2    
    16    8   10 1    
    17   10   15 ar   
    18   10   11 ar   
    19   11   12 ar   
    20   11   42 1    
    21   12   13 ar   
    22   12   43 1    
    23   13   18 ar   
    24   13   14 ar   
    25   14   15 ar   
    26   14   16 ar   
    27   15   44 1    
    28   16   23 1    
    29   16   17 ar   
    30   17   18 ar   
    31   17   20 1    
    32   18   19 1    
    33   20   21 1    
    34   20   45 1    
    35   20   46 1    
    36   21   22 1    
    37   21   47 1    
    38   21   48 1    
    39   22   23 1    
    40   22   49 1    
    41   22   50 1    
    42   23   51 1    
    43   23   52 1    
    44   24   25 2    
    45   24   26 2    
    46   24   27 1    
    47   27   33 1    
    48   27   28 1    
    49   28   29 1    
    50   28   53 1    
    51   28   54 1    
    52   29   30 1    
    53   29   55 1    
    54   29   56 1    
    55   30   31 1    
    56   30   57 1    
    57   30   58 1    
    58   31   32 1    
    59   31   33 1    
    60   31   34 1    
    61   33   59 1    
    62   33   60 1    
    63   34   35 2    
    64   34   36 1    
@<TRIPOS>SUBSTRUCTURE
     1 UNK         1 GROUP             0       ****    0 ROOT    
