ZINC38682321_946
                    3D
 Schrodinger Suite 2024-2.
 60 63  0  0  1  0            999 V2000
    0.7536   53.2950   24.6934 C   0  0  0  0  0  0
    1.5044   53.5065   25.8860 O   0  0  0  0  0  0
    2.8615   53.7670   25.8017 C   0  0  0  0  0  0
    3.5444   53.9115   24.5857 C   0  0  0  0  0  0
    4.9332   54.0963   24.5520 C   0  0  0  0  0  0
    5.6306   54.1565   25.7634 C   0  0  0  0  0  0
    4.9713   54.0451   26.9937 C   0  0  0  0  0  0
    3.5798   53.8730   27.0026 C   0  0  0  0  0  0
    2.9211   53.7531   28.2031 O   0  0  0  0  0  0
    2.4594   54.9877   28.7344 C   0  0  0  0  0  0
    5.6247   54.0745   28.2128 O   0  0  0  0  0  0
    7.0493   54.0480   28.2424 C   0  0  0  0  0  0
    5.7030   54.1545   23.2695 C   0  0  0  0  0  0
    6.9360   54.0960   23.2370 O   0  0  0  0  0  0
    4.9049   54.3145   22.1603 O   0  0  0  0  0  0
    5.4788   54.4918   20.9183 C   0  0  0  0  0  0
    5.2138   53.5745   19.8995 C   0  0  0  0  0  0
    5.8406   53.7000   18.6582 C   0  0  0  0  0  0
    6.7234   54.7597   18.3908 C   0  0  0  0  0  0
    6.9480   55.6942   19.4203 C   0  0  0  0  0  0
    6.3290   55.5714   20.6593 C   0  0  0  0  0  0
    7.8120   56.7623   19.2855 O   0  0  0  0  0  0
    8.6291   56.8046   18.2084 C   0  0  0  0  0  0
    8.5438   55.9873   17.1419 C   0  0  0  0  0  0
    7.4398   54.9282   17.0377 C   0  0  1  0  0  0
    6.7052   55.3476   16.3479 H   0  0  0  0  0  0
    7.9220   53.6110   16.4197 C   0  0  0  0  0  0
    8.9732   52.8990   17.0115 C   0  0  0  0  0  0
    9.4607   51.7397   16.4132 C   0  0  0  0  0  0
    8.8997   51.2946   15.2142 C   0  0  0  0  0  0
    7.8386   51.9864   14.6326 C   0  0  0  0  0  0
    7.3501   53.1425   15.2337 C   0  0  0  0  0  0
    9.5044   49.8485   14.3864 S   0  0  0  0  0  0
   11.0353   49.3068   15.1907 C   0  0  0  0  0  0
    9.4681   56.1285   16.0595 C   0  0  0  0  0  0
   10.2243   56.2727   15.1948 N   0  0  0  0  0  0
    9.5583   57.7859   18.4217 N   0  0  0  0  0  0
   -0.2734   53.0370   24.9520 H   0  0  0  0  0  0
    0.7236   54.1931   24.0743 H   0  0  0  0  0  0
    1.1607   52.4667   24.1113 H   0  0  0  0  0  0
    3.0002   53.8379   23.6557 H   0  0  0  0  0  0
    6.7034   54.2716   25.7373 H   0  0  0  0  0  0
    1.9811   54.8099   29.6975 H   0  0  0  0  0  0
    3.2785   55.6906   28.8981 H   0  0  0  0  0  0
    1.7175   55.4530   28.0829 H   0  0  0  0  0  0
    7.3888   54.0962   29.2772 H   0  0  0  0  0  0
    7.4363   53.1227   27.8119 H   0  0  0  0  0  0
    7.4849   54.8960   27.7082 H   0  0  0  0  0  0
    4.5481   52.7407   20.0772 H   0  0  0  0  0  0
    5.6385   52.9554   17.8994 H   0  0  0  0  0  0
    6.5396   56.2904   21.4368 H   0  0  0  0  0  0
    9.4231   53.2502   17.9299 H   0  0  0  0  0  0
   10.2726   51.2101   16.8902 H   0  0  0  0  0  0
    7.4013   51.6341   13.7098 H   0  0  0  0  0  0
    6.5386   53.6784   14.7642 H   0  0  0  0  0  0
   11.4839   48.4970   14.6130 H   0  0  0  0  0  0
   10.8392   48.9454   16.2015 H   0  0  0  0  0  0
   11.7534   50.1263   15.2369 H   0  0  0  0  0  0
   10.2284   58.0024   17.6984 H   0  0  0  0  0  0
    9.7843   58.0644   19.3653 H   0  0  0  0  0  0
  1  2  1  0  0  0
  1 38  1  0  0  0
  1 39  1  0  0  0
  1 40  1  0  0  0
  2  3  1  0  0  0
  3  8  2  0  0  0
  3  4  1  0  0  0
  4  5  2  0  0  0
  4 41  1  0  0  0
  5  6  1  0  0  0
  5 13  1  0  0  0
  6  7  2  0  0  0
  6 42  1  0  0  0
  7  8  1  0  0  0
  7 11  1  0  0  0
  8  9  1  0  0  0
  9 10  1  0  0  0
 10 43  1  0  0  0
 10 44  1  0  0  0
 10 45  1  0  0  0
 11 12  1  0  0  0
 12 46  1  0  0  0
 12 47  1  0  0  0
 12 48  1  0  0  0
 13 14  2  0  0  0
 13 15  1  0  0  0
 15 16  1  0  0  0
 16 21  2  0  0  0
 16 17  1  0  0  0
 17 18  2  0  0  0
 17 49  1  0  0  0
 18 19  1  0  0  0
 18 50  1  0  0  0
 19 25  1  0  0  0
 19 20  2  0  0  0
 20 21  1  0  0  0
 20 22  1  0  0  0
 21 51  1  0  0  0
 22 23  1  0  0  0
 23 24  2  0  0  0
 23 37  1  0  0  0
 24 25  1  0  0  0
 24 35  1  0  0  0
 25 26  1  0  0  0
 25 27  1  0  0  0
 27 32  2  0  0  0
 27 28  1  0  0  0
 28 29  2  0  0  0
 28 52  1  0  0  0
 29 30  1  0  0  0
 29 53  1  0  0  0
 30 31  2  0  0  0
 30 33  1  0  0  0
 31 32  1  0  0  0
 31 54  1  0  0  0
 32 55  1  0  0  0
 33 34  1  0  0  0
 34 56  1  0  0  0
 34 57  1  0  0  0
 34 58  1  0  0  0
 35 36  3  0  0  0
 37 59  1  0  0  0
 37 60  1  0  0  0
M  END
> <i_i_glide_confnum>
8

> <i_i_glide_lignum>
947

> <i_i_glide_posenum>
288

> <i_i_glide_rotatable_bonds>
9

> <i_m_Source_File_Index>
3738

> <b_m_subgroup_collapsed>
0

> <r_i_docking_score>
-4.58552

> <r_i_glide_ecoul>
-1.04692

> <r_i_glide_eff_state_penalty>
0

> <r_i_glide_einternal>
3.23697

> <r_i_glide_emodel>
-56.0699

> <r_i_glide_energy>
-48.1529

> <r_i_glide_erotb>
0.321278

> <r_i_glide_esite>
0

> <r_i_glide_evdw>
-47.106

> <r_i_glide_gscore>
-4.58552

> <r_i_glide_hbond>
-0.196242

> <r_i_glide_ligand_efficiency>
-0.127376

> <r_i_glide_ligand_efficiency_ln>
-1.00044

> <r_i_glide_ligand_efficiency_sa>
-0.420585

> <r_i_glide_lipo>
-2.92244

> <r_i_glide_metal>
0

> <r_i_glide_rewards>
0.724223

> <s_i_glide_gridfile>
wee1_glide-grid

> <s_m_Source_File>
wee1_decoys_glide_SP.sdf

> <s_m_Source_Path>
/Users/zhangxujun/Desktop

> <s_m_entry_id>
4013

> <s_m_entry_name>
wee1_decoys_glide_SP.3738

> <s_m_subgroup_title>
wee1_decoys_glide_SP

> <s_m_subgroupid>
wee1_decoys_glide_SP


$$$$
