@<TRIPOS>MOLECULE
ZINC12063477_5738
69   72    1
SMALL
USER_CHARGES


@<TRIPOS>ATOM
      1 C1          1.8225   50.3012   23.2347 C.3       1 UNK         0.0000 
      2 C2          1.4378   50.2375   21.7488 C.3       1 UNK         0.0000 
      3 O3          2.5177   50.6051   20.8970 O.3       1 UNK         0.0000 
      4 C4          2.7760   52.0009   20.8022 C.3       1 UNK         0.0000 
      5 C5          4.0162   52.1920   19.9052 C.3       1 UNK         0.0000 
      6 N6          4.4064   53.6012   19.7119 N.pl3     1 UNK         0.0000 
      7 C7          4.2414   54.3034   18.4916 C.ar      1 UNK         0.0000 
      8 C8          3.4486   54.0008   17.3550 C.ar      1 UNK         0.0000 
      9 C9          3.4706   54.8711   16.2591 C.ar      1 UNK         0.0000 
     10 C10         4.2463   56.0247   16.2679 C.ar      1 UNK         0.0000 
     11 C11         5.0219   56.3394   17.3810 C.ar      1 UNK         0.0000 
     12 C12         5.0090   55.4730   18.4796 C.ar      1 UNK         0.0000 
     13 S13         5.9045   55.6750   19.9675 S.3       1 UNK         0.0000 
     14 C14         5.1107   54.2426   20.7304 C.2       1 UNK         0.0000 
     15 N15         5.2196   53.8361   21.9436 N.am      1 UNK         0.0000 
     16 C16         5.9807   54.4940   22.8961 C.2       1 UNK         0.0000 
     17 O17         7.1044   54.9427   22.6760 O.2       1 UNK         0.0000 
     18 C18         5.4030   54.4895   24.2927 C.ar      1 UNK         0.0000 
     19 C19         6.2548   54.6191   25.3991 C.ar      1 UNK         0.0000 
     20 C20         5.7388   54.6054   26.6927 C.ar      1 UNK         0.0000 
     21 C21         4.3611   54.4860   26.8829 C.ar      1 UNK         0.0000 
     22 C22         3.5047   54.3679   25.7909 C.ar      1 UNK         0.0000 
     23 C23         4.0218   54.3640   24.5029 C.ar      1 UNK         0.0000 
     24 S24         3.6658   54.4735   28.5302 S.o2      1 UNK         0.0000 
     25 O25         4.7181   54.8966   29.4594 O.2       1 UNK         0.0000 
     26 O26         2.3957   55.2072   28.4630 O.2       1 UNK         0.0000 
     27 N27         3.3402   52.7672   28.8608 N.pl3     1 UNK         0.0000 
     28 C28         4.4775   51.9578   29.3038 C.3       1 UNK         0.0000 
     29 C29         2.2884   52.0523   28.0885 C.3       1 UNK         0.0000 
     30 C30         0.8697   52.5624   28.3784 C.3       1 UNK         0.0000 
     31 H31         0.6771   53.4977   27.8534 H         1 UNK         0.0000 
     32 C32        -0.2394   51.5208   28.2095 C.3       1 UNK         0.0000 
     33 C33        -1.1885   51.7802   29.3617 C.3       1 UNK         0.0000 
     34 C34        -0.4956   52.8359   30.2169 C.3       1 UNK         0.0000 
     35 O35         0.8435   52.8222   29.7790 O.3       1 UNK         0.0000 
     36 C36         5.8732   57.6003   17.3575 C.3       1 UNK         0.0000 
     37 C37         2.5139   52.8027   17.2284 C.3       1 UNK         0.0000 
     38 H38         1.0170   49.9160   23.8606 H         1 UNK         0.0000 
     39 H39         2.7084   49.6974   23.4328 H         1 UNK         0.0000 
     40 H40         2.0310   51.3200   23.5621 H         1 UNK         0.0000 
     41 H41         0.5506   50.8415   21.5447 H         1 UNK         0.0000 
     42 H42         1.1704   49.2080   21.5030 H         1 UNK         0.0000 
     43 H43         2.9667   52.4041   21.7962 H         1 UNK         0.0000 
     44 H44         1.9054   52.5146   20.3912 H         1 UNK         0.0000 
     45 H45         3.8797   51.6970   18.9518 H         1 UNK         0.0000 
     46 H46         4.8604   51.6727   20.3619 H         1 UNK         0.0000 
     47 H47         2.8726   54.6600   15.3825 H         1 UNK         0.0000 
     48 H48         4.2396   56.6739   15.4038 H         1 UNK         0.0000 
     49 H49         7.3220   54.7122   25.2577 H         1 UNK         0.0000 
     50 H50         6.4059   54.6988   27.5384 H         1 UNK         0.0000 
     51 H51         2.4381   54.2767   25.9388 H         1 UNK         0.0000 
     52 H52         3.3362   54.2734   23.6716 H         1 UNK         0.0000 
     53 H53         4.1043   51.0118   29.6821 H         1 UNK         0.0000 
     54 H54         5.1678   51.8036   28.4817 H         1 UNK         0.0000 
     55 H55         5.0219   52.4778   30.0818 H         1 UNK         0.0000 
     56 H56         2.5267   52.1298   27.0298 H         1 UNK         0.0000 
     57 H57         2.3351   50.9877   28.3197 H         1 UNK         0.0000 
     58 H58        -0.7149   51.5881   27.2305 H         1 UNK         0.0000 
     59 H59         0.1426   50.5030   28.2898 H         1 UNK         0.0000 
     60 H60        -2.1645   52.0950   29.0074 H         1 UNK         0.0000 
     61 H61        -1.3515   50.8880   29.9604 H         1 UNK         0.0000 
     62 H62        -0.8958   53.8406   30.0791 H         1 UNK         0.0000 
     63 H63        -0.5390   52.6183   31.2814 H         1 UNK         0.0000 
     64 H64         5.5043   58.3284   18.0811 H         1 UNK         0.0000 
     65 H65         6.9026   57.3607   17.6323 H         1 UNK         0.0000 
     66 H66         5.8969   58.0673   16.3709 H         1 UNK         0.0000 
     67 H67         1.9518   52.6445   18.1470 H         1 UNK         0.0000 
     68 H68         3.0707   51.8942   16.9845 H         1 UNK         0.0000 
     69 H69         1.7617   52.9518   16.4526 H         1 UNK         0.0000 
@<TRIPOS>BOND
     1    1    2 1    
     2    1   38 1    
     3    1   39 1    
     4    1   40 1    
     5    2    3 1    
     6    2   41 1    
     7    2   42 1    
     8    3    4 1    
     9    4    5 1    
    10    4   43 1    
    11    4   44 1    
    12    5    6 1    
    13    5   45 1    
    14    5   46 1    
    15    6   14 1    
    16    6    7 1    
    17    7   12 ar   
    18    7    8 ar   
    19    8    9 ar   
    20    8   37 1    
    21    9   10 ar   
    22    9   47 1    
    23   10   11 ar   
    24   10   48 1    
    25   11   12 ar   
    26   11   36 1    
    27   12   13 1    
    28   13   14 1    
    29   14   15 2    BACKBONE|DICT|INTERRES
    30   15   16 am   BACKBONE|DICT|INTERRES
    31   16   17 2    
    32   16   18 1    
    33   18   23 ar   
    34   18   19 ar   
    35   19   20 ar   
    36   19   49 1    
    37   20   21 ar   
    38   20   50 1    
    39   21   22 ar   
    40   21   24 1    
    41   22   23 ar   
    42   22   51 1    
    43   23   52 1    
    44   24   25 2    
    45   24   26 2    
    46   24   27 1    
    47   27   28 1    
    48   27   29 1    
    49   28   53 1    
    50   28   54 1    
    51   28   55 1    
    52   29   30 1    
    53   29   56 1    
    54   29   57 1    
    55   30   31 1    
    56   30   35 1    
    57   30   32 1    
    58   32   33 1    
    59   32   58 1    
    60   32   59 1    
    61   33   34 1    
    62   33   60 1    
    63   33   61 1    
    64   34   35 1    
    65   34   62 1    
    66   34   63 1    
    67   36   64 1    
    68   36   65 1    
    69   36   66 1    
    70   37   67 1    
    71   37   68 1    
    72   37   69 1    
@<TRIPOS>SUBSTRUCTURE
     1 UNK         1 GROUP             0       ****    0 ROOT    
