@<TRIPOS>MOLECULE
ZINC13402519_1943
53   55    1
SMALL
USER_CHARGES


@<TRIPOS>ATOM
      1 C1          9.4971   57.2725   17.9429 C.3       1 UNK         0.0000 
      2 C2          9.6102   56.0621   16.9998 C.3       1 UNK         0.0000 
      3 H3         10.6079   56.0948   16.5563 H         1 UNK         0.0000 
      4 C4          9.5044   54.6886   17.7015 C.3       1 UNK         0.0000 
      5 C5          9.7041   53.5400   16.6827 C.3       1 UNK         0.0000 
      6 C6          8.8529   53.7030   15.3970 C.3       1 UNK         0.0000 
      7 C7          8.9255   55.1377   14.8227 C.3       1 UNK         0.0000 
      8 N8          8.6310   56.1568   15.8669 N.pl3     1 UNK         0.0000 
      9 S9          6.9037   56.6073   16.1019 S.o2      1 UNK         0.0000 
     10 O10         6.2307   56.4540   14.8061 O.2       1 UNK         0.0000 
     11 O11         6.8612   57.8986   16.7971 O.2       1 UNK         0.0000 
     12 C12         6.1548   55.4088   17.2087 C.ar      1 UNK         0.0000 
     13 C13         5.5655   54.2512   16.6994 C.ar      1 UNK         0.0000 
     14 C14         5.0388   53.2983   17.5664 C.ar      1 UNK         0.0000 
     15 C15         5.0998   53.4947   18.9456 C.ar      1 UNK         0.0000 
     16 C16         5.6651   54.6662   19.4756 C.ar      1 UNK         0.0000 
     17 C17         6.1648   55.6271   18.5885 C.ar      1 UNK         0.0000 
     18 C18         5.7918   54.8971   20.9633 C.2       1 UNK         0.0000 
     19 O19         6.6358   55.6890   21.3920 O.2       1 UNK         0.0000 
     20 N20         4.9171   54.2160   21.7351 N.am      1 UNK         0.0000 
     21 C21         4.8161   54.1960   23.1361 C.ar      1 UNK         0.0000 
     22 C22         3.5717   53.8452   23.6617 C.ar      1 UNK         0.0000 
     23 C23         3.3852   53.7952   25.0401 C.ar      1 UNK         0.0000 
     24 C24         4.4423   54.0972   25.9042 C.ar      1 UNK         0.0000 
     25 C25         5.6841   54.4603   25.3784 C.ar      1 UNK         0.0000 
     26 C26         5.8789   54.4970   24.0008 C.ar      1 UNK         0.0000 
     27 C27         4.2981   53.9794   27.3636 C.2       1 UNK         0.0000 
     28 C28         3.5465   53.0552   28.0025 C.2       1 UNK         0.0000 
     29 C29         3.4089   52.9930   29.5271 C.2       1 UNK         0.0000 
     30 O30         3.2037   51.8454   29.9859 O.co2     1 UNK         0.0000 
     31 H31        10.3087   57.2689   18.6680 H         1 UNK         0.0000 
     32 H32         9.5491   58.2155   17.3971 H         1 UNK         0.0000 
     33 H33         8.5820   57.2658   18.5263 H         1 UNK         0.0000 
     34 H34         8.5385   54.5568   18.1809 H         1 UNK         0.0000 
     35 H35        10.2708   54.6009   18.4725 H         1 UNK         0.0000 
     36 H36         9.4887   52.5796   17.1563 H         1 UNK         0.0000 
     37 H37        10.7582   53.5025   16.4012 H         1 UNK         0.0000 
     38 H38         7.8200   53.4365   15.6047 H         1 UNK         0.0000 
     39 H39         9.1874   52.9903   14.6428 H         1 UNK         0.0000 
     40 H40         8.2875   55.2968   13.9531 H         1 UNK         0.0000 
     41 H41         9.9486   55.3043   14.4817 H         1 UNK         0.0000 
     42 H42         5.5307   54.0764   15.6337 H         1 UNK         0.0000 
     43 H43         4.6031   52.3920   17.1719 H         1 UNK         0.0000 
     44 H44         4.7172   52.7096   19.5806 H         1 UNK         0.0000 
     45 H45         6.5837   56.5435   18.9754 H         1 UNK         0.0000 
     46 H46         4.1974   53.7064   21.2472 H         1 UNK         0.0000 
     47 H47         2.7432   53.6100   23.0082 H         1 UNK         0.0000 
     48 H48         2.4191   53.5157   25.4341 H         1 UNK         0.0000 
     49 H49         6.5107   54.6797   26.0372 H         1 UNK         0.0000 
     50 H50         6.8603   54.7484   23.6265 H         1 UNK         0.0000 
     51 H51         4.8343   54.7144   27.9490 H         1 UNK         0.0000 
     52 H52         3.0132   52.3133   27.4287 H         1 UNK         0.0000 
     53 O53         3.5051   54.0972   30.1084 O.co2     1 UNK         0.0000 
@<TRIPOS>BOND
     1    1    2 1    
     2    1   31 1    
     3    1   32 1    
     4    1   33 1    
     5    2    3 1    
     6    2    8 1    
     7    2    4 1    
     8    4    5 1    
     9    4   34 1    
    10    4   35 1    
    11    5    6 1    
    12    5   36 1    
    13    5   37 1    
    14    6    7 1    
    15    6   38 1    
    16    6   39 1    
    17    7    8 1    
    18    7   40 1    
    19    7   41 1    
    20    8    9 1    
    21    9   10 2    
    22    9   11 2    
    23    9   12 1    
    24   12   17 ar   
    25   12   13 ar   
    26   13   14 ar   
    27   13   42 1    
    28   14   15 ar   
    29   14   43 1    
    30   15   16 ar   
    31   15   44 1    
    32   16   17 ar   
    33   16   18 1    
    34   17   45 1    
    35   18   19 2    
    36   18   20 am   BACKBONE|DICT|INTERRES
    37   20   21 1    
    38   20   46 1    
    39   21   26 ar   
    40   21   22 ar   
    41   22   23 ar   
    42   22   47 1    
    43   23   24 ar   
    44   23   48 1    
    45   24   25 ar   
    46   24   27 1    
    47   25   26 ar   
    48   25   49 1    
    49   26   50 1    
    50   27   28 2    
    51   27   51 1    
    52   28   29 1    
    53   28   52 1    
    54   29   30 2    
    55   29   53 1    
@<TRIPOS>SUBSTRUCTURE
     1 UNK         1 GROUP             0       ****    0 ROOT    
