@<TRIPOS>MOLECULE
ZINC20418300_4534
51   54    1
SMALL
USER_CHARGES


@<TRIPOS>ATOM
      1 C1         -5.9578   53.3554   26.6070 C.3       1 UNK         0.0000 
      2 C2         -4.7272   52.6373   26.0829 C.ar      1 UNK         0.0000 
      3 C3         -4.1725   53.0304   24.8643 C.ar      1 UNK         0.0000 
      4 C4         -3.0579   52.3650   24.3632 C.ar      1 UNK         0.0000 
      5 C5         -2.5004   51.3051   25.0827 C.ar      1 UNK         0.0000 
      6 C6         -3.0505   50.9099   26.3036 C.ar      1 UNK         0.0000 
      7 C7         -4.1674   51.5767   26.7998 C.ar      1 UNK         0.0000 
      8 S8         -1.0539   50.4835   24.4239 S.o2      1 UNK         0.0000 
      9 O9         -1.2664   50.3234   22.9793 O.2       1 UNK         0.0000 
     10 O10        -0.7341   49.3360   25.2798 O.2       1 UNK         0.0000 
     11 C11         0.2534   51.7203   24.6703 C.2       1 UNK         0.0000 
     12 C12         0.7468   52.0954   25.9313 C.2       1 UNK         0.0000 
     13 C13         1.7088   53.1129   25.8953 C.2       1 UNK         0.0000 
     14 S14         1.8764   53.6958   24.2659 S.3       1 UNK         0.0000 
     15 C15         0.8805   52.4166   23.6423 C.2       1 UNK         0.0000 
     16 N16         0.7115   52.2089   22.2935 N.pl3     1 UNK         0.0000 
     17 C17         1.6285   52.3066   21.2278 C.ar      1 UNK         0.0000 
     18 C18         2.9959   52.5766   21.4019 C.ar      1 UNK         0.0000 
     19 C19         3.8504   52.6743   20.3030 C.ar      1 UNK         0.0000 
     20 C20         3.3518   52.4944   19.0158 C.ar      1 UNK         0.0000 
     21 C21         2.0033   52.1917   18.8292 C.ar      1 UNK         0.0000 
     22 C22         1.1457   52.0968   19.9273 C.ar      1 UNK         0.0000 
     23 F23        -0.1628   51.8118   19.7166 F         1 UNK         0.0000 
     24 C24         2.4227   53.7434   27.0145 C.2       1 UNK         0.0000 
     25 O25         1.7740   53.9806   28.0368 O.2       1 UNK         0.0000 
     26 C26         3.9232   53.9357   27.0104 C.ar      1 UNK         0.0000 
     27 C27         4.5782   53.9567   28.2532 C.ar      1 UNK         0.0000 
     28 C28         5.9582   54.0967   28.3295 C.ar      1 UNK         0.0000 
     29 C29         6.7039   54.2451   27.1704 C.ar      1 UNK         0.0000 
     30 C30         6.0834   54.2548   25.9289 C.ar      1 UNK         0.0000 
     31 C31         4.7028   54.0967   25.8497 C.ar      1 UNK         0.0000 
     32 N32         0.3358   51.4976   27.0904 N.pl3     1 UNK         0.0000 
     33 H33        -6.6835   53.4935   25.8024 H         1 UNK         0.0000 
     34 H34        -6.4580   52.7873   27.3922 H         1 UNK         0.0000 
     35 H35        -5.6927   54.3423   26.9894 H         1 UNK         0.0000 
     36 H36        -4.6042   53.8483   24.3033 H         1 UNK         0.0000 
     37 H37        -2.6279   52.6713   23.4190 H         1 UNK         0.0000 
     38 H38        -2.6182   50.0950   26.8696 H         1 UNK         0.0000 
     39 H39        -4.5935   51.2651   27.7416 H         1 UNK         0.0000 
     40 H40        -0.1399   51.7469   21.9952 H         1 UNK         0.0000 
     41 H41         3.4287   52.6877   22.3798 H         1 UNK         0.0000 
     42 H42         4.9024   52.8743   20.4461 H         1 UNK         0.0000 
     43 H43         4.0173   52.5515   18.1645 H         1 UNK         0.0000 
     44 H44         1.6240   52.0285   17.8313 H         1 UNK         0.0000 
     45 H45         4.0275   53.8417   29.1762 H         1 UNK         0.0000 
     46 H46         6.4624   54.0997   29.2816 H         1 UNK         0.0000 
     47 H47         7.7757   54.3503   27.2438 H         1 UNK         0.0000 
     48 H48         6.6678   54.3725   25.0284 H         1 UNK         0.0000 
     49 H49         4.2920   54.1116   24.8581 H         1 UNK         0.0000 
     50 H50        -0.2226   50.6520   27.0856 H         1 UNK         0.0000 
     51 H51         0.6584   51.8253   27.9900 H         1 UNK         0.0000 
@<TRIPOS>BOND
     1    1    2 1    
     2    1   33 1    
     3    1   34 1    
     4    1   35 1    
     5    2    7 ar   
     6    2    3 ar   
     7    3    4 ar   
     8    3   36 1    
     9    4    5 ar   
    10    4   37 1    
    11    5    6 ar   
    12    5    8 1    
    13    6    7 ar   
    14    6   38 1    
    15    7   39 1    
    16    8    9 2    
    17    8   10 2    
    18    8   11 1    
    19   11   15 2    
    20   11   12 1    
    21   12   13 2    
    22   12   32 1    
    23   13   14 1    
    24   13   24 1    
    25   14   15 1    
    26   15   16 1    
    27   16   17 1    
    28   16   40 1    
    29   17   22 ar   
    30   17   18 ar   
    31   18   19 ar   
    32   18   41 1    
    33   19   20 ar   
    34   19   42 1    
    35   20   21 ar   
    36   20   43 1    
    37   21   22 ar   
    38   21   44 1    
    39   22   23 1    
    40   24   25 2    
    41   24   26 1    
    42   26   31 ar   
    43   26   27 ar   
    44   27   28 ar   
    45   27   45 1    
    46   28   29 ar   
    47   28   46 1    
    48   29   30 ar   
    49   29   47 1    
    50   30   31 ar   
    51   30   48 1    
    52   31   49 1    
    53   32   50 1    
    54   32   51 1    
@<TRIPOS>SUBSTRUCTURE
     1 UNK         1 GROUP             0       ****    0 ROOT    
