ZINC35525653_5443
                    3D
 Schrodinger Suite 2024-2.
 71 75  0  0  1  0            999 V2000
    0.1464   49.6779   25.9086 C   0  0  0  0  0  0
   -0.8887   50.7844   25.6004 N   0  3  0  0  0  0
   -1.5193   51.3386   26.8981 C   0  0  0  0  0  0
   -0.3804   51.8638   24.5982 C   0  0  0  0  0  0
    0.9100   52.6235   24.9203 C   0  0  0  0  0  0
    1.6424   53.0296   23.8533 N   0  0  0  0  0  0
    2.8985   53.5166   24.0787 C   0  0  0  0  0  0
    3.3663   53.6969   25.4257 C   0  0  0  0  0  0
    4.5659   54.2133   26.0444 C   0  0  0  0  0  0
    4.5640   54.0179   27.4284 C   0  0  0  0  0  0
    3.0489   53.4581   28.0665 S   0  0  0  0  0  0
    2.4376   53.2940   26.4409 C   0  0  0  0  0  0
    1.2380   52.7662   26.2225 N   0  0  0  0  0  0
    5.7443   54.3099   28.3405 C   0  0  0  0  0  0
    7.0239   54.2577   27.4848 C   0  0  0  0  0  0
    6.8784   55.2355   26.3119 C   0  0  0  0  0  0
    5.7583   54.8671   25.3542 C   0  0  0  0  0  0
    3.6700   53.7190   22.9234 N   0  0  0  0  0  0
    5.0550   53.2808   22.7619 C   0  0  0  0  0  0
    5.8925   54.4148   22.1339 C   0  0  0  0  0  0
    5.3615   54.7289   20.7970 N   0  0  0  0  0  0
    4.0867   54.0957   20.3737 C   0  0  0  0  0  0
    3.1052   53.9974   21.5882 C   0  0  0  0  0  0
    5.9665   55.7398   20.1158 C   0  0  0  0  0  0
    6.7699   56.5160   20.6512 O   0  0  0  0  0  0
    5.6454   55.8304   18.8065 N   0  0  0  0  0  0
    6.2659   56.7030   17.9028 C   0  0  0  0  0  0
    5.4757   57.6844   17.3064 C   0  0  0  0  0  0
    6.0500   58.6095   16.4412 C   0  0  0  0  0  0
    7.4193   58.5553   16.1427 C   0  0  0  0  0  0
    8.1917   57.5410   16.7102 C   0  0  0  0  0  0
    7.6365   56.6029   17.5970 C   0  0  0  0  0  0
    8.3651   55.5787   18.1789 O   0  0  0  0  0  0
    9.7621   55.4754   17.9313 C   0  0  0  0  0  0
    8.0737   59.4469   15.3155 O   0  0  0  0  0  0
    7.3621   60.5836   14.8327 C   0  0  0  0  0  0
    0.9458   50.1118   26.5090 H   0  0  0  0  0  0
   -0.3655   48.8920   26.4678 H   0  0  0  0  0  0
    0.5258   49.2909   24.9618 H   0  0  0  0  0  0
   -0.7345   51.7524   27.5321 H   0  0  0  0  0  0
   -2.2517   52.0982   26.6206 H   0  0  0  0  0  0
   -2.0062   50.4988   27.4005 H   0  0  0  0  0  0
   -1.2076   52.5620   24.4690 H   0  0  0  0  0  0
   -0.2587   51.3004   23.6697 H   0  0  0  0  0  0
    5.6383   55.2954   28.8031 H   0  0  0  0  0  0
    5.7985   53.5824   29.1488 H   0  0  0  0  0  0
    7.9016   54.4969   28.0819 H   0  0  0  0  0  0
    7.1898   53.2460   27.1122 H   0  0  0  0  0  0
    6.7044   56.2283   26.6926 H   0  0  0  0  0  0
    7.7660   55.2657   25.6847 H   0  0  0  0  0  0
    6.2905   54.1955   24.7079 H   0  0  0  0  0  0
    5.4561   55.7368   24.7740 H   0  0  0  0  0  0
    5.4894   52.8667   23.6576 H   0  0  0  0  0  0
    5.0555   52.4006   22.1149 H   0  0  0  0  0  0
    6.9298   54.0967   22.0755 H   0  0  0  0  0  0
    5.8618   55.2965   22.7663 H   0  0  0  0  0  0
    3.5753   54.6232   19.5672 H   0  0  0  0  0  0
    4.3268   53.0890   20.0296 H   0  0  0  0  0  0
    2.7063   55.0023   21.6995 H   0  0  0  0  0  0
    2.3076   53.2956   21.3435 H   0  0  0  0  0  0
    4.9439   55.2080   18.4369 H   0  0  0  0  0  0
    4.4225   57.7595   17.5343 H   0  0  0  0  0  0
    5.4204   59.3873   16.0333 H   0  0  0  0  0  0
    9.2379   57.5097   16.4523 H   0  0  0  0  0  0
   10.1636   54.6239   18.4821 H   0  0  0  0  0  0
    9.9702   55.3091   16.8723 H   0  0  0  0  0  0
   10.2923   56.3679   18.2679 H   0  0  0  0  0  0
    8.0300   61.1993   14.2310 H   0  0  0  0  0  0
    6.9975   61.2024   15.6535 H   0  0  0  0  0  0
    6.5225   60.2943   14.1980 H   0  0  0  0  0  0
   -1.6466   50.3117   25.1222 H   0  0  0  0  0  0
  1  2  1  0  0  0
  1 37  1  0  0  0
  1 38  1  0  0  0
  1 39  1  0  0  0
  2  3  1  0  0  0
  2  4  1  0  0  0
  2 71  1  0  0  0
  3 40  1  0  0  0
  3 41  1  0  0  0
  3 42  1  0  0  0
  4  5  1  0  0  0
  4 43  1  0  0  0
  4 44  1  0  0  0
  5 13  2  0  0  0
  5  6  1  0  0  0
  6  7  2  0  0  0
  7  8  1  0  0  0
  7 18  1  0  0  0
  8 12  2  0  0  0
  8  9  1  0  0  0
  9 17  1  0  0  0
  9 10  2  0  0  0
 10 11  1  0  0  0
 10 14  1  0  0  0
 11 12  1  0  0  0
 12 13  1  0  0  0
 14 15  1  0  0  0
 14 45  1  0  0  0
 14 46  1  0  0  0
 15 16  1  0  0  0
 15 47  1  0  0  0
 15 48  1  0  0  0
 16 17  1  0  0  0
 16 49  1  0  0  0
 16 50  1  0  0  0
 17 51  1  0  0  0
 17 52  1  0  0  0
 18 23  1  0  0  0
 18 19  1  0  0  0
 19 20  1  0  0  0
 19 53  1  0  0  0
 19 54  1  0  0  0
 20 21  1  0  0  0
 20 55  1  0  0  0
 20 56  1  0  0  0
 21 22  1  0  0  0
 21 24  1  0  0  0
 22 23  1  0  0  0
 22 57  1  0  0  0
 22 58  1  0  0  0
 23 59  1  0  0  0
 23 60  1  0  0  0
 24 25  2  0  0  0
 24 26  1  0  0  0
 26 27  1  0  0  0
 26 61  1  0  0  0
 27 32  2  0  0  0
 27 28  1  0  0  0
 28 29  2  0  0  0
 28 62  1  0  0  0
 29 30  1  0  0  0
 29 63  1  0  0  0
 30 31  2  0  0  0
 30 35  1  0  0  0
 31 32  1  0  0  0
 31 64  1  0  0  0
 32 33  1  0  0  0
 33 34  1  0  0  0
 34 65  1  0  0  0
 34 66  1  0  0  0
 34 67  1  0  0  0
 35 36  1  0  0  0
 36 68  1  0  0  0
 36 69  1  0  0  0
 36 70  1  0  0  0
M  CHG  1   2   1
M  END
> <i_i_glide_confnum>
660

> <i_i_glide_lignum>
5444

> <i_i_glide_posenum>
100

> <i_i_glide_rotatable_bonds>
8

> <i_m_Source_File_Index>
1879

> <b_m_subgroup_collapsed>
0

> <r_i_docking_score>
-6.00263

> <r_i_glide_ecoul>
-6.17917

> <r_i_glide_eff_state_penalty>
0

> <r_i_glide_einternal>
5.62866

> <r_i_glide_emodel>
-62.1516

> <r_i_glide_energy>
-46.0009

> <r_i_glide_erotb>
0.391421

> <r_i_glide_esite>
-0.0330584

> <r_i_glide_evdw>
-39.8217

> <r_i_glide_gscore>
-6.00263

> <r_i_glide_hbond>
-0.241863

> <r_i_glide_ligand_efficiency>
-0.16674

> <r_i_glide_ligand_efficiency_ln>
-1.30961

> <r_i_glide_ligand_efficiency_sa>
-0.550563

> <r_i_glide_lipo>
-2.41729

> <r_i_glide_metal>
0

> <r_i_glide_rewards>
-0.78388

> <s_i_glide_gridfile>
wee1_glide-grid

> <s_m_Source_File>
wee1_decoys_glide_SP.sdf

> <s_m_Source_Path>
/Users/zhangxujun/Desktop

> <s_m_entry_id>
2154

> <s_m_entry_name>
wee1_decoys_glide_SP.1879

> <s_m_subgroup_title>
wee1_decoys_glide_SP

> <s_m_subgroupid>
wee1_decoys_glide_SP


$$$$
