ZINC20762449_3260
                    3D
 Schrodinger Suite 2024-2.
 59 62  0  0  1  0            999 V2000
    6.6498   54.6565   25.8090 C   0  0  0  0  0  0
    5.1951   54.3363   25.5171 C   0  0  0  0  0  0
    4.7262   54.2942   24.2064 C   0  0  0  0  0  0
    3.3843   54.0118   23.9352 C   0  0  0  0  0  0
    2.4945   53.7263   24.9915 C   0  0  0  0  0  0
    2.9684   53.7904   26.3262 C   0  0  0  0  0  0
    4.3136   54.0903   26.5667 C   0  0  0  0  0  0
    2.0680   53.6399   27.5472 C   0  0  0  0  0  0
    1.1425   53.4949   24.6502 N   0  0  0  0  0  0
    0.3345   52.4967   25.0690 C   0  0  0  0  0  0
    0.7045   51.5964   25.8203 O   0  0  0  0  0  0
   -1.1330   52.5395   24.5498 C   0  0  2  0  0  0
   -1.2673   53.5162   24.0814 H   0  0  0  0  0  0
   -2.1592   52.3870   25.7198 C   0  0  0  0  0  0
   -2.2861   50.9558   26.3215 C   0  0  0  0  0  0
   -2.3506   49.8492   25.2418 C   0  0  0  0  0  0
   -1.3081   50.0859   24.2179 N   0  0  0  0  0  0
   -1.3767   51.3960   23.5310 C   0  0  0  0  0  0
   -0.4831   48.7332   23.4485 S   0  0  0  0  0  0
    0.4753   49.2499   22.4643 O   0  0  0  0  0  0
   -0.0956   47.7679   24.4812 O   0  0  0  0  0  0
   -1.8094   47.9415   22.5186 C   0  0  0  0  0  0
   -2.3165   48.3345   21.2897 C   0  0  0  0  0  0
   -3.2683   47.4314   20.7933 C   0  0  0  0  0  0
   -3.4812   46.3304   21.6284 C   0  0  0  0  0  0
   -2.5504   46.4930   23.0954 S   0  0  0  0  0  0
   -4.3208   45.1479   21.4046 C   0  0  0  0  0  0
   -5.4245   45.1132   20.4641 C   0  0  0  0  0  0
   -6.1785   43.9950   20.3054 C   0  0  0  0  0  0
   -5.9084   42.7654   21.0367 C   0  0  0  0  0  0
   -6.4961   41.6965   20.8817 O   0  0  0  0  0  0
   -4.8710   42.9303   21.9044 N   0  0  0  0  0  0
   -4.6061   42.1309   22.4649 H   0  0  0  0  0  0
   -4.0856   44.0679   22.0821 N   0  0  0  0  0  0
    2.9288   54.0199   22.4802 C   0  0  0  0  0  0
    6.7155   55.5677   26.4044 H   0  0  0  0  0  0
    7.2351   54.7882   24.8974 H   0  0  0  0  0  0
    7.1003   53.8509   26.3906 H   0  0  0  0  0  0
    5.4070   54.4969   23.3923 H   0  0  0  0  0  0
    4.6791   54.1432   27.5824 H   0  0  0  0  0  0
    1.9942   52.5948   27.8480 H   0  0  0  0  0  0
    2.4482   54.2149   28.3924 H   0  0  0  0  0  0
    1.0704   54.0272   27.3538 H   0  0  0  0  0  0
    0.7918   54.0825   23.9109 H   0  0  0  0  0  0
   -1.9936   53.1491   26.4826 H   0  0  0  0  0  0
   -3.1292   52.7129   25.3415 H   0  0  0  0  0  0
   -1.4376   50.7516   26.9766 H   0  0  0  0  0  0
   -3.1615   50.8931   26.9685 H   0  0  0  0  0  0
   -2.2300   48.8540   25.6734 H   0  0  0  0  0  0
   -3.3233   49.8965   24.7510 H   0  0  0  0  0  0
   -2.3893   51.4829   23.1345 H   0  0  0  0  0  0
   -0.6973   51.4361   22.6785 H   0  0  0  0  0  0
   -1.9876   49.2180   20.7611 H   0  0  0  0  0  0
   -3.7505   47.5585   19.8349 H   0  0  0  0  0  0
   -5.6799   45.9906   19.8878 H   0  0  0  0  0  0
   -7.0069   43.9949   19.6117 H   0  0  0  0  0  0
    2.3422   53.1291   22.2537 H   0  0  0  0  0  0
    2.3049   54.8932   22.2902 H   0  0  0  0  0  0
    3.7663   54.0309   21.7824 H   0  0  0  0  0  0
  1  2  1  0  0  0
  1 36  1  0  0  0
  1 37  1  0  0  0
  1 38  1  0  0  0
  2  7  2  0  0  0
  2  3  1  0  0  0
  3  4  2  0  0  0
  3 39  1  0  0  0
  4  5  1  0  0  0
  4 35  1  0  0  0
  5  6  2  0  0  0
  5  9  1  0  0  0
  6  7  1  0  0  0
  6  8  1  0  0  0
  7 40  1  0  0  0
  8 41  1  0  0  0
  8 42  1  0  0  0
  8 43  1  0  0  0
  9 10  1  0  0  0
  9 44  1  0  0  0
 10 11  2  0  0  0
 10 12  1  0  0  0
 12 13  1  0  0  0
 12 18  1  0  0  0
 12 14  1  0  0  0
 14 15  1  0  0  0
 14 45  1  0  0  0
 14 46  1  0  0  0
 15 16  1  0  0  0
 15 47  1  0  0  0
 15 48  1  0  0  0
 16 17  1  0  0  0
 16 49  1  0  0  0
 16 50  1  0  0  0
 17 18  1  0  0  0
 17 19  1  0  0  0
 18 51  1  0  0  0
 18 52  1  0  0  0
 19 20  2  0  0  0
 19 21  2  0  0  0
 19 22  1  0  0  0
 22 26  1  0  0  0
 22 23  2  0  0  0
 23 24  1  0  0  0
 23 53  1  0  0  0
 24 25  2  0  0  0
 24 54  1  0  0  0
 25 26  1  0  0  0
 25 27  1  0  0  0
 27 34  2  0  0  0
 27 28  1  0  0  0
 28 29  2  0  0  0
 28 55  1  0  0  0
 29 30  1  0  0  0
 29 56  1  0  0  0
 30 31  2  0  0  0
 30 32  1  0  0  0
 32 33  1  0  0  0
 32 34  1  0  0  0
 35 57  1  0  0  0
 35 58  1  0  0  0
 35 59  1  0  0  0
M  END
> <i_i_glide_confnum>
174

> <i_i_glide_lignum>
3261

> <i_i_glide_posenum>
258

> <i_i_glide_rotatable_bonds>
6

> <i_m_Source_File_Index>
4729

> <b_m_subgroup_collapsed>
0

> <r_i_docking_score>
-3.95327

> <r_i_glide_ecoul>
-1.73187

> <r_i_glide_eff_state_penalty>
0

> <r_i_glide_einternal>
4.41498

> <r_i_glide_emodel>
-45.8041

> <r_i_glide_energy>
-35.8161

> <r_i_glide_erotb>
0.514978

> <r_i_glide_esite>
-0.0906853

> <r_i_glide_evdw>
-34.0842

> <r_i_glide_gscore>
-3.95327

> <r_i_glide_hbond>
-0.217312

> <r_i_glide_ligand_efficiency>
-0.119796

> <r_i_glide_ligand_efficiency_ln>
-0.879186

> <r_i_glide_ligand_efficiency_sa>
-0.38425

> <r_i_glide_lipo>
-1.98532

> <r_i_glide_metal>
0

> <r_i_glide_rewards>
-0.210933

> <s_i_glide_gridfile>
wee1_glide-grid

> <s_m_Source_File>
wee1_decoys_glide_SP.sdf

> <s_m_Source_Path>
/Users/zhangxujun/Desktop

> <s_m_entry_id>
5004

> <s_m_entry_name>
wee1_decoys_glide_SP.4729

> <s_m_subgroup_title>
wee1_decoys_glide_SP

> <s_m_subgroupid>
wee1_decoys_glide_SP


$$$$
