@<TRIPOS>MOLECULE
ZINC63589296_4916
59   62    1
SMALL
USER_CHARGES


@<TRIPOS>ATOM
      1 C1          4.9266   54.0008   28.5279 C.3       1 UNK         0.0000 
      2 C2          5.1347   54.2258   27.0423 C.ar      1 UNK         0.0000 
      3 C3          6.3370   54.7626   26.5807 C.ar      1 UNK         0.0000 
      4 C4          6.5371   54.9607   25.2166 C.ar      1 UNK         0.0000 
      5 C5          5.5313   54.6268   24.3106 C.ar      1 UNK         0.0000 
      6 C6          4.3068   54.0975   24.7492 C.ar      1 UNK         0.0000 
      7 C7          4.1237   53.9056   26.1318 C.ar      1 UNK         0.0000 
      8 C8          3.2385   53.7339   23.7335 C.2       1 UNK         0.0000 
      9 O9          3.2911   54.1702   22.5789 O.2       1 UNK         0.0000 
     10 N10         2.1910   52.9495   24.2174 N.am      1 UNK         0.0000 
     11 C11         1.5045   52.1278   23.5024 C.2       1 UNK         0.0000 
     12 N12         1.6790   51.9204   22.0953 N.pl3     1 UNK         0.0000 
     13 C13         1.5138   50.8085   21.2518 C.ar      1 UNK         0.0000 
     14 C14         2.3853   50.6931   20.1679 C.ar      1 UNK         0.0000 
     15 C15         2.3045   49.6107   19.2935 C.ar      1 UNK         0.0000 
     16 C16         1.3347   48.6130   19.4749 C.ar      1 UNK         0.0000 
     17 C17         0.4267   48.7530   20.5311 C.ar      1 UNK         0.0000 
     18 C18         0.5196   49.8324   21.4087 C.ar      1 UNK         0.0000 
     19 Cl19       -0.8319   47.5917   20.7767 Cl        1 UNK         0.0000 
     20 O20         1.2133   47.4923   18.6725 O.3       1 UNK         0.0000 
     21 C21         2.1129   47.3234   17.5815 C.3       1 UNK         0.0000 
     22 N22         0.4505   51.3409   24.0584 N.pl3     1 UNK         0.0000 
     23 C23         0.2195   51.1893   25.4965 C.3       1 UNK         0.0000 
     24 C24        -0.2392   52.4906   26.1769 C.3       1 UNK         0.0000 
     25 C25        -0.2995   52.4264   27.6894 C.2       1 UNK         0.0000 
     26 C26         0.1908   53.2554   28.6268 C.2       1 UNK         0.0000 
     27 C27         0.9567   54.5042   28.5094 C.2       1 UNK         0.0000 
     28 C28         1.2102   55.2613   29.5963 C.2       1 UNK         0.0000 
     29 C29         0.7066   54.7964   30.8809 C.2       1 UNK         0.0000 
     30 C30         0.0855   53.5980   31.0235 C.2       1 UNK         0.0000 
     31 C31        -0.1968   52.8190   29.8971 C.2       1 UNK         0.0000 
     32 N32        -0.8621   51.6966   29.8200 N.pl3     1 UNK         0.0000 
     33 C33        -1.0005   51.2973   28.4094 C.3       1 UNK         0.0000 
     34 H34         3.8852   54.1644   28.8023 H         1 UNK         0.0000 
     35 H35         5.2017   52.9811   28.7995 H         1 UNK         0.0000 
     36 H36         5.5211   54.6980   29.1202 H         1 UNK         0.0000 
     37 H37         7.1154   55.0199   27.2834 H         1 UNK         0.0000 
     38 H38         7.4694   55.3649   24.8518 H         1 UNK         0.0000 
     39 H39         5.7130   54.7835   23.2552 H         1 UNK         0.0000 
     40 H40         3.2018   53.4870   26.5105 H         1 UNK         0.0000 
     41 H41         2.2336   52.6537   21.6675 H         1 UNK         0.0000 
     42 H42         3.1540   51.4338   20.0007 H         1 UNK         0.0000 
     43 H43         3.0167   49.5631   18.4829 H         1 UNK         0.0000 
     44 H44        -0.2229   49.8980   22.1850 H         1 UNK         0.0000 
     45 H45         1.9026   46.3773   17.0823 H         1 UNK         0.0000 
     46 H46         1.9886   48.1179   16.8423 H         1 UNK         0.0000 
     47 H47         3.1531   47.2960   17.9106 H         1 UNK         0.0000 
     48 H48         0.2211   50.5034   23.5468 H         1 UNK         0.0000 
     49 H49        -0.5568   50.4323   25.6323 H         1 UNK         0.0000 
     50 H50         1.1043   50.7921   25.9836 H         1 UNK         0.0000 
     51 H51         0.4363   53.2964   25.9245 H         1 UNK         0.0000 
     52 H52        -1.2214   52.7779   25.8017 H         1 UNK         0.0000 
     53 H53         1.3338   54.8479   27.5594 H         1 UNK         0.0000 
     54 H54         1.7761   56.1794   29.5171 H         1 UNK         0.0000 
     55 H55         0.8625   55.4096   31.7562 H         1 UNK         0.0000 
     56 H56        -0.2511   53.2959   32.0065 H         1 UNK         0.0000 
     57 H57        -2.0606   51.1876   28.1822 H         1 UNK         0.0000 
     58 H58        -0.4961   50.3454   28.2577 H         1 UNK         0.0000 
     59 H59        -1.2645   51.1855   30.6067 H         1 UNK         0.0000 
@<TRIPOS>BOND
     1    1    2 1    
     2    1   34 1    
     3    1   35 1    
     4    1   36 1    
     5    2    7 ar   
     6    2    3 ar   
     7    3    4 ar   
     8    3   37 1    
     9    4    5 ar   
    10    4   38 1    
    11    5    6 ar   
    12    5   39 1    
    13    6    7 ar   
    14    6    8 1    
    15    7   40 1    
    16    8   10 am   BACKBONE|DICT|INTERRES
    17    8    9 2    
    18   10   11 2    
    19   11   12 1    
    20   11   22 1    
    21   12   13 1    
    22   12   41 1    
    23   13   18 ar   
    24   13   14 ar   
    25   14   15 ar   
    26   14   42 1    
    27   15   16 ar   
    28   15   43 1    
    29   16   17 ar   
    30   16   20 1    
    31   17   18 ar   
    32   17   19 1    
    33   18   44 1    
    34   20   21 1    
    35   21   45 1    
    36   21   46 1    
    37   21   47 1    
    38   22   23 1    
    39   22   48 1    
    40   23   24 1    
    41   23   49 1    
    42   23   50 1    
    43   24   25 1    
    44   24   51 1    
    45   24   52 1    
    46   25   33 1    
    47   25   26 2    
    48   26   31 1    
    49   26   27 1    
    50   27   28 2    
    51   27   53 1    
    52   28   29 1    
    53   28   54 1    
    54   29   30 2    
    55   29   55 1    
    56   30   31 1    
    57   30   56 1    
    58   31   32 2    
    59   32   33 1    
    60   32   59 1    
    61   33   57 1    
    62   33   58 1    
@<TRIPOS>SUBSTRUCTURE
     1 UNK         1 GROUP             0       ****    0 ROOT    
