@<TRIPOS>MOLECULE
ZINC64761316_150
62   65    1
SMALL
USER_CHARGES


@<TRIPOS>ATOM
      1 C1          5.9417   54.4809   24.3418 C.3       1 UNK         0.0000 
      2 C2          4.5144   54.0962   23.9737 C.2       1 UNK         0.0000 
      3 C3          3.9295   53.9094   22.7223 C.2       1 UNK         0.0000 
      4 S4          2.2073   53.5146   22.8502 S.3       1 UNK         0.0000 
      5 C5          2.3282   53.5196   24.5894 C.ar      1 UNK         0.0000 
      6 N6          3.6049   53.8247   25.0018 N.pl3     1 UNK         0.0000 
      7 C7          3.5607   53.7270   26.3902 C.ar      1 UNK         0.0000 
      8 C8          2.2032   53.4814   26.6841 C.ar      1 UNK         0.0000 
      9 N9          1.5043   53.2971   25.5796 N.2       1 UNK         0.0000 
     10 C10         1.4792   53.3789   27.9857 C.ar      1 UNK         0.0000 
     11 C11         1.4267   54.4724   28.8544 C.ar      1 UNK         0.0000 
     12 C12         0.7581   54.3672   30.0726 C.ar      1 UNK         0.0000 
     13 C13         0.1197   53.1747   30.4071 C.ar      1 UNK         0.0000 
     14 C14         0.1272   52.0966   29.5266 C.ar      1 UNK         0.0000 
     15 C15         0.8132   52.1950   28.3197 C.ar      1 UNK         0.0000 
     16 N16         4.7414   53.8596   27.0858 N.pl3     1 UNK         0.0000 
     17 C17         5.2034   53.6564   28.4520 C.3       1 UNK         0.0000 
     18 C18         6.7342   53.4654   28.3252 C.3       1 UNK         0.0000 
     19 C19         4.6019   52.4206   29.1619 C.3       1 UNK         0.0000 
     20 C20         4.9430   54.9142   29.2828 C.3       1 UNK         0.0000 
     21 C21         4.5427   54.0909   21.4261 C.2       1 UNK         0.0000 
     22 O22         5.4640   54.8892   21.2559 O.2       1 UNK         0.0000 
     23 N23         4.0263   53.3235   20.4475 N.am      1 UNK         0.0000 
     24 C24         4.4561   53.2582   19.0476 C.3       1 UNK         0.0000 
     25 C25         5.9725   53.0304   18.8051 C.3       1 UNK         0.0000 
     26 C26         6.3517   52.9544   17.3167 C.3       1 UNK         0.0000 
     27 N27         5.8521   54.2375   16.6206 N.4       1 UNK         0.0000 
     28 C28         4.3137   54.3337   16.7037 C.3       1 UNK         0.0000 
     29 C29         3.9062   54.4180   18.1849 C.3       1 UNK         0.0000 
     30 C30         6.2939   54.2276   15.1411 C.3       1 UNK         0.0000 
     31 H31         6.5747   54.6850   23.4800 H         1 UNK         0.0000 
     32 H32         5.9675   55.3795   24.9584 H         1 UNK         0.0000 
     33 H33         6.4435   53.6887   24.8969 H         1 UNK         0.0000 
     34 H34         1.8843   55.4090   28.5748 H         1 UNK         0.0000 
     35 H35         0.7210   55.2090   30.7477 H         1 UNK         0.0000 
     36 H36        -0.4058   53.0855   31.3482 H         1 UNK         0.0000 
     37 H37        -0.4012   51.1884   29.7771 H         1 UNK         0.0000 
     38 H38         0.8237   51.3522   27.6441 H         1 UNK         0.0000 
     39 H39         5.5577   54.0282   26.5172 H         1 UNK         0.0000 
     40 H40         7.1955   54.2513   27.7238 H         1 UNK         0.0000 
     41 H41         7.2419   53.5061   29.2819 H         1 UNK         0.0000 
     42 H42         6.9885   52.5113   27.8581 H         1 UNK         0.0000 
     43 H43         3.5466   52.2808   28.9607 H         1 UNK         0.0000 
     44 H44         5.1030   51.5024   28.8818 H         1 UNK         0.0000 
     45 H45         4.7037   52.4824   30.2445 H         1 UNK         0.0000 
     46 H46         3.9351   55.2969   29.1648 H         1 UNK         0.0000 
     47 H47         5.1031   54.7625   30.3449 H         1 UNK         0.0000 
     48 H48         5.6292   55.6964   28.9817 H         1 UNK         0.0000 
     49 H49         3.3717   52.6117   20.7348 H         1 UNK         0.0000 
     50 H50         3.9959   52.3409   18.6686 H         1 UNK         0.0000 
     51 H51         6.5549   53.8353   19.2531 H         1 UNK         0.0000 
     52 H52         6.2866   52.1011   19.2823 H         1 UNK         0.0000 
     53 H53         5.9040   52.0972   16.8102 H         1 UNK         0.0000 
     54 H54         7.4366   52.9200   17.2040 H         1 UNK         0.0000 
     55 H55         3.8943   53.4591   16.2018 H         1 UNK         0.0000 
     56 H56         4.0164   55.2407   16.1753 H         1 UNK         0.0000 
     57 H57         2.8175   54.4405   18.2512 H         1 UNK         0.0000 
     58 H58         4.2583   55.3675   18.5914 H         1 UNK         0.0000 
     59 H59         5.8603   53.3514   14.6555 H         1 UNK         0.0000 
     60 H60         5.9381   55.1521   14.6816 H         1 UNK         0.0000 
     61 H61         7.3849   54.1900   15.1234 H         1 UNK         0.0000 
     62 H62         6.2617   55.0444   17.0734 H         1 UNK         0.0000 
@<TRIPOS>BOND
     1    1    2 1    
     2    1   31 1    
     3    1   32 1    
     4    1   33 1    
     5    2    6 1    
     6    2    3 2    
     7    3    4 1    
     8    3   21 1    
     9    4    5 1    
    10    5    9 ar   
    11    5    6 ar   
    12    6    7 ar   
    13    7    8 ar   
    14    7   16 1    
    15    8    9 ar   
    16    8   10 1    
    17   10   15 ar   
    18   10   11 ar   
    19   11   12 ar   
    20   11   34 1    
    21   12   13 ar   
    22   12   35 1    
    23   13   14 ar   
    24   13   36 1    
    25   14   15 ar   
    26   14   37 1    
    27   15   38 1    
    28   16   17 1    
    29   16   39 1    
    30   17   18 1    
    31   17   19 1    
    32   17   20 1    
    33   18   40 1    
    34   18   41 1    
    35   18   42 1    
    36   19   43 1    
    37   19   44 1    
    38   19   45 1    
    39   20   46 1    
    40   20   47 1    
    41   20   48 1    
    42   21   22 2    
    43   21   23 am   BACKBONE|DICT|INTERRES
    44   23   24 1    
    45   23   49 1    
    46   24   29 1    
    47   24   25 1    
    48   24   50 1    
    49   25   26 1    
    50   25   51 1    
    51   25   52 1    
    52   26   27 1    
    53   26   53 1    
    54   26   54 1    
    55   27   28 1    
    56   27   30 1    
    57   27   62 1    
    58   28   29 1    
    59   28   55 1    
    60   28   56 1    
    61   29   57 1    
    62   29   58 1    
    63   30   59 1    
    64   30   60 1    
    65   30   61 1    
@<TRIPOS>SUBSTRUCTURE
     1 UNK         1 GROUP             0       ****    0 ROOT    
