ZINC22938251_6059
                    3D
 Schrodinger Suite 2024-2.
 61 65  0  0  1  0            999 V2000
    2.2422   52.1332   16.9840 C   0  0  0  0  0  0
    2.1771   51.6803   18.4565 N   0  3  0  0  0  0
    3.3024   52.3362   19.2736 C   0  0  0  0  0  0
    3.2152   51.7481   20.6909 C   0  0  0  0  0  0
    1.9733   52.2128   21.3551 N   0  0  0  0  0  0
    0.8291   51.6344   20.6127 C   0  0  0  0  0  0
    0.8231   52.0438   19.1121 C   0  0  0  0  0  0
    2.0184   51.9505   22.8242 C   0  0  2  0  0  0
    2.5637   51.0122   22.9454 H   0  0  0  0  0  0
    0.6475   51.6909   23.4664 C   0  0  0  0  0  0
   -0.2491   52.7404   23.6814 C   0  0  0  0  0  0
   -1.4993   52.4909   24.2392 C   0  0  0  0  0  0
   -1.8519   51.1914   24.5980 C   0  0  0  0  0  0
   -0.9606   50.1367   24.3870 C   0  0  0  0  0  0
    0.2857   50.3870   23.8203 C   0  0  0  0  0  0
   -3.4300   50.9294   25.3562 S   0  0  0  0  0  0
   -3.5353   49.1975   25.8916 C   0  0  0  0  0  0
    2.8420   53.0180   23.5861 C   0  0  0  0  0  0
    2.9039   53.4778   24.9227 C   0  0  0  0  0  0
    4.1622   54.2002   25.0355 C   0  0  0  0  0  0
    4.8949   54.8961   26.0182 C   0  0  0  0  0  0
    6.1549   55.4106   25.7027 C   0  0  0  0  0  0
    6.6973   55.2858   24.4281 C   0  0  0  0  0  0
    6.0072   54.6139   23.4233 C   0  0  0  0  0  0
    4.7493   54.0989   23.7574 C   0  0  0  0  0  0
    3.9434   53.4399   22.9001 O   0  0  0  0  0  0
    1.9774   53.1891   25.9304 N   0  0  0  0  0  0
    2.2133   53.0897   27.2625 C   0  0  0  0  0  0
    3.2978   53.2655   27.8143 O   0  0  0  0  0  0
    1.0653   52.7199   28.0496 C   0  0  0  0  0  0
   -0.0529   51.9782   27.6685 C   0  0  0  0  0  0
   -0.9137   51.6940   28.7311 C   0  0  0  0  0  0
   -0.4465   52.1727   29.9440 C   0  0  0  0  0  0
    1.0616   53.0052   29.7734 S   0  0  0  0  0  0
    2.1435   53.2197   16.9483 H   0  0  0  0  0  0
    3.2082   51.8025   16.5936 H   0  0  0  0  0  0
    1.4288   51.6361   16.4538 H   0  0  0  0  0  0
    4.2551   52.0966   18.8008 H   0  0  0  0  0  0
    3.1697   53.4210   19.2572 H   0  0  0  0  0  0
    4.1225   52.0423   21.2089 H   0  0  0  0  0  0
    3.2450   50.6565   20.6645 H   0  0  0  0  0  0
    0.9109   50.5477   20.6832 H   0  0  0  0  0  0
   -0.1226   51.9417   21.0456 H   0  0  0  0  0  0
    0.0635   51.4841   18.5636 H   0  0  0  0  0  0
    0.6734   53.1178   18.9784 H   0  0  0  0  0  0
    0.0361   53.7451   23.4148 H   0  0  0  0  0  0
   -2.1895   53.3034   24.4088 H   0  0  0  0  0  0
   -1.2124   49.1246   24.6631 H   0  0  0  0  0  0
    0.9698   49.5642   23.6649 H   0  0  0  0  0  0
   -4.4214   49.0486   26.5082 H   0  0  0  0  0  0
   -3.6024   48.5341   25.0301 H   0  0  0  0  0  0
   -2.6624   48.9200   26.4818 H   0  0  0  0  0  0
    4.5070   55.0577   27.0098 H   0  0  0  0  0  0
    6.7046   55.9408   26.4655 H   0  0  0  0  0  0
    7.6494   55.7415   24.2133 H   0  0  0  0  0  0
    6.4122   54.5131   22.4274 H   0  0  0  0  0  0
    1.0644   52.8969   25.6156 H   0  0  0  0  0  0
   -0.2308   51.6259   26.6664 H   0  0  0  0  0  0
   -1.8203   51.1130   28.6255 H   0  0  0  0  0  0
   -0.8956   52.0485   30.9205 H   0  0  0  0  0  0
    2.3285   50.6785   18.4839 H   0  0  0  0  0  0
  1  2  1  0  0  0
  1 35  1  0  0  0
  1 36  1  0  0  0
  1 37  1  0  0  0
  2  7  1  0  0  0
  2  3  1  0  0  0
  2 61  1  0  0  0
  3  4  1  0  0  0
  3 38  1  0  0  0
  3 39  1  0  0  0
  4  5  1  0  0  0
  4 40  1  0  0  0
  4 41  1  0  0  0
  5  6  1  0  0  0
  5  8  1  0  0  0
  6  7  1  0  0  0
  6 42  1  0  0  0
  6 43  1  0  0  0
  7 44  1  0  0  0
  7 45  1  0  0  0
  8  9  1  0  0  0
  8 10  1  0  0  0
  8 18  1  0  0  0
 10 15  2  0  0  0
 10 11  1  0  0  0
 11 12  2  0  0  0
 11 46  1  0  0  0
 12 13  1  0  0  0
 12 47  1  0  0  0
 13 14  2  0  0  0
 13 16  1  0  0  0
 14 15  1  0  0  0
 14 48  1  0  0  0
 15 49  1  0  0  0
 16 17  1  0  0  0
 17 50  1  0  0  0
 17 51  1  0  0  0
 17 52  1  0  0  0
 18 26  1  0  0  0
 18 19  2  0  0  0
 19 20  1  0  0  0
 19 27  1  0  0  0
 20 25  2  0  0  0
 20 21  1  0  0  0
 21 22  2  0  0  0
 21 53  1  0  0  0
 22 23  1  0  0  0
 22 54  1  0  0  0
 23 24  2  0  0  0
 23 55  1  0  0  0
 24 25  1  0  0  0
 24 56  1  0  0  0
 25 26  1  0  0  0
 27 28  1  0  0  0
 27 57  1  0  0  0
 28 29  2  0  0  0
 28 30  1  0  0  0
 30 34  1  0  0  0
 30 31  2  0  0  0
 31 32  1  0  0  0
 31 58  1  0  0  0
 32 33  2  0  0  0
 32 59  1  0  0  0
 33 34  1  0  0  0
 33 60  1  0  0  0
M  CHG  1   2   1
M  END
> <i_i_glide_confnum>
54

> <i_i_glide_lignum>
6060

> <i_i_glide_posenum>
283

> <i_i_glide_rotatable_bonds>
7

> <i_m_Source_File_Index>
3865

> <b_m_subgroup_collapsed>
0

> <r_i_docking_score>
-5.04673

> <r_i_glide_ecoul>
-3.54707

> <r_i_glide_eff_state_penalty>
0

> <r_i_glide_einternal>
4.96502

> <r_i_glide_emodel>
-57.59

> <r_i_glide_energy>
-43.5561

> <r_i_glide_erotb>
0.530739

> <r_i_glide_esite>
-0.0524856

> <r_i_glide_evdw>
-40.009

> <r_i_glide_gscore>
-5.04673

> <r_i_glide_hbond>
0

> <r_i_glide_ligand_efficiency>
-0.152931

> <r_i_glide_ligand_efficiency_ln>
-1.12237

> <r_i_glide_ligand_efficiency_sa>
-0.490532

> <r_i_glide_lipo>
-2.52145

> <r_i_glide_metal>
0

> <r_i_glide_rewards>
-0.471019

> <s_i_glide_gridfile>
wee1_glide-grid

> <s_m_Source_File>
wee1_decoys_glide_SP.sdf

> <s_m_Source_Path>
/Users/zhangxujun/Desktop

> <s_m_entry_id>
4140

> <s_m_entry_name>
wee1_decoys_glide_SP.3865

> <s_m_subgroup_title>
wee1_decoys_glide_SP

> <s_m_subgroupid>
wee1_decoys_glide_SP


$$$$
