ZINC07739930_6206
                    3D
 Schrodinger Suite 2024-2.
 51 53  0  0  1  0            999 V2000
    5.5441   54.5691   27.8641 C   0  0  0  0  0  0
    6.2789   54.7672   26.6639 O   0  0  0  0  0  0
    5.6666   54.5123   25.4524 C   0  0  0  0  0  0
    6.4727   54.6091   24.3247 C   0  0  0  0  0  0
    5.9707   54.3358   23.0590 C   0  0  0  0  0  0
    4.6275   53.9758   22.8818 C   0  0  0  0  0  0
    3.7866   53.9058   24.0091 C   0  0  0  0  0  0
    4.3172   54.1672   25.2858 C   0  0  0  0  0  0
    2.4619   53.5671   23.7929 O   0  0  0  0  0  0
    1.6203   53.2628   24.9003 C   0  0  0  0  0  0
    4.0463   53.6582   21.4915 C   0  0  2  0  0  0
    3.2817   54.4102   21.2810 H   0  0  0  0  0  0
    3.4238   52.2624   21.2994 C   0  0  0  0  0  0
    3.9006   51.7334   19.9494 C   0  0  0  0  0  0
    4.4807   52.9245   19.2022 C   0  0  0  0  0  0
    5.0545   53.8183   20.3216 N   0  3  1  0  0  0
    5.2945   55.2962   19.9167 C   0  0  0  0  0  0
    6.7468   55.5688   19.5107 C   0  0  0  0  0  0
    7.3180   56.4980   20.0805 O   0  0  0  0  0  0
    7.3062   54.7729   18.5713 N   0  0  0  0  0  0
    8.5702   54.8982   17.9816 C   0  0  0  0  0  0
    9.2352   53.9131   17.2176 C   0  0  0  0  0  0
   10.4957   54.3824   16.7779 C   0  0  0  0  0  0
   10.7876   55.6752   17.1719 C   0  0  0  0  0  0
    9.5050   56.3777   18.0819 S   0  0  0  0  0  0
    8.6794   52.6115   16.8819 C   0  0  0  0  0  0
    7.5043   52.3305   17.0987 O   0  0  0  0  0  0
    9.5055   51.7250   16.3219 N   0  0  0  0  0  0
    6.1925   54.7649   28.7183 H   0  0  0  0  0  0
    4.6995   55.2537   27.9308 H   0  0  0  0  0  0
    5.1902   53.5405   27.9529 H   0  0  0  0  0  0
    7.5050   54.8919   24.4379 H   0  0  0  0  0  0
    6.6564   54.4178   22.2319 H   0  0  0  0  0  0
    3.6830   54.1004   26.1540 H   0  0  0  0  0  0
    0.6274   52.9970   24.5349 H   0  0  0  0  0  0
    2.0017   52.4115   25.4646 H   0  0  0  0  0  0
    1.5047   54.1112   25.5720 H   0  0  0  0  0  0
    2.3344   52.3218   21.3294 H   0  0  0  0  0  0
    3.7343   51.5700   22.0816 H   0  0  0  0  0  0
    3.0984   51.2617   19.3792 H   0  0  0  0  0  0
    4.6736   50.9750   20.0819 H   0  0  0  0  0  0
    3.7092   53.5062   18.6948 H   0  0  0  0  0  0
    5.2643   52.6758   18.4842 H   0  0  0  0  0  0
    5.1044   55.8590   20.8279 H   0  0  0  0  0  0
    4.5662   55.5846   19.1568 H   0  0  0  0  0  0
    6.8019   53.9453   18.2814 H   0  0  0  0  0  0
   11.1812   53.8032   16.1757 H   0  0  0  0  0  0
   11.6804   56.2482   16.9690 H   0  0  0  0  0  0
   10.4906   51.9157   16.2188 H   0  0  0  0  0  0
    9.1430   50.8179   16.0682 H   0  0  0  0  0  0
    5.9263   53.4116   20.6279 H   0  0  0  0  0  0
  1  2  1  0  0  0
  1 29  1  0  0  0
  1 30  1  0  0  0
  1 31  1  0  0  0
  2  3  1  0  0  0
  3  8  2  0  0  0
  3  4  1  0  0  0
  4  5  2  0  0  0
  4 32  1  0  0  0
  5  6  1  0  0  0
  5 33  1  0  0  0
  6  7  2  0  0  0
  6 11  1  0  0  0
  7  8  1  0  0  0
  7  9  1  0  0  0
  8 34  1  0  0  0
  9 10  1  0  0  0
 10 35  1  0  0  0
 10 36  1  0  0  0
 10 37  1  0  0  0
 11 12  1  0  0  0
 11 16  1  0  0  0
 11 13  1  0  0  0
 13 14  1  0  0  0
 13 38  1  0  0  0
 13 39  1  0  0  0
 14 15  1  0  0  0
 14 40  1  0  0  0
 14 41  1  0  0  0
 15 16  1  0  0  0
 15 42  1  0  0  0
 15 43  1  0  0  0
 16 17  1  0  0  0
 16 51  1  0  0  0
 17 18  1  0  0  0
 17 44  1  0  0  0
 17 45  1  0  0  0
 18 19  2  0  0  0
 18 20  1  0  0  0
 20 21  1  0  0  0
 20 46  1  0  0  0
 21 25  1  0  0  0
 21 22  2  0  0  0
 22 23  1  0  0  0
 22 26  1  0  0  0
 23 24  2  0  0  0
 23 47  1  0  0  0
 24 25  1  0  0  0
 24 48  1  0  0  0
 26 27  2  0  0  0
 26 28  1  0  0  0
 28 49  1  0  0  0
 28 50  1  0  0  0
M  CHG  1  16   1
M  END
> <i_i_glide_confnum>
25

> <i_i_glide_lignum>
6207

> <i_i_glide_posenum>
395

> <i_i_glide_rotatable_bonds>
8

> <i_m_Source_File_Index>
5009

> <b_m_subgroup_collapsed>
0

> <r_i_docking_score>
-5.51044

> <r_i_glide_ecoul>
-4.16382

> <r_i_glide_eff_state_penalty>
0

> <r_i_glide_einternal>
14.1951

> <r_i_glide_emodel>
-48.2004

> <r_i_glide_energy>
-39.7514

> <r_i_glide_erotb>
0.639618

> <r_i_glide_esite>
0

> <r_i_glide_evdw>
-35.5876

> <r_i_glide_gscore>
-5.51044

> <r_i_glide_hbond>
-0.202846

> <r_i_glide_ligand_efficiency>
-0.20409

> <r_i_glide_ligand_efficiency_ln>
-1.28274

> <r_i_glide_ligand_efficiency_sa>
-0.612271

> <r_i_glide_lipo>
-2.52638

> <r_i_glide_metal>
0

> <r_i_glide_rewards>
-1.01688

> <s_i_glide_gridfile>
wee1_glide-grid

> <s_m_Source_File>
wee1_decoys_glide_SP.sdf

> <s_m_Source_Path>
/Users/zhangxujun/Desktop

> <s_m_entry_id>
5284

> <s_m_entry_name>
wee1_decoys_glide_SP.5009

> <s_m_subgroup_title>
wee1_decoys_glide_SP

> <s_m_subgroupid>
wee1_decoys_glide_SP


$$$$
