ZINC09238284_5181
                    3D
 Schrodinger Suite 2024-2.
 52 56  0  0  1  0            999 V2000
    7.2845   51.7162   14.2013 C   0  0  0  0  0  0
    8.4865   52.0026   14.8423 C   0  0  0  0  0  0
    8.4780   52.7339   16.0273 C   0  0  0  0  0  0
    7.2679   53.1719   16.5793 C   0  0  0  0  0  0
    6.0653   52.8856   15.9185 C   0  0  0  0  0  0
    6.0750   52.1552   14.7333 C   0  0  0  0  0  0
    7.2941   53.9611   17.8526 C   0  0  0  0  0  0
    8.2353   54.8357   18.1335 N   0  0  0  0  0  0
    7.9165   55.4257   19.3497 N   0  0  0  0  0  0
    6.7935   54.8971   19.7586 C   0  0  0  0  0  0
    6.3374   53.9643   18.8526 N   0  0  0  0  0  0
    5.1919   53.1661   18.9314 N   0  0  0  0  0  0
    4.7207   52.8977   20.2957 C   0  0  1  0  0  0
    5.5087   52.3652   20.8290 H   0  0  0  0  0  0
    4.4746   54.2508   21.0410 C   0  0  2  0  0  0
    3.8207   54.8550   20.4244 H   0  0  0  0  0  0
    5.9966   55.2597   21.2817 S   0  0  0  0  0  0
    3.7346   54.0971   22.4092 C   0  0  0  0  0  0
    2.5101   53.9857   22.3984 O   0  0  0  0  0  0
    4.4496   54.1159   23.5541 N   0  0  0  0  0  0
    4.0086   54.0956   24.8991 C   0  0  0  0  0  0
    2.7145   53.6946   25.2829 C   0  0  0  0  0  0
    2.3419   53.6665   26.6245 C   0  0  0  0  0  0
    3.2520   54.0335   27.6081 C   0  0  0  0  0  0
    4.5363   54.4305   27.2457 C   0  0  0  0  0  0
    4.9290   54.4702   25.9008 C   0  0  0  0  0  0
    6.3546   54.9151   25.5549 C   0  0  0  0  0  0
    6.3057   56.0747   24.9014 F   0  0  0  0  0  0
    7.1042   55.0831   26.6420 F   0  0  0  0  0  0
    6.9646   54.0187   24.7785 F   0  0  0  0  0  0
    3.5022   51.9602   20.2926 C   0  0  0  0  0  0
    3.3956   50.9811   21.2812 C   0  0  0  0  0  0
    2.2936   50.1331   21.3211 C   0  0  0  0  0  0
    1.2909   50.2640   20.3620 C   0  0  0  0  0  0
    1.3806   51.2404   19.3725 C   0  0  0  0  0  0
    2.4809   52.0937   19.3421 C   0  0  0  0  0  0
    7.2924   51.1438   13.2830 H   0  0  0  0  0  0
    9.4209   51.6570   14.4270 H   0  0  0  0  0  0
    9.4133   52.9529   16.5221 H   0  0  0  0  0  0
    5.1201   53.2285   16.3103 H   0  0  0  0  0  0
    5.1479   51.9298   14.2282 H   0  0  0  0  0  0
    5.4083   52.2711   18.4928 H   0  0  0  0  0  0
    5.4427   54.2545   23.4413 H   0  0  0  0  0  0
    1.9792   53.3654   24.5678 H   0  0  0  0  0  0
    1.3479   53.3460   26.9019 H   0  0  0  0  0  0
    2.9624   54.0077   28.6470 H   0  0  0  0  0  0
    5.2213   54.7121   28.0344 H   0  0  0  0  0  0
    4.1634   50.8981   22.0319 H   0  0  0  0  0  0
    2.2156   49.3812   22.0936 H   0  0  0  0  0  0
    0.4377   49.6039   20.3869 H   0  0  0  0  0  0
    0.5981   51.3400   18.6333 H   0  0  0  0  0  0
    2.5342   52.8597   18.5805 H   0  0  0  0  0  0
  1  6  2  0  0  0
  1  2  1  0  0  0
  1 37  1  0  0  0
  2  3  2  0  0  0
  2 38  1  0  0  0
  3  4  1  0  0  0
  3 39  1  0  0  0
  4  5  2  0  0  0
  4  7  1  0  0  0
  5  6  1  0  0  0
  5 40  1  0  0  0
  6 41  1  0  0  0
  7 11  1  0  0  0
  7  8  2  0  0  0
  8  9  1  0  0  0
  9 10  2  0  0  0
 10 17  1  0  0  0
 10 11  1  0  0  0
 11 12  1  0  0  0
 12 13  1  0  0  0
 12 42  1  0  0  0
 13 14  1  0  0  0
 13 15  1  0  0  0
 13 31  1  0  0  0
 15 16  1  0  0  0
 15 17  1  0  0  0
 15 18  1  0  0  0
 18 19  2  0  0  0
 18 20  1  0  0  0
 20 21  1  0  0  0
 20 43  1  0  0  0
 21 26  2  0  0  0
 21 22  1  0  0  0
 22 23  2  0  0  0
 22 44  1  0  0  0
 23 24  1  0  0  0
 23 45  1  0  0  0
 24 25  2  0  0  0
 24 46  1  0  0  0
 25 26  1  0  0  0
 25 47  1  0  0  0
 26 27  1  0  0  0
 27 28  1  0  0  0
 27 29  1  0  0  0
 27 30  1  0  0  0
 31 36  2  0  0  0
 31 32  1  0  0  0
 32 33  2  0  0  0
 32 48  1  0  0  0
 33 34  1  0  0  0
 33 49  1  0  0  0
 34 35  2  0  0  0
 34 50  1  0  0  0
 35 36  1  0  0  0
 35 51  1  0  0  0
 36 52  1  0  0  0
M  END
> <i_i_glide_confnum>
47

> <i_i_glide_lignum>
5182

> <i_i_glide_posenum>
375

> <i_i_glide_rotatable_bonds>
6

> <i_m_Source_File_Index>
4473

> <b_m_subgroup_collapsed>
0

> <r_i_docking_score>
-5.73116

> <r_i_glide_ecoul>
-2.74035

> <r_i_glide_eff_state_penalty>
0

> <r_i_glide_einternal>
4.31277

> <r_i_glide_emodel>
-57.5803

> <r_i_glide_energy>
-43.8258

> <r_i_glide_erotb>
0.437522

> <r_i_glide_esite>
-0.111189

> <r_i_glide_evdw>
-41.0855

> <r_i_glide_gscore>
-5.73116

> <r_i_glide_hbond>
-0.16

> <r_i_glide_ligand_efficiency>
-0.168563

> <r_i_glide_ligand_efficiency_ln>
-1.26617

> <r_i_glide_ligand_efficiency_sa>
-0.54608

> <r_i_glide_lipo>
-2.1867

> <r_i_glide_metal>
0

> <r_i_glide_rewards>
-1.24546

> <s_i_glide_gridfile>
wee1_glide-grid

> <s_m_Source_File>
wee1_decoys_glide_SP.sdf

> <s_m_Source_Path>
/Users/zhangxujun/Desktop

> <s_m_entry_id>
4748

> <s_m_entry_name>
wee1_decoys_glide_SP.4473

> <s_m_subgroup_title>
wee1_decoys_glide_SP

> <s_m_subgroupid>
wee1_decoys_glide_SP


$$$$
