@<TRIPOS>MOLECULE
ZINC13547198_3578
47   49    1
SMALL
USER_CHARGES


@<TRIPOS>ATOM
      1 C1          1.4454   54.4723   29.1105 C.3       1 UNK         0.0000 
      2 C2          2.7044   55.3082   28.8442 C.3       1 UNK         0.0000 
      3 C3          3.9712   54.4349   28.7445 C.3       1 UNK         0.0000 
      4 C4          3.8560   53.2971   27.6882 C.3       1 UNK         0.0000 
      5 C5          2.5620   52.4967   28.0009 C.3       1 UNK         0.0000 
      6 C6          1.2921   53.3611   28.0609 C.3       1 UNK         0.0000 
      7 N7          3.9693   53.7231   26.2709 N.am      1 UNK         0.0000 
      8 C8          5.1017   54.2224   25.7237 C.2       1 UNK         0.0000 
      9 O9          6.0785   54.4998   26.4253 O.2       1 UNK         0.0000 
     10 C10         5.1735   54.3514   24.2640 C.2       1 UNK         0.0000 
     11 C11         6.1332   54.9545   23.5231 C.2       1 UNK         0.0000 
     12 N12         6.0719   54.8911   22.1420 N.pl3     1 UNK         0.0000 
     13 C13         5.0720   54.0450   21.7330 C.2       1 UNK         0.0000 
     14 S14         4.7044   53.3812   20.2490 S.2       1 UNK         0.0000 
     15 S15         4.0267   53.6967   23.1003 S.3       1 UNK         0.0000 
     16 C16         6.8487   55.7666   21.1730 C.3       1 UNK         0.0000 
     17 C17         8.0647   55.2114   20.4029 C.3       1 UNK         0.0000 
     18 C18         8.7571   56.1340   19.3855 C.3       1 UNK         0.0000 
     19 C19         7.7650   56.7902   18.4249 C.3       1 UNK         0.0000 
     20 C20         6.7044   57.5578   19.2129 C.3       1 UNK         0.0000 
     21 C21         6.0006   56.6713   20.2608 C.3       1 UNK         0.0000 
     22 N22         7.1044   55.6967   24.1175 N.pl3     1 UNK         0.0000 
     23 H23         0.5690   55.1150   29.1068 H         1 UNK         0.0000 
     24 H24         1.4962   54.0332   30.1082 H         1 UNK         0.0000 
     25 H25         2.5656   55.8445   27.9078 H         1 UNK         0.0000 
     26 H26         2.8229   56.0668   29.6188 H         1 UNK         0.0000 
     27 H27         4.8393   55.0645   28.5520 H         1 UNK         0.0000 
     28 H28         4.1674   53.9887   29.7206 H         1 UNK         0.0000 
     29 H29         4.7022   52.6242   27.8544 H         1 UNK         0.0000 
     30 H30         2.6852   51.9858   28.9573 H         1 UNK         0.0000 
     31 H31         2.4116   51.6967   27.2817 H         1 UNK         0.0000 
     32 H32         1.1044   53.7980   27.0797 H         1 UNK         0.0000 
     33 H33         0.4254   52.7410   28.2953 H         1 UNK         0.0000 
     34 H34         3.1729   53.5582   25.6753 H         1 UNK         0.0000 
     35 H35         7.3501   56.4967   21.8052 H         1 UNK         0.0000 
     36 H36         8.8180   54.8967   21.1218 H         1 UNK         0.0000 
     37 H37         7.7346   54.3612   19.8086 H         1 UNK         0.0000 
     38 H38         9.3320   56.8967   19.9101 H         1 UNK         0.0000 
     39 H39         9.4936   55.5619   18.8184 H         1 UNK         0.0000 
     40 H40         8.2868   57.4614   17.7413 H         1 UNK         0.0000 
     41 H41         7.2883   56.0276   17.8063 H         1 UNK         0.0000 
     42 H42         7.1447   58.4344   19.6817 H         1 UNK         0.0000 
     43 H43         5.9616   57.9599   18.5212 H         1 UNK         0.0000 
     44 H44         5.2663   56.0988   19.6988 H         1 UNK         0.0000 
     45 H45         5.5044   57.2967   20.9731 H         1 UNK         0.0000 
     46 H46         7.0751   55.7620   25.1256 H         1 UNK         0.0000 
     47 H47         8.0169   55.7972   23.6817 H         1 UNK         0.0000 
@<TRIPOS>BOND
     1    1    6 1    
     2    1    2 1    
     3    1   23 1    
     4    1   24 1    
     5    2    3 1    
     6    2   25 1    
     7    2   26 1    
     8    3    4 1    
     9    3   27 1    
    10    3   28 1    
    11    4    5 1    
    12    4    7 1    
    13    4   29 1    
    14    5    6 1    
    15    5   30 1    
    16    5   31 1    
    17    6   32 1    
    18    6   33 1    
    19    7    8 am   BACKBONE|DICT|INTERRES
    20    7   34 1    
    21    8    9 2    
    22    8   10 1    
    23   10   15 1    
    24   10   11 2    
    25   11   12 1    
    26   11   22 1    
    27   12   13 1    
    28   12   16 1    
    29   13   14 2    
    30   13   15 1    
    31   16   21 1    
    32   16   17 1    
    33   16   35 1    
    34   17   18 1    
    35   17   36 1    
    36   17   37 1    
    37   18   19 1    
    38   18   38 1    
    39   18   39 1    
    40   19   20 1    
    41   19   40 1    
    42   19   41 1    
    43   20   21 1    
    44   20   42 1    
    45   20   43 1    
    46   21   44 1    
    47   21   45 1    
    48   22   46 1    
    49   22   47 1    
@<TRIPOS>SUBSTRUCTURE
     1 UNK         1 GROUP             0       ****    0 ROOT    
