@<TRIPOS>MOLECULE
ZINC26127808_3223
53   56    1
SMALL
USER_CHARGES


@<TRIPOS>ATOM
      1 C1          6.6366   54.3732   24.4569 C.3       1 UNK         0.0000 
      2 C2          5.4685   54.2331   25.4168 C.ar      1 UNK         0.0000 
      3 C3          5.7009   54.1155   26.7833 C.ar      1 UNK         0.0000 
      4 C4          4.6388   54.0013   27.6849 C.ar      1 UNK         0.0000 
      5 C5          3.2981   54.0168   27.2221 C.ar      1 UNK         0.0000 
      6 C6          3.0812   54.0968   25.8243 C.ar      1 UNK         0.0000 
      7 C7          4.1587   54.2104   24.9447 C.ar      1 UNK         0.0000 
      8 Cl8         1.5046   54.0961   25.1049 Cl        1 UNK         0.0000 
      9 N9          2.2051   53.9879   28.1630 N.am      1 UNK         0.0000 
     10 C10         1.3308   52.8676   28.1239 C.2       1 UNK         0.0000 
     11 N11         1.4797   51.8507   27.2945 N.2       1 UNK         0.0000 
     12 C12         0.4810   50.9853   27.3282 C.2       1 UNK         0.0000 
     13 C13        -0.5179   51.2953   28.2355 C.2       1 UNK         0.0000 
     14 S14        -0.1094   52.7124   29.0968 S.3       1 UNK         0.0000 
     15 C15         0.5299   49.7781   26.4032 C.3       1 UNK         0.0000 
     16 S16         0.1722   50.1513   24.6531 S.3       1 UNK         0.0000 
     17 C17        -1.2529   51.1801   24.8477 C.ar      1 UNK         0.0000 
     18 N18        -1.3664   52.3588   24.2860 N.2       1 UNK         0.0000 
     19 N19        -2.6261   52.8568   24.5981 N.2       1 UNK         0.0000 
     20 C20        -3.2376   51.9490   25.3200 C.ar      1 UNK         0.0000 
     21 N21        -2.4346   50.8346   25.4743 N.pl3     1 UNK         0.0000 
     22 N22        -2.7561   49.6264   26.0818 N.3       1 UNK         0.0000 
     23 C23        -4.6015   52.1056   25.8215 C.2       1 UNK         0.0000 
     24 C24        -5.6870   52.6256   25.1049 C.2       1 UNK         0.0000 
     25 C25        -6.7858   52.5959   25.9410 C.2       1 UNK         0.0000 
     26 O26        -6.4282   52.1001   27.1493 O.3       1 UNK         0.0000 
     27 C27        -5.1009   51.8134   27.0920 C.2       1 UNK         0.0000 
     28 C28        -4.4902   51.2855   28.3674 C.3       1 UNK         0.0000 
     29 C29         2.0727   55.0590   29.0287 C.2       1 UNK         0.0000 
     30 O30         2.7039   56.0968   28.8833 O.2       1 UNK         0.0000 
     31 C31         1.2261   55.0601   30.3072 C.3       1 UNK         0.0000 
     32 C32         4.9933   53.8225   29.1537 C.3       1 UNK         0.0000 
     33 H33         6.3093   54.5364   23.4289 H         1 UNK         0.0000 
     34 H34         7.2627   53.4806   24.4857 H         1 UNK         0.0000 
     35 H35         7.2618   55.2183   24.7469 H         1 UNK         0.0000 
     36 H36         6.7175   54.1131   27.1495 H         1 UNK         0.0000 
     37 H37         3.9682   54.2868   23.8838 H         1 UNK         0.0000 
     38 H38        -1.4076   50.7309   28.4706 H         1 UNK         0.0000 
     39 H39         1.5041   49.2978   26.4264 H         1 UNK         0.0000 
     40 H40        -0.1181   48.9763   26.7420 H         1 UNK         0.0000 
     41 H41        -2.7479   48.8629   25.4232 H         1 UNK         0.0000 
     42 H42        -2.2050   49.4306   26.9160 H         1 UNK         0.0000 
     43 H43        -5.6721   52.9736   24.0825 H         1 UNK         0.0000 
     44 H44        -7.8211   52.8794   25.8234 H         1 UNK         0.0000 
     45 H45        -3.4633   51.6275   28.4808 H         1 UNK         0.0000 
     46 H46        -5.0332   51.6193   29.2508 H         1 UNK         0.0000 
     47 H47        -4.4779   50.1958   28.3878 H         1 UNK         0.0000 
     48 H48         1.3616   54.1439   30.8806 H         1 UNK         0.0000 
     49 H49         1.5185   55.8882   30.9551 H         1 UNK         0.0000 
     50 H50         0.1758   55.2143   30.0844 H         1 UNK         0.0000 
     51 H51         4.2920   53.1557   29.6559 H         1 UNK         0.0000 
     52 H52         5.9731   53.3574   29.2543 H         1 UNK         0.0000 
     53 H53         5.0086   54.7826   29.6705 H         1 UNK         0.0000 
@<TRIPOS>BOND
     1    1    2 1    
     2    1   33 1    
     3    1   34 1    
     4    1   35 1    
     5    2    7 ar   
     6    2    3 ar   
     7    3    4 ar   
     8    3   36 1    
     9    4    5 ar   
    10    4   32 1    
    11    5    6 ar   
    12    5    9 1    
    13    6    7 ar   
    14    6    8 1    
    15    7   37 1    
    16    9   10 am   BACKBONE|DICT|INTERRES
    17    9   29 am   BACKBONE|DICT|INTERRES
    18   10   14 1    
    19   10   11 2    
    20   11   12 1    
    21   12   13 2    
    22   12   15 1    
    23   13   14 1    
    24   13   38 1    
    25   15   16 1    
    26   15   39 1    
    27   15   40 1    
    28   16   17 1    
    29   17   21 ar   
    30   17   18 ar   
    31   18   19 ar   
    32   19   20 ar   
    33   20   21 ar   
    34   20   23 1    
    35   21   22 1    
    36   22   41 1    
    37   22   42 1    
    38   23   27 2    
    39   23   24 1    
    40   24   25 2    
    41   24   43 1    
    42   25   26 1    
    43   25   44 1    
    44   26   27 1    
    45   27   28 1    
    46   28   45 1    
    47   28   46 1    
    48   28   47 1    
    49   29   30 2    
    50   29   31 1    
    51   31   48 1    
    52   31   49 1    
    53   31   50 1    
    54   32   51 1    
    55   32   52 1    
    56   32   53 1    
@<TRIPOS>SUBSTRUCTURE
     1 UNK         1 GROUP             0       ****    0 ROOT    
