@<TRIPOS>MOLECULE
ZINC40149602_138
54   56    1
SMALL
USER_CHARGES


@<TRIPOS>ATOM
      1 C1          6.6798   54.6967   27.2778 C.3       1 UNK         0.0000 
      2 C2          5.3769   54.4533   26.5549 C.ar      1 UNK         0.0000 
      3 C3          5.2876   54.6372   25.1761 C.ar      1 UNK         0.0000 
      4 C4          4.0925   54.3672   24.5146 C.ar      1 UNK         0.0000 
      5 C5          2.9806   53.8932   25.2174 C.ar      1 UNK         0.0000 
      6 C6          3.0690   53.6963   26.6105 C.ar      1 UNK         0.0000 
      7 C7          4.2709   53.9998   27.2685 C.ar      1 UNK         0.0000 
      8 N8          1.9487   53.1703   27.2824 N.am      1 UNK         0.0000 
      9 C9          1.8966   52.4858   28.4495 C.2       1 UNK         0.0000 
     10 O10         2.8607   52.2680   29.1825 O.2       1 UNK         0.0000 
     11 C11         0.5447   51.9059   28.8945 C.3       1 UNK         0.0000 
     12 N12        -0.5196   51.7913   27.7631 N.4       1 UNK         0.0000 
     13 C13        -0.1358   50.6858   26.7414 C.3       1 UNK         0.0000 
     14 C14        -1.1979   50.6642   25.6266 C.3       1 UNK         0.0000 
     15 C15        -2.6010   50.3353   26.1742 C.3       1 UNK         0.0000 
     16 C16        -2.9607   51.2915   27.3431 C.3       1 UNK         0.0000 
     17 H17        -3.1635   52.2872   26.9431 H         1 UNK         0.0000 
     18 C18        -1.8603   51.4066   28.4282 C.3       1 UNK         0.0000 
     19 C19        -4.2834   50.8526   28.0023 C.2       1 UNK         0.0000 
     20 O20        -5.2682   51.5863   27.9086 O.2       1 UNK         0.0000 
     21 N21        -4.2568   49.6770   28.6687 N.am      1 UNK         0.0000 
     22 C22        -5.2736   49.0653   29.4169 C.ar      1 UNK         0.0000 
     23 C23        -4.8959   47.9338   30.1453 C.ar      1 UNK         0.0000 
     24 C24        -5.8464   47.2970   30.9447 C.ar      1 UNK         0.0000 
     25 C25        -7.1499   47.7882   30.9892 C.ar      1 UNK         0.0000 
     26 C26        -7.4639   48.9108   30.2232 C.ar      1 UNK         0.0000 
     27 N27        -6.5500   49.5485   29.4471 N.ar      1 UNK         0.0000 
     28 Br28       -8.4637   46.9471   32.0791 Br        1 UNK         0.0000 
     29 C29         1.7078   53.5845   24.4357 C.3       1 UNK         0.0000 
     30 H30         6.8124   53.9913   28.0992 H         1 UNK         0.0000 
     31 H31         7.5097   54.5432   26.5962 H         1 UNK         0.0000 
     32 H32         6.7061   55.7053   27.6815 H         1 UNK         0.0000 
     33 H33         6.1415   54.9836   24.6120 H         1 UNK         0.0000 
     34 H34         4.0406   54.5138   23.4452 H         1 UNK         0.0000 
     35 H35         4.3743   53.8797   28.3354 H         1 UNK         0.0000 
     36 H36         1.1030   53.2090   26.7399 H         1 UNK         0.0000 
     37 H37         0.6760   50.8968   29.2819 H         1 UNK         0.0000 
     38 H38         0.1211   52.5228   29.6891 H         1 UNK         0.0000 
     39 H39         0.8409   50.9237   26.3219 H         1 UNK         0.0000 
     40 H40        -0.0783   49.7351   27.2781 H         1 UNK         0.0000 
     41 H41        -1.2127   51.6246   25.1092 H         1 UNK         0.0000 
     42 H42        -0.9161   49.9241   24.8753 H         1 UNK         0.0000 
     43 H43        -3.3102   50.4253   25.3484 H         1 UNK         0.0000 
     44 H44        -2.5275   49.2984   26.5125 H         1 UNK         0.0000 
     45 H45        -1.6562   50.4967   28.9529 H         1 UNK         0.0000 
     46 H46        -2.0970   52.0967   29.2202 H         1 UNK         0.0000 
     47 H47        -3.3710   49.1824   28.6906 H         1 UNK         0.0000 
     48 H48        -3.8769   47.5695   30.1190 H         1 UNK         0.0000 
     49 H49        -5.5712   46.4430   31.5436 H         1 UNK         0.0000 
     50 H50        -8.4626   49.3211   30.2280 H         1 UNK         0.0000 
     51 H51         0.8555   54.0963   24.8786 H         1 UNK         0.0000 
     52 H52         1.7723   53.9060   23.3949 H         1 UNK         0.0000 
     53 H53         1.5022   52.5140   24.4548 H         1 UNK         0.0000 
     54 H54        -0.6230   52.6838   27.3017 H         1 UNK         0.0000 
@<TRIPOS>BOND
     1    1    2 1    
     2    1   30 1    
     3    1   31 1    
     4    1   32 1    
     5    2    7 ar   
     6    2    3 ar   
     7    3    4 ar   
     8    3   33 1    
     9    4    5 ar   
    10    4   34 1    
    11    5    6 ar   
    12    5   29 1    
    13    6    7 ar   
    14    6    8 1    
    15    7   35 1    
    16    8    9 am   BACKBONE|DICT|INTERRES
    17    8   36 1    
    18    9   10 2    
    19    9   11 1    
    20   11   12 1    
    21   11   37 1    
    22   11   38 1    
    23   12   18 1    
    24   12   13 1    
    25   12   54 1    
    26   13   14 1    
    27   13   39 1    
    28   13   40 1    
    29   14   15 1    
    30   14   41 1    
    31   14   42 1    
    32   15   16 1    
    33   15   43 1    
    34   15   44 1    
    35   16   17 1    
    36   16   18 1    
    37   16   19 1    
    38   18   45 1    
    39   18   46 1    
    40   19   20 2    
    41   19   21 am   BACKBONE|DICT|INTERRES
    42   21   22 1    
    43   21   47 1    
    44   22   27 ar   
    45   22   23 ar   
    46   23   24 ar   
    47   23   48 1    
    48   24   25 ar   
    49   24   49 1    
    50   25   26 ar   
    51   25   28 1    
    52   26   27 ar   
    53   26   50 1    
    54   29   51 1    
    55   29   52 1    
    56   29   53 1    
@<TRIPOS>SUBSTRUCTURE
     1 UNK         1 GROUP             0       ****    0 ROOT    
