ZINC00919797_1549
                    3D
 Schrodinger Suite 2024-2.
 45 48  0  0  1  0            999 V2000
    4.4605   54.1018   19.6406 C   0  0  0  0  0  0
    5.7412   54.7252   20.1513 C   0  0  0  0  0  0
    6.1816   54.8967   21.4789 C   0  0  0  0  0  0
    7.4000   55.5514   21.3596 C   0  0  0  0  0  0
    7.6274   55.6672   20.0167 N   0  0  0  0  0  0
    6.6227   55.1785   19.2845 N   0  0  0  0  0  0
    8.7889   56.2192   19.3465 C   0  0  0  0  0  0
    5.4866   54.4967   22.6068 N   0  0  0  0  0  0
    5.9239   54.4967   23.8879 C   0  0  0  0  0  0
    7.0748   54.7500   24.2539 O   0  0  0  0  0  0
    4.8894   54.1762   24.8513 C   0  0  0  0  0  0
    5.0872   54.0313   26.2369 C   0  0  0  0  0  0
    3.8530   53.7344   26.7816 C   0  0  0  0  0  0
    2.9704   53.7712   25.7153 N   0  0  0  0  0  0
    3.6065   54.0342   24.5660 N   0  0  0  0  0  0
    1.5071   53.6273   25.7656 C   0  0  2  0  0  0
    1.1088   54.4958   25.2421 H   0  0  0  0  0  0
    1.1044   53.6966   27.2631 C   0  0  0  0  0  0
    2.0744   52.9536   28.2033 C   0  0  1  0  0  0
    2.1536   51.9122   27.8853 H   0  0  0  0  0  0
    3.4074   53.5520   28.0785 N   0  0  0  0  0  0
    1.5771   52.9743   29.6325 C   0  0  0  0  0  0
    0.6088   53.7113   30.3040 C   0  0  0  0  0  0
    0.5592   53.2331   31.6075 C   0  0  0  0  0  0
    1.5047   52.2279   31.6817 C   0  0  0  0  0  0
    2.1506   52.0967   30.4953 O   0  0  0  0  0  0
    0.9049   52.4066   25.0171 C   0  0  0  0  0  0
   -0.3760   52.6359   24.7254 F   0  0  0  0  0  0
    1.5235   52.1429   23.8658 F   0  0  0  0  0  0
    0.9262   51.2966   25.7498 F   0  0  0  0  0  0
    3.7667   53.8579   20.4434 H   0  0  0  0  0  0
    3.9291   54.7691   18.9621 H   0  0  0  0  0  0
    4.6546   53.1773   19.0959 H   0  0  0  0  0  0
    8.1142   55.9100   22.0817 H   0  0  0  0  0  0
    9.5044   56.5841   20.0823 H   0  0  0  0  0  0
    8.4830   57.0426   18.6999 H   0  0  0  0  0  0
    9.2667   55.4413   18.7492 H   0  0  0  0  0  0
    4.5426   54.1754   22.4519 H   0  0  0  0  0  0
    6.0212   54.1262   26.7716 H   0  0  0  0  0  0
    1.0467   54.7416   27.5756 H   0  0  0  0  0  0
    0.0948   53.2973   27.3888 H   0  0  0  0  0  0
    4.0481   53.1622   28.7547 H   0  0  0  0  0  0
   -0.0081   54.4919   29.8885 H   0  0  0  0  0  0
   -0.0948   53.5676   32.4004 H   0  0  0  0  0  0
    1.8174   51.5710   32.4802 H   0  0  0  0  0  0
  1  2  1  0  0  0
  1 31  1  0  0  0
  1 32  1  0  0  0
  1 33  1  0  0  0
  2  6  2  0  0  0
  2  3  1  0  0  0
  3  4  2  0  0  0
  3  8  1  0  0  0
  4  5  1  0  0  0
  4 34  1  0  0  0
  5  6  1  0  0  0
  5  7  1  0  0  0
  7 35  1  0  0  0
  7 36  1  0  0  0
  7 37  1  0  0  0
  8  9  1  0  0  0
  8 38  1  0  0  0
  9 10  2  0  0  0
  9 11  1  0  0  0
 11 15  2  0  0  0
 11 12  1  0  0  0
 12 13  2  0  0  0
 12 39  1  0  0  0
 13 21  1  0  0  0
 13 14  1  0  0  0
 14 15  1  0  0  0
 14 16  1  0  0  0
 16 17  1  0  0  0
 16 18  1  0  0  0
 16 27  1  0  0  0
 18 19  1  0  0  0
 18 40  1  0  0  0
 18 41  1  0  0  0
 19 20  1  0  0  0
 19 21  1  0  0  0
 19 22  1  0  0  0
 21 42  1  0  0  0
 22 26  1  0  0  0
 22 23  2  0  0  0
 23 24  1  0  0  0
 23 43  1  0  0  0
 24 25  2  0  0  0
 24 44  1  0  0  0
 25 26  1  0  0  0
 25 45  1  0  0  0
 27 28  1  0  0  0
 27 29  1  0  0  0
 27 30  1  0  0  0
M  END
> <i_i_glide_confnum>
5

> <i_i_glide_lignum>
1550

> <i_i_glide_posenum>
66

> <i_i_glide_rotatable_bonds>
5

> <i_m_Source_File_Index>
1691

> <b_m_subgroup_collapsed>
0

> <r_i_docking_score>
-6.22714

> <r_i_glide_ecoul>
-2.78955

> <r_i_glide_eff_state_penalty>
0

> <r_i_glide_einternal>
5.82401

> <r_i_glide_emodel>
-52.041

> <r_i_glide_energy>
-39.8473

> <r_i_glide_erotb>
0.502698

> <r_i_glide_esite>
0

> <r_i_glide_evdw>
-37.0577

> <r_i_glide_gscore>
-6.22714

> <r_i_glide_hbond>
-0.283759

> <r_i_glide_ligand_efficiency>
-0.222398

> <r_i_glide_ligand_efficiency_ln>
-1.43741

> <r_i_glide_ligand_efficiency_sa>
-0.675331

> <r_i_glide_lipo>
-2.01403

> <r_i_glide_metal>
0

> <r_i_glide_rewards>
-2.16073

> <s_i_glide_gridfile>
wee1_glide-grid

> <s_m_Source_File>
wee1_decoys_glide_SP.sdf

> <s_m_Source_Path>
/Users/zhangxujun/Desktop

> <s_m_entry_id>
1966

> <s_m_entry_name>
wee1_decoys_glide_SP.1691

> <s_m_subgroup_title>
wee1_decoys_glide_SP

> <s_m_subgroupid>
wee1_decoys_glide_SP


$$$$
