ZINC04028997_3858
                    3D
 Schrodinger Suite 2024-2.
 59 62  0  0  1  0            999 V2000
    1.5023   54.4163   23.7897 C   0  0  0  0  0  0
    2.5162   53.2537   23.9672 C   0  0  2  0  0  0
    3.2274   53.5397   25.3374 C   0  0  0  0  0  0
    4.3584   54.6033   25.3178 C   0  0  0  0  0  0
    5.2916   54.4932   24.0953 C   0  0  1  0  0  0
    5.8098   53.5351   24.1641 H   0  0  0  0  0  0
    4.4582   54.4759   22.7911 C   0  0  0  0  0  0
    3.5721   53.2426   22.7845 C   0  0  2  0  0  0
    4.3263   52.4969   22.8818 H   0  0  0  0  0  0
    2.8992   52.9156   21.4429 C   0  0  0  0  0  0
    2.2170   51.5340   21.4653 C   0  0  0  0  0  0
    1.2226   51.3278   22.6461 C   0  0  1  0  0  0
    1.1257   50.2450   22.7530 H   0  0  0  0  0  0
    1.8503   51.8161   23.9813 C   0  0  2  0  0  0
    2.6965   51.1352   24.0731 H   0  0  0  0  0  0
    0.9313   51.4139   25.1593 C   0  0  0  0  0  0
   -0.5343   51.8718   25.0595 C   0  0  0  0  0  0
   -1.1986   51.8594   23.6361 C   0  0  1  0  0  0
   -0.2176   51.8697   22.4034 C   0  0  2  0  0  0
   -0.0882   52.8939   22.0638 H   0  0  0  0  0  0
   -0.9487   51.1048   21.2709 C   0  0  0  0  0  0
   -2.1555   50.3911   21.8815 C   0  0  0  0  0  0
   -2.0392   50.5653   23.4009 C   0  0  1  0  0  0
   -3.0519   50.6960   23.7941 H   0  0  0  0  0  0
   -1.4938   49.3762   24.0712 N   0  0  0  0  0  0
   -2.2013   48.2894   24.4200 C   0  0  0  0  0  0
   -3.3717   48.1148   24.0779 O   0  0  0  0  0  0
   -1.4692   47.2645   25.2865 C   0  0  0  0  0  0
   -2.5630   46.0976   26.0861 Cl  0  0  0  0  0  0
   -2.1537   53.0838   23.5561 C   0  0  0  0  0  0
    6.3043   55.4754   24.1004 O   0  0  0  0  0  0
    1.9596   55.3624   24.0635 H   0  0  0  0  0  0
    1.1050   54.5360   22.7874 H   0  0  0  0  0  0
    0.6587   54.3312   24.4618 H   0  0  0  0  0  0
    2.5012   53.7510   26.1241 H   0  0  0  0  0  0
    3.6973   52.6283   25.6795 H   0  0  0  0  0  0
    4.9371   54.5499   26.2417 H   0  0  0  0  0  0
    3.8861   55.5830   25.3255 H   0  0  0  0  0  0
    5.1336   54.4699   21.9341 H   0  0  0  0  0  0
    3.7887   55.2966   22.6297 H   0  0  0  0  0  0
    2.2074   53.6943   21.1804 H   0  0  0  0  0  0
    3.6457   52.9229   20.6463 H   0  0  0  0  0  0
    3.0037   50.7818   21.5521 H   0  0  0  0  0  0
    1.7507   51.3177   20.5048 H   0  0  0  0  0  0
    0.9122   50.3244   25.2010 H   0  0  0  0  0  0
    1.3626   51.6987   26.1188 H   0  0  0  0  0  0
   -0.4690   52.8989   25.3956 H   0  0  0  0  0  0
   -1.1821   51.4380   25.8234 H   0  0  0  0  0  0
   -0.3026   50.4090   20.7367 H   0  0  0  0  0  0
   -1.3054   51.8124   20.5211 H   0  0  0  0  0  0
   -2.2531   49.3493   21.5700 H   0  0  0  0  0  0
   -3.0620   50.8899   21.5357 H   0  0  0  0  0  0
   -0.5302   49.4383   24.3630 H   0  0  0  0  0  0
   -0.9166   47.7699   26.0808 H   0  0  0  0  0  0
   -0.7611   46.7015   24.6824 H   0  0  0  0  0  0
   -1.6144   54.0227   23.6816 H   0  0  0  0  0  0
   -2.6709   53.1387   22.5991 H   0  0  0  0  0  0
   -2.9171   53.0490   24.3345 H   0  0  0  0  0  0
    6.8373   55.3556   24.8886 H   0  0  0  0  0  0
  1  2  1  0  0  0
  1 32  1  0  0  0
  1 33  1  0  0  0
  1 34  1  0  0  0
  2  8  1  0  0  0
  2 14  1  0  0  0
  2  3  1  0  0  0
  3  4  1  0  0  0
  3 35  1  0  0  0
  3 36  1  0  0  0
  4  5  1  0  0  0
  4 37  1  0  0  0
  4 38  1  0  0  0
  5  6  1  0  0  0
  5  7  1  0  0  0
  5 31  1  0  0  0
  7  8  1  0  0  0
  7 39  1  0  0  0
  7 40  1  0  0  0
  8  9  1  0  0  0
  8 10  1  0  0  0
 10 11  1  0  0  0
 10 41  1  0  0  0
 10 42  1  0  0  0
 11 12  1  0  0  0
 11 43  1  0  0  0
 11 44  1  0  0  0
 12 13  1  0  0  0
 12 19  1  0  0  0
 12 14  1  0  0  0
 14 15  1  0  0  0
 14 16  1  0  0  0
 16 17  1  0  0  0
 16 45  1  0  0  0
 16 46  1  0  0  0
 17 18  1  0  0  0
 17 47  1  0  0  0
 17 48  1  0  0  0
 18 23  1  0  0  0
 18 19  1  0  0  0
 18 30  1  0  0  0
 19 20  1  0  0  0
 19 21  1  0  0  0
 21 22  1  0  0  0
 21 49  1  0  0  0
 21 50  1  0  0  0
 22 23  1  0  0  0
 22 51  1  0  0  0
 22 52  1  0  0  0
 23 24  1  0  0  0
 23 25  1  0  0  0
 25 26  1  0  0  0
 25 53  1  0  0  0
 26 27  2  0  0  0
 26 28  1  0  0  0
 28 29  1  0  0  0
 28 54  1  0  0  0
 28 55  1  0  0  0
 30 56  1  0  0  0
 30 57  1  0  0  0
 30 58  1  0  0  0
 31 59  1  0  0  0
M  END
> <i_i_glide_confnum>
1

> <i_i_glide_lignum>
3859

> <i_i_glide_posenum>
262

> <i_i_glide_rotatable_bonds>
4

> <i_m_Source_File_Index>
1990

> <b_m_subgroup_collapsed>
0

> <r_i_docking_score>
-3.23666

> <r_i_glide_ecoul>
-0.557606

> <r_i_glide_eff_state_penalty>
0

> <r_i_glide_einternal>
0.0860991

> <r_i_glide_emodel>
-21.9599

> <r_i_glide_energy>
-17.3924

> <r_i_glide_erotb>
0.284578

> <r_i_glide_esite>
-0.0439808

> <r_i_glide_evdw>
-16.8348

> <r_i_glide_gscore>
-3.23666

> <r_i_glide_hbond>
0

> <r_i_glide_ligand_efficiency>
-0.129467

> <r_i_glide_ligand_efficiency_ln>
-0.767186

> <r_i_glide_ligand_efficiency_sa>
-0.378562

> <r_i_glide_lipo>
-1.65364

> <r_i_glide_metal>
0

> <r_i_glide_rewards>
-0.898239

> <s_i_glide_gridfile>
wee1_glide-grid

> <s_m_Source_File>
wee1_decoys_glide_SP.sdf

> <s_m_Source_Path>
/Users/zhangxujun/Desktop

> <s_m_entry_id>
2265

> <s_m_entry_name>
wee1_decoys_glide_SP.1990

> <s_m_subgroup_title>
wee1_decoys_glide_SP

> <s_m_subgroupid>
wee1_decoys_glide_SP


$$$$
