@<TRIPOS>MOLECULE
ZINC36026962_596
65   69    1
SMALL
USER_CHARGES


@<TRIPOS>ATOM
      1 C1         -1.0210   46.0514   18.8265 C.ar      1 UNK         0.0000 
      2 C2          0.3410   45.9610   18.5661 C.ar      1 UNK         0.0000 
      3 C3          1.0733   47.1007   18.2566 C.ar      1 UNK         0.0000 
      4 C4          0.4264   48.3515   18.1800 C.ar      1 UNK         0.0000 
      5 C5         -0.9526   48.4314   18.4764 C.ar      1 UNK         0.0000 
      6 C6         -1.6657   47.2806   18.7868 C.ar      1 UNK         0.0000 
      7 C7          1.2429   49.6104   17.9300 C.3       1 UNK         0.0000 
      8 C8          2.0493   50.1133   19.1548 C.3       1 UNK         0.0000 
      9 H9          2.6101   49.3036   19.6227 H         1 UNK         0.0000 
     10 C10         1.2220   50.8352   20.2327 C.2       1 UNK         0.0000 
     11 O11         0.0637   50.5351   20.5213 O.2       1 UNK         0.0000 
     12 N12         1.9875   51.7958   20.8034 N.am      1 UNK         0.0000 
     13 C13         3.2669   52.0001   20.1022 C.3       1 UNK         0.0000 
     14 N14         3.1043   51.1248   18.8667 N.4       1 UNK         0.0000 
     15 C15         4.5107   51.5430   20.8875 C.3       1 UNK         0.0000 
     16 C16         4.9226   52.5024   22.0326 C.3       1 UNK         0.0000 
     17 N17         5.0305   53.8940   21.5337 N.pl3     1 UNK         0.0000 
     18 C18         3.9842   54.4452   20.6401 C.3       1 UNK         0.0000 
     19 C19         3.5528   53.4150   19.5781 C.3       1 UNK         0.0000 
     20 C20         5.9533   54.7559   22.0878 C.2       1 UNK         0.0000 
     21 S21         6.9798   55.6942   21.1623 S.2       1 UNK         0.0000 
     22 N22         6.0630   54.8959   23.4470 N.pl3     1 UNK         0.0000 
     23 C23         5.2116   54.5310   24.5122 C.ar      1 UNK         0.0000 
     24 C24         3.8175   54.4567   24.3845 C.ar      1 UNK         0.0000 
     25 C25         3.0229   54.0964   25.4715 C.ar      1 UNK         0.0000 
     26 C26         3.6058   53.8526   26.7129 C.ar      1 UNK         0.0000 
     27 C27         4.9845   53.9805   26.8674 C.ar      1 UNK         0.0000 
     28 C28         5.7809   54.3250   25.7760 C.ar      1 UNK         0.0000 
     29 F29         7.1049   54.4892   25.9642 F         1 UNK         0.0000 
     30 C30         1.4831   52.6077   21.9315 C.3       1 UNK         0.0000 
     31 C31         0.8907   51.8715   23.1453 C.ar      1 UNK         0.0000 
     32 C32         1.3008   50.5781   23.4963 C.ar      1 UNK         0.0000 
     33 C33         0.7043   49.9178   24.5674 C.ar      1 UNK         0.0000 
     34 C34        -0.2817   50.5576   25.3114 C.ar      1 UNK         0.0000 
     35 C35        -0.6798   51.8527   24.9883 C.ar      1 UNK         0.0000 
     36 C36        -0.0978   52.5059   23.9045 C.ar      1 UNK         0.0000 
     37 H37        -1.5835   45.1616   19.0716 H         1 UNK         0.0000 
     38 H38         0.8356   45.0031   18.6104 H         1 UNK         0.0000 
     39 H39         2.1357   47.0259   18.0688 H         1 UNK         0.0000 
     40 H40        -1.4556   49.3858   18.4650 H         1 UNK         0.0000 
     41 H41        -2.7221   47.3465   19.0067 H         1 UNK         0.0000 
     42 H42         0.5881   50.3959   17.5471 H         1 UNK         0.0000 
     43 H43         1.9140   49.3759   17.1052 H         1 UNK         0.0000 
     44 H44         2.8275   51.7100   18.0927 H         1 UNK         0.0000 
     45 H45         5.3617   51.4409   20.2120 H         1 UNK         0.0000 
     46 H46         4.3272   50.5445   21.2816 H         1 UNK         0.0000 
     47 H47         5.8593   52.1704   22.4825 H         1 UNK         0.0000 
     48 H48         4.1575   52.4967   22.8009 H         1 UNK         0.0000 
     49 H49         3.1479   54.7756   21.2529 H         1 UNK         0.0000 
     50 H50         4.3583   55.2968   20.0848 H         1 UNK         0.0000 
     51 H51         2.7050   53.7952   19.0095 H         1 UNK         0.0000 
     52 H52         4.3639   53.3678   18.8466 H         1 UNK         0.0000 
     53 H53         6.9013   55.3739   23.7513 H         1 UNK         0.0000 
     54 H54         3.3361   54.6941   23.4511 H         1 UNK         0.0000 
     55 H55         1.9510   54.0212   25.3567 H         1 UNK         0.0000 
     56 H56         2.9869   53.5829   27.5565 H         1 UNK         0.0000 
     57 H57         5.4399   53.8193   27.8352 H         1 UNK         0.0000 
     58 H58         2.2817   53.2296   22.3148 H         1 UNK         0.0000 
     59 H59         0.7349   53.2938   21.5329 H         1 UNK         0.0000 
     60 H60         2.0739   50.0722   22.9376 H         1 UNK         0.0000 
     61 H61         1.0162   48.9167   24.8333 H         1 UNK         0.0000 
     62 H62        -0.7338   50.0453   26.1505 H         1 UNK         0.0000 
     63 H63        -1.4429   52.3443   25.5749 H         1 UNK         0.0000 
     64 H64        -0.4205   53.5083   23.6659 H         1 UNK         0.0000 
     65 H65         4.0108   50.7252   18.5656 H         1 UNK         0.0000 
@<TRIPOS>BOND
     1    1    6 ar   
     2    1    2 ar   
     3    1   37 1    
     4    2    3 ar   
     5    2   38 1    
     6    3    4 ar   
     7    3   39 1    
     8    4    5 ar   
     9    4    7 1    
    10    5    6 ar   
    11    5   40 1    
    12    6   41 1    
    13    7    8 1    
    14    7   42 1    
    15    7   43 1    
    16    8    9 1    
    17    8   14 1    
    18    8   10 1    
    19   10   11 2    
    20   10   12 am   BACKBONE|DICT|INTERRES
    21   12   13 1    
    22   12   30 1    
    23   13   19 1    
    24   13   14 1    
    25   13   15 1    
    26   14   44 1    
    27   14   65 1    
    28   15   16 1    
    29   15   45 1    
    30   15   46 1    
    31   16   17 1    
    32   16   47 1    
    33   16   48 1    
    34   17   18 1    
    35   17   20 1    
    36   18   19 1    
    37   18   49 1    
    38   18   50 1    
    39   19   51 1    
    40   19   52 1    
    41   20   21 2    
    42   20   22 1    
    43   22   23 1    
    44   22   53 1    
    45   23   28 ar   
    46   23   24 ar   
    47   24   25 ar   
    48   24   54 1    
    49   25   26 ar   
    50   25   55 1    
    51   26   27 ar   
    52   26   56 1    
    53   27   28 ar   
    54   27   57 1    
    55   28   29 1    
    56   30   31 1    
    57   30   58 1    
    58   30   59 1    
    59   31   36 ar   
    60   31   32 ar   
    61   32   33 ar   
    62   32   60 1    
    63   33   34 ar   
    64   33   61 1    
    65   34   35 ar   
    66   34   62 1    
    67   35   36 ar   
    68   35   63 1    
    69   36   64 1    
@<TRIPOS>SUBSTRUCTURE
     1 UNK         1 GROUP             0       ****    0 ROOT    
