ZINC24317258_5947
                    3D
 Schrodinger Suite 2024-2.
 55 58  0  0  1  0            999 V2000
    2.6453   51.1087   21.8178 C   0  0  0  0  0  0
    3.1553   52.2400   20.9248 C   0  0  0  0  0  0
    4.2340   52.8982   21.5846 O   0  0  0  0  0  0
    4.8655   53.9566   20.9535 C   0  0  0  0  0  0
    4.4860   54.4495   19.6872 C   0  0  0  0  0  0
    5.2135   55.4772   19.0888 C   0  0  0  0  0  0
    6.2652   56.0560   19.7690 C   0  0  0  0  0  0
    6.6493   55.6214   21.0277 C   0  0  0  0  0  0
    5.9602   54.5504   21.6127 C   0  0  0  0  0  0
    6.5485   53.9515   22.8817 C   0  0  0  0  0  0
    5.7371   54.0976   24.0644 N   0  0  0  0  0  0
    6.1203   54.7504   25.1676 C   0  0  0  0  0  0
    7.1044   55.4803   25.2375 O   0  0  0  0  0  0
    5.2704   54.5092   26.3683 C   0  0  0  0  0  0
    5.8315   54.5665   27.6464 C   0  0  0  0  0  0
    5.0062   54.4967   28.7616 C   0  0  0  0  0  0
    3.6230   54.3818   28.6269 C   0  0  0  0  0  0
    3.1072   54.2029   27.3365 C   0  0  0  0  0  0
    3.9060   54.2797   26.2181 C   0  0  0  0  0  0
    2.8525   54.4944   29.7541 N   0  5  0  0  0  0
    1.3807   55.0274   29.6755 S   0  0  0  0  0  0
    0.9022   55.5827   30.9396 O   0  0  0  0  0  0
    1.1044   55.8278   28.4818 O   0  0  0  0  0  0
    0.3769   53.5370   29.4799 C   0  0  0  0  0  0
   -0.0959   52.7584   30.5246 C   0  0  0  0  0  0
   -0.8871   51.6966   30.0817 C   0  0  0  0  0  0
   -0.9809   51.6286   28.7032 C   0  0  0  0  0  0
   -0.0956   52.8928   27.9377 S   0  0  0  0  0  0
    6.8539   57.0921   19.0924 O   0  0  0  0  0  0
    6.3084   57.0745   17.7715 C   0  0  1  0  0  0
    7.0324   56.5352   17.1565 H   0  0  0  0  0  0
    5.0135   56.2482   17.8260 C   0  0  0  0  0  0
    6.1598   58.4967   17.2280 C   0  0  0  0  0  0
    1.8148   50.5828   21.3463 H   0  0  0  0  0  0
    3.4333   50.3826   22.0100 H   0  0  0  0  0  0
    2.3000   51.4913   22.7787 H   0  0  0  0  0  0
    2.3413   52.9402   20.7304 H   0  0  0  0  0  0
    3.4865   51.8287   19.9691 H   0  0  0  0  0  0
    3.6385   54.0377   19.1612 H   0  0  0  0  0  0
    7.4940   56.0715   21.5287 H   0  0  0  0  0  0
    6.6304   52.8735   22.7515 H   0  0  0  0  0  0
    7.5759   54.2905   23.0205 H   0  0  0  0  0  0
    4.8693   53.5851   24.0854 H   0  0  0  0  0  0
    6.8908   54.7304   27.7865 H   0  0  0  0  0  0
    5.4471   54.6357   29.7334 H   0  0  0  0  0  0
    2.0591   54.0848   27.1522 H   0  0  0  0  0  0
    3.4347   54.2193   25.2472 H   0  0  0  0  0  0
    0.0924   52.9654   31.5690 H   0  0  0  0  0  0
   -1.3582   50.9876   30.7503 H   0  0  0  0  0  0
   -1.5049   50.8847   28.1184 H   0  0  0  0  0  0
    4.1428   56.8958   17.9386 H   0  0  0  0  0  0
    4.8777   55.6360   16.9342 H   0  0  0  0  0  0
    5.7388   58.5012   16.2226 H   0  0  0  0  0  0
    7.1219   59.0078   17.1886 H   0  0  0  0  0  0
    5.5044   59.0880   17.8654 H   0  0  0  0  0  0
  1  2  1  0  0  0
  1 34  1  0  0  0
  1 35  1  0  0  0
  1 36  1  0  0  0
  2  3  1  0  0  0
  2 37  1  0  0  0
  2 38  1  0  0  0
  3  4  1  0  0  0
  4  9  2  0  0  0
  4  5  1  0  0  0
  5  6  2  0  0  0
  5 39  1  0  0  0
  6 32  1  0  0  0
  6  7  1  0  0  0
  7  8  2  0  0  0
  7 29  1  0  0  0
  8  9  1  0  0  0
  8 40  1  0  0  0
  9 10  1  0  0  0
 10 11  1  0  0  0
 10 41  1  0  0  0
 10 42  1  0  0  0
 11 12  1  0  0  0
 11 43  1  0  0  0
 12 13  2  0  0  0
 12 14  1  0  0  0
 14 19  2  0  0  0
 14 15  1  0  0  0
 15 16  2  0  0  0
 15 44  1  0  0  0
 16 17  1  0  0  0
 16 45  1  0  0  0
 17 18  2  0  0  0
 17 20  1  0  0  0
 18 19  1  0  0  0
 18 46  1  0  0  0
 19 47  1  0  0  0
 20 21  1  0  0  0
 21 22  2  0  0  0
 21 23  2  0  0  0
 21 24  1  0  0  0
 24 28  1  0  0  0
 24 25  2  0  0  0
 25 26  1  0  0  0
 25 48  1  0  0  0
 26 27  2  0  0  0
 26 49  1  0  0  0
 27 28  1  0  0  0
 27 50  1  0  0  0
 29 30  1  0  0  0
 30 31  1  0  0  0
 30 32  1  0  0  0
 30 33  1  0  0  0
 32 51  1  0  0  0
 32 52  1  0  0  0
 33 53  1  0  0  0
 33 54  1  0  0  0
 33 55  1  0  0  0
M  CHG  1  20  -1
M  END
> <i_i_glide_confnum>
32

> <i_i_glide_lignum>
5948

> <i_i_glide_posenum>
122

> <i_i_glide_rotatable_bonds>
9

> <i_m_Source_File_Index>
3201

> <b_m_subgroup_collapsed>
0

> <r_i_docking_score>
-7.38665

> <r_i_glide_ecoul>
-8.15938

> <r_i_glide_eff_state_penalty>
0

> <r_i_glide_einternal>
6.83704

> <r_i_glide_emodel>
-75.8035

> <r_i_glide_energy>
-56.941

> <r_i_glide_erotb>
0.727174

> <r_i_glide_esite>
0

> <r_i_glide_evdw>
-48.7816

> <r_i_glide_gscore>
-7.38665

> <r_i_glide_hbond>
-0.469341

> <r_i_glide_ligand_efficiency>
-0.230833

> <r_i_glide_ligand_efficiency_ln>
-1.65407

> <r_i_glide_ligand_efficiency_sa>
-0.732849

> <r_i_glide_lipo>
-2.83132

> <r_i_glide_metal>
0

> <r_i_glide_rewards>
-1.15018

> <s_i_glide_gridfile>
wee1_glide-grid

> <s_m_Source_File>
wee1_decoys_glide_SP.sdf

> <s_m_Source_Path>
/Users/zhangxujun/Desktop

> <s_m_entry_id>
3476

> <s_m_entry_name>
wee1_decoys_glide_SP.3201

> <s_m_subgroup_title>
wee1_decoys_glide_SP

> <s_m_subgroupid>
wee1_decoys_glide_SP


$$$$
