@<TRIPOS>MOLECULE
ZINC39995188_2225
53   57    1
SMALL
USER_CHARGES


@<TRIPOS>ATOM
      1 C1         -2.1337   50.0924   26.0823 C.3       1 UNK         0.0000 
      2 C2         -0.6432   50.4263   26.3054 C.3       1 UNK         0.0000 
      3 H3         -0.2173   49.6578   26.9384 H         1 UNK         0.0000 
      4 C4         -0.4203   51.7324   27.0848 C.2       1 UNK         0.0000 
      5 O5         -1.2949   52.5964   27.0864 O.2       1 UNK         0.0000 
      6 N6          0.7990   51.8983   27.6387 N.am      1 UNK         0.0000 
      7 C7          1.2631   53.0822   28.2386 C.ar      1 UNK         0.0000 
      8 C8          2.4311   53.6654   27.7309 C.ar      1 UNK         0.0000 
      9 C9          2.9114   54.8569   28.2636 C.ar      1 UNK         0.0000 
     10 C10         2.2322   55.4856   29.3034 C.ar      1 UNK         0.0000 
     11 C11         1.0964   54.8878   29.8508 C.ar      1 UNK         0.0000 
     12 C12         0.6070   53.6884   29.3250 C.ar      1 UNK         0.0000 
     13 F13        -0.4910   53.1266   29.8828 F         1 UNK         0.0000 
     14 F14         3.0926   53.1036   26.6943 F         1 UNK         0.0000 
     15 S15         0.3044   50.3419   24.7499 S.3       1 UNK         0.0000 
     16 C16         0.1099   51.9964   23.9960 C.3       1 UNK         0.0000 
     17 H17        -0.9082   52.3412   24.1836 H         1 UNK         0.0000 
     18 N18         1.0817   52.9850   24.4317 N.pl3     1 UNK         0.0000 
     19 N19         2.1647   52.9994   23.5576 N.2       1 UNK         0.0000 
     20 C20         1.7336   52.4989   22.4817 C.2       1 UNK         0.0000 
     21 N21         0.4300   52.0400   22.5808 N.pl3     1 UNK         0.0000 
     22 C22        -0.3666   51.2381   21.6545 C.3       1 UNK         0.0000 
     23 C23        -1.8171   51.6467   21.4843 C.3       1 UNK         0.0000 
     24 C24        -0.8351   51.8833   20.3676 C.3       1 UNK         0.0000 
     25 C25         2.5673   52.3958   21.3018 C.2       1 UNK         0.0000 
     26 C26         3.6376   53.1686   20.9921 C.2       1 UNK         0.0000 
     27 C27         4.3055   54.2929   21.6763 C.2       1 UNK         0.0000 
     28 C28         5.3914   54.8905   21.1390 C.2       1 UNK         0.0000 
     29 C29         5.8688   54.4133   19.8518 C.2       1 UNK         0.0000 
     30 C30         5.2803   53.3687   19.2153 C.2       1 UNK         0.0000 
     31 C31         4.1678   52.7297   19.7761 C.2       1 UNK         0.0000 
     32 N32         3.5043   51.6970   19.3187 N.pl3     1 UNK         0.0000 
     33 C33         2.4220   51.3284   20.2347 C.3       1 UNK         0.0000 
     34 H34        -2.6857   50.1008   27.0232 H         1 UNK         0.0000 
     35 H35        -2.6123   50.8004   25.4058 H         1 UNK         0.0000 
     36 H36        -2.2475   49.0941   25.6559 H         1 UNK         0.0000 
     37 H37         1.4913   51.1870   27.4542 H         1 UNK         0.0000 
     38 H38         3.8062   55.2960   27.8552 H         1 UNK         0.0000 
     39 H39         2.5898   56.4311   29.6824 H         1 UNK         0.0000 
     40 H40         0.5858   55.3583   30.6782 H         1 UNK         0.0000 
     41 H41         1.4289   52.9126   25.3770 H         1 UNK         0.0000 
     42 H42        -0.1200   50.1747   21.6447 H         1 UNK         0.0000 
     43 H43        -2.5614   50.8557   21.3881 H         1 UNK         0.0000 
     44 H44        -2.1938   52.4949   22.0574 H         1 UNK         0.0000 
     45 H45        -0.4421   52.8736   20.1494 H         1 UNK         0.0000 
     46 H46        -0.9024   51.2635   19.4729 H         1 UNK         0.0000 
     47 H47         3.9540   54.6559   22.6297 H         1 UNK         0.0000 
     48 H48         5.9042   55.6959   21.6431 H         1 UNK         0.0000 
     49 H49         6.7250   54.8930   19.3955 H         1 UNK         0.0000 
     50 H50         5.6838   53.0375   18.2674 H         1 UNK         0.0000 
     51 H51         2.6023   50.3127   20.5916 H         1 UNK         0.0000 
     52 H52         1.5044   51.3682   19.6538 H         1 UNK         0.0000 
     53 H53         3.7745   51.1663   18.4839 H         1 UNK         0.0000 
@<TRIPOS>BOND
     1    1    2 1    
     2    1   34 1    
     3    1   35 1    
     4    1   36 1    
     5    2    3 1    
     6    2    4 1    
     7    2   15 1    
     8    4    5 2    
     9    4    6 am   BACKBONE|DICT|INTERRES
    10    6    7 1    
    11    6   37 1    
    12    7   12 ar   
    13    7    8 ar   
    14    8    9 ar   
    15    8   14 1    
    16    9   10 ar   
    17    9   38 1    
    18   10   11 ar   
    19   10   39 1    
    20   11   12 ar   
    21   11   40 1    
    22   12   13 1    
    23   15   16 1    
    24   16   17 1    
    25   16   21 1    
    26   16   18 1    
    27   18   19 1    
    28   18   41 1    
    29   19   20 2    
    30   20   21 1    
    31   20   25 1    
    32   21   22 1    
    33   22   24 1    
    34   22   23 1    
    35   22   42 1    
    36   23   24 1    
    37   23   43 1    
    38   23   44 1    
    39   24   45 1    
    40   24   46 1    
    41   25   33 1    
    42   25   26 2    
    43   26   31 1    
    44   26   27 1    
    45   27   28 2    
    46   27   47 1    
    47   28   29 1    
    48   28   48 1    
    49   29   30 2    
    50   29   49 1    
    51   30   31 1    
    52   30   50 1    
    53   31   32 2    
    54   32   33 1    
    55   32   53 1    
    56   33   51 1    
    57   33   52 1    
@<TRIPOS>SUBSTRUCTURE
     1 UNK         1 GROUP             0       ****    0 ROOT    
