@<TRIPOS>MOLECULE
ZINC13028806_512
54   56    1
SMALL
USER_CHARGES


@<TRIPOS>ATOM
      1 C1          1.3459   52.5339   27.4293 C.3       1 UNK         0.0000 
      2 C2          2.5495   53.2598   26.8450 C.ar      1 UNK         0.0000 
      3 C3          3.5967   53.5748   27.7163 C.ar      1 UNK         0.0000 
      4 C4          4.7649   54.1672   27.2464 C.ar      1 UNK         0.0000 
      5 C5          4.9093   54.4858   25.8905 C.ar      1 UNK         0.0000 
      6 C6          3.8346   54.2177   25.0302 C.ar      1 UNK         0.0000 
      7 C7          2.6677   53.5811   25.4755 C.ar      1 UNK         0.0000 
      8 S8          1.4169   53.1698   24.2250 S.o2      1 UNK         0.0000 
      9 O9          0.1345   52.8969   24.8802 O.2       1 UNK         0.0000 
     10 O10         1.5037   54.1800   23.1660 O.2       1 UNK         0.0000 
     11 N11         1.9038   51.6085   23.5442 N.pl3     1 UNK         0.0000 
     12 C12         2.1849   51.3889   22.1849 C.ar      1 UNK         0.0000 
     13 C13         1.4813   50.3499   21.5659 C.ar      1 UNK         0.0000 
     14 C14         1.7344   50.0063   20.2368 C.ar      1 UNK         0.0000 
     15 C15         2.7044   50.7007   19.5236 C.ar      1 UNK         0.0000 
     16 C16         3.3940   51.7490   20.1192 C.ar      1 UNK         0.0000 
     17 C17         3.1525   52.1098   21.4550 C.ar      1 UNK         0.0000 
     18 O18         3.8585   53.1160   22.0844 O.3       1 UNK         0.0000 
     19 C19         4.6549   54.0028   21.3021 C.3       1 UNK         0.0000 
     20 S20         0.8741   48.6476   19.4547 S.o2      1 UNK         0.0000 
     21 O21         1.9050   47.6908   19.0465 O.2       1 UNK         0.0000 
     22 O22        -0.2016   48.2402   20.3660 O.2       1 UNK         0.0000 
     23 N23         0.1237   49.3092   17.9882 N.pl3     1 UNK         0.0000 
     24 C24         1.0231   49.6139   16.8437 C.3       1 UNK         0.0000 
     25 C25         0.2059   49.6738   15.5387 C.3       1 UNK         0.0000 
     26 C26        -0.9847   50.6537   15.6548 C.3       1 UNK         0.0000 
     27 C27        -1.8262   50.4110   16.9285 C.3       1 UNK         0.0000 
     28 C28        -0.9519   50.3088   18.1974 C.3       1 UNK         0.0000 
     29 C29         6.1912   55.0695   25.3726 C.2       1 UNK         0.0000 
     30 O30         6.2918   55.2964   24.1469 O.co2     1 UNK         0.0000 
     31 H31         1.5165   52.2088   28.4563 H         1 UNK         0.0000 
     32 H32         0.4652   53.1761   27.4151 H         1 UNK         0.0000 
     33 H33         1.1233   51.6356   26.8524 H         1 UNK         0.0000 
     34 H34         3.5248   53.3313   28.7661 H         1 UNK         0.0000 
     35 H35         5.5661   54.3652   27.9458 H         1 UNK         0.0000 
     36 H36         3.9205   54.4868   23.9898 H         1 UNK         0.0000 
     37 H37         1.5287   50.8173   24.0446 H         1 UNK         0.0000 
     38 H38         0.7472   49.7923   22.1300 H         1 UNK         0.0000 
     39 H39         2.9697   50.4173   18.5147 H         1 UNK         0.0000 
     40 H40         4.1480   52.2424   19.5248 H         1 UNK         0.0000 
     41 H41         5.0458   54.8010   21.9306 H         1 UNK         0.0000 
     42 H42         5.5055   53.4886   20.8560 H         1 UNK         0.0000 
     43 H43         4.0670   54.4748   20.5127 H         1 UNK         0.0000 
     44 H44         1.4283   50.6165   16.9784 H         1 UNK         0.0000 
     45 H45         1.8316   48.8819   16.7791 H         1 UNK         0.0000 
     46 H46         0.8526   49.9690   14.7110 H         1 UNK         0.0000 
     47 H47        -0.1582   48.6747   15.2936 H         1 UNK         0.0000 
     48 H48        -1.6172   50.5813   14.7685 H         1 UNK         0.0000 
     49 H49        -0.6026   51.6760   15.6704 H         1 UNK         0.0000 
     50 H50        -2.3996   49.4891   16.8145 H         1 UNK         0.0000 
     51 H51        -2.5615   51.2079   17.0463 H         1 UNK         0.0000 
     52 H52        -1.5556   50.0368   19.0638 H         1 UNK         0.0000 
     53 H53        -0.4894   51.2880   18.3337 H         1 UNK         0.0000 
     54 O54         7.1044   55.2967   26.1968 O.co2     1 UNK         0.0000 
@<TRIPOS>BOND
     1    1    2 1    
     2    1   31 1    
     3    1   32 1    
     4    1   33 1    
     5    2    7 ar   
     6    2    3 ar   
     7    3    4 ar   
     8    3   34 1    
     9    4    5 ar   
    10    4   35 1    
    11    5    6 ar   
    12    5   29 1    
    13    6    7 ar   
    14    6   36 1    
    15    7    8 1    
    16    8    9 2    
    17    8   10 2    
    18    8   11 1    
    19   11   12 1    
    20   11   37 1    
    21   12   17 ar   
    22   12   13 ar   
    23   13   14 ar   
    24   13   38 1    
    25   14   15 ar   
    26   14   20 1    
    27   15   16 ar   
    28   15   39 1    
    29   16   17 ar   
    30   16   40 1    
    31   17   18 1    
    32   18   19 1    
    33   19   41 1    
    34   19   42 1    
    35   19   43 1    
    36   20   21 2    
    37   20   22 2    
    38   20   23 1    
    39   23   28 1    
    40   23   24 1    
    41   24   25 1    
    42   24   44 1    
    43   24   45 1    
    44   25   26 1    
    45   25   46 1    
    46   25   47 1    
    47   26   27 1    
    48   26   48 1    
    49   26   49 1    
    50   27   28 1    
    51   27   50 1    
    52   27   51 1    
    53   28   52 1    
    54   28   53 1    
    55   29   30 2    
    56   29   54 1    
@<TRIPOS>SUBSTRUCTURE
     1 UNK         1 GROUP             0       ****    0 ROOT    
