ZINC20153100_2020
                    3D
 Schrodinger Suite 2024-2.
 52 54  0  0  1  0            999 V2000
   -3.1069   50.4969   26.7608 C   0  0  0  0  0  0
   -2.9914   50.9873   25.3089 C   0  0  0  0  0  0
   -2.4981   52.4409   25.2246 C   0  0  0  0  0  0
   -2.3820   52.8970   23.7516 C   0  0  0  0  0  0
   -1.4799   52.0336   22.9652 N   0  0  0  0  0  0
   -1.9773   50.6446   22.9978 C   0  0  0  0  0  0
   -2.0501   50.1176   24.4514 C   0  0  0  0  0  0
   -0.1301   52.3131   22.7391 C   0  0  0  0  0  0
    0.5746   53.0665   23.6844 C   0  0  0  0  0  0
    1.9231   53.3552   23.5303 C   0  0  0  0  0  0
    2.6361   52.8946   22.4165 C   0  0  0  0  0  0
    1.9399   52.1360   21.4659 C   0  0  0  0  0  0
    0.5695   51.8513   21.5975 C   0  0  0  0  0  0
   -0.1166   51.2034   20.4543 N   0  3  0  0  0  0
   -1.2551   51.5613   20.1603 O   0  0  0  0  0  0
    0.5097   50.3724   19.8041 O   0  5  0  0  0  0
    4.0990   53.2388   22.1981 C   0  0  0  0  0  0
    4.6510   52.9462   21.1355 O   0  0  0  0  0  0
    4.7329   53.8207   23.2475 N   0  0  0  0  0  0
    5.8429   54.6289   23.3274 C   0  0  0  0  0  0
    6.7050   55.2967   22.0587 S   0  0  0  0  0  0
    6.2746   54.9318   24.5883 N   0  0  0  0  0  0
    5.6824   54.6156   25.8262 C   0  0  0  0  0  0
    4.3208   54.8272   26.0688 C   0  0  0  0  0  0
    3.7562   54.4239   27.2760 C   0  0  0  0  0  0
    4.5527   53.8298   28.2622 C   0  0  0  0  0  0
    5.9280   53.6969   28.0451 C   0  0  0  0  0  0
    6.4878   54.0888   26.8329 C   0  0  0  0  0  0
    3.9397   53.3461   29.5329 C   0  0  0  0  0  0
    3.1039   54.0988   30.0817 O   0  0  0  0  0  0
    4.2944   52.2240   29.9644 O   0  5  0  0  0  0
   -2.1416   50.5118   27.2682 H   0  0  0  0  0  0
   -3.7938   51.1158   27.3382 H   0  0  0  0  0  0
   -3.4762   49.4717   26.8048 H   0  0  0  0  0  0
   -3.9800   50.9487   24.8473 H   0  0  0  0  0  0
   -1.5436   52.5466   25.7392 H   0  0  0  0  0  0
   -3.1730   53.0969   25.7758 H   0  0  0  0  0  0
   -2.0747   53.9407   23.6811 H   0  0  0  0  0  0
   -3.3663   52.8550   23.2833 H   0  0  0  0  0  0
   -2.9718   50.6326   22.5497 H   0  0  0  0  0  0
   -1.3681   49.9807   22.3854 H   0  0  0  0  0  0
   -2.3918   49.0815   24.4629 H   0  0  0  0  0  0
   -1.0509   50.0757   24.8889 H   0  0  0  0  0  0
    0.0827   53.4366   24.5677 H   0  0  0  0  0  0
    2.3832   53.9520   24.2979 H   0  0  0  0  0  0
    2.4593   51.8023   20.5756 H   0  0  0  0  0  0
    4.2050   53.7850   24.1042 H   0  0  0  0  0  0
    7.1456   55.4400   24.6379 H   0  0  0  0  0  0
    3.6968   55.2966   25.3257 H   0  0  0  0  0  0
    2.6971   54.5667   27.4431 H   0  0  0  0  0  0
    6.5657   53.2792   28.8103 H   0  0  0  0  0  0
    7.5402   53.9441   26.6755 H   0  0  0  0  0  0
  1  2  1  0  0  0
  1 32  1  0  0  0
  1 33  1  0  0  0
  1 34  1  0  0  0
  2  7  1  0  0  0
  2  3  1  0  0  0
  2 35  1  0  0  0
  3  4  1  0  0  0
  3 36  1  0  0  0
  3 37  1  0  0  0
  4  5  1  0  0  0
  4 38  1  0  0  0
  4 39  1  0  0  0
  5  6  1  0  0  0
  5  8  1  0  0  0
  6  7  1  0  0  0
  6 40  1  0  0  0
  6 41  1  0  0  0
  7 42  1  0  0  0
  7 43  1  0  0  0
  8 13  2  0  0  0
  8  9  1  0  0  0
  9 10  2  0  0  0
  9 44  1  0  0  0
 10 11  1  0  0  0
 10 45  1  0  0  0
 11 12  2  0  0  0
 11 17  1  0  0  0
 12 13  1  0  0  0
 12 46  1  0  0  0
 13 14  1  0  0  0
 14 15  2  0  0  0
 14 16  1  0  0  0
 17 18  2  0  0  0
 17 19  1  0  0  0
 19 20  1  0  0  0
 19 47  1  0  0  0
 20 21  2  0  0  0
 20 22  1  0  0  0
 22 23  1  0  0  0
 22 48  1  0  0  0
 23 28  2  0  0  0
 23 24  1  0  0  0
 24 25  2  0  0  0
 24 49  1  0  0  0
 25 26  1  0  0  0
 25 50  1  0  0  0
 26 27  2  0  0  0
 26 29  1  0  0  0
 27 28  1  0  0  0
 27 51  1  0  0  0
 28 52  1  0  0  0
 29 30  2  0  0  0
 29 31  1  0  0  0
M  CHG  3  14   1  16  -1  31  -1
M  END
> <i_i_glide_confnum>
71

> <i_i_glide_lignum>
2021

> <i_i_glide_posenum>
223

> <i_i_glide_rotatable_bonds>
8

> <i_m_Source_File_Index>
1792

> <b_m_subgroup_collapsed>
0

> <r_i_docking_score>
-5.91184

> <r_i_glide_ecoul>
-5.46278

> <r_i_glide_eff_state_penalty>
0

> <r_i_glide_einternal>
12.5451

> <r_i_glide_emodel>
-60.3799

> <r_i_glide_energy>
-48.7833

> <r_i_glide_erotb>
0.614924

> <r_i_glide_esite>
-0.0300884

> <r_i_glide_evdw>
-43.3206

> <r_i_glide_gscore>
-5.91184

> <r_i_glide_hbond>
-0.16

> <r_i_glide_ligand_efficiency>
-0.190705

> <r_i_glide_ligand_efficiency_ln>
-1.3333

> <r_i_glide_ligand_efficiency_sa>
-0.599076

> <r_i_glide_lipo>
-2.45788

> <r_i_glide_metal>
0

> <r_i_glide_rewards>
-0.893359

> <s_i_glide_gridfile>
wee1_glide-grid

> <s_m_Source_File>
wee1_decoys_glide_SP.sdf

> <s_m_Source_Path>
/Users/zhangxujun/Desktop

> <s_m_entry_id>
2067

> <s_m_entry_name>
wee1_decoys_glide_SP.1792

> <s_m_subgroup_title>
wee1_decoys_glide_SP

> <s_m_subgroupid>
wee1_decoys_glide_SP


$$$$
