@<TRIPOS>MOLECULE
ZINC31170046_3571
49   52    1
SMALL
USER_CHARGES


@<TRIPOS>ATOM
      1 C1         -4.8152   51.2499   27.7626 C.3       1 UNK         0.0000 
      2 C2         -3.9342   52.1473   26.9040 C.2       1 UNK         0.0000 
      3 C3         -2.5853   52.0962   26.8555 C.2       1 UNK         0.0000 
      4 C4         -1.6443   51.1617   27.6062 C.3       1 UNK         0.0000 
      5 C5         -0.5173   51.8937   28.3375 C.ar      1 UNK         0.0000 
      6 C6          0.4645   52.5174   27.5770 C.ar      1 UNK         0.0000 
      7 C7          1.5412   53.1468   28.1888 C.ar      1 UNK         0.0000 
      8 C8          1.6439   53.1712   29.5931 C.ar      1 UNK         0.0000 
      9 C9          0.6423   52.5840   30.3758 C.ar      1 UNK         0.0000 
     10 C10        -0.4230   51.9350   29.7373 C.ar      1 UNK         0.0000 
     11 O11        -1.3680   51.2967   30.4817 O.3       1 UNK         0.0000 
     12 O12         0.7044   52.6406   31.7535 O.3       1 UNK         0.0000 
     13 O13         2.7586   53.7003   30.2533 O.3       1 UNK         0.0000 
     14 C14         3.7450   54.4348   29.4865 C.3       1 UNK         0.0000 
     15 C15         3.8977   53.7852   28.1053 C.3       1 UNK         0.0000 
     16 H16         4.1519   52.7303   28.2391 H         1 UNK         0.0000 
     17 C17         2.5589   53.9322   27.4243 C.3       1 UNK         0.0000 
     18 H18         2.2033   54.9665   27.4506 H         1 UNK         0.0000 
     19 O19         2.7691   53.6005   26.0618 O.3       1 UNK         0.0000 
     20 C20         4.0319   54.0966   25.8325 C.ar      1 UNK         0.0000 
     21 C21         4.7401   54.3345   27.0081 C.ar      1 UNK         0.0000 
     22 C22         6.0106   54.8966   26.9610 C.ar      1 UNK         0.0000 
     23 C23         6.5459   55.2111   25.7112 C.ar      1 UNK         0.0000 
     24 C24         5.8585   54.9143   24.5325 C.ar      1 UNK         0.0000 
     25 C25         4.5789   54.3547   24.5812 C.ar      1 UNK         0.0000 
     26 O26         3.8706   54.0960   23.4348 O.3       1 UNK         0.0000 
     27 O27         6.4573   55.1931   23.3377 O.3       1 UNK         0.0000 
     28 C28         7.2623   54.1238   22.8816 C.3       1 UNK         0.0000 
     29 C29        -4.7093   53.1557   26.0721 C.3       1 UNK         0.0000 
     30 H30        -5.4502   50.6354   27.1247 H         1 UNK         0.0000 
     31 H31        -5.4570   51.8508   28.4058 H         1 UNK         0.0000 
     32 H32        -4.2613   50.5730   28.4084 H         1 UNK         0.0000 
     33 H33        -2.0793   52.7856   26.1950 H         1 UNK         0.0000 
     34 H34        -2.1767   50.4985   28.2826 H         1 UNK         0.0000 
     35 H35        -1.1905   50.4920   26.8746 H         1 UNK         0.0000 
     36 H36         0.3954   52.5106   26.4980 H         1 UNK         0.0000 
     37 H37        -1.2957   51.3066   31.4503 H         1 UNK         0.0000 
     38 H38        -0.1080   52.3750   32.2117 H         1 UNK         0.0000 
     39 H39         3.4342   55.4775   29.3925 H         1 UNK         0.0000 
     40 H40         4.6960   54.4288   30.0203 H         1 UNK         0.0000 
     41 H41         6.5765   55.0868   27.8616 H         1 UNK         0.0000 
     42 H42         7.5044   55.6775   25.6253 H         1 UNK         0.0000 
     43 H43         4.3485   54.3795   22.6514 H         1 UNK         0.0000 
     44 H44         7.9033   54.4968   22.0818 H         1 UNK         0.0000 
     45 H45         6.6250   53.3313   22.4879 H         1 UNK         0.0000 
     46 H46         7.9038   53.6965   23.6554 H         1 UNK         0.0000 
     47 H47        -4.0500   53.7902   25.4787 H         1 UNK         0.0000 
     48 H48        -5.3011   53.8064   26.7159 H         1 UNK         0.0000 
     49 H49        -5.3817   52.6432   25.3834 H         1 UNK         0.0000 
@<TRIPOS>BOND
     1    1    2 1    
     2    1   30 1    
     3    1   31 1    
     4    1   32 1    
     5    2    3 2    
     6    2   29 1    
     7    3    4 1    
     8    3   33 1    
     9    4    5 1    
    10    4   34 1    
    11    4   35 1    
    12    5   10 ar   
    13    5    6 ar   
    14    6    7 ar   
    15    6   36 1    
    16    7   17 1    
    17    7    8 ar   
    18    8    9 ar   
    19    8   13 1    
    20    9   10 ar   
    21    9   12 1    
    22   10   11 1    
    23   11   37 1    
    24   12   38 1    
    25   13   14 1    
    26   14   15 1    
    27   14   39 1    
    28   14   40 1    
    29   15   16 1    
    30   15   21 1    
    31   15   17 1    
    32   17   18 1    
    33   17   19 1    
    34   19   20 1    
    35   20   25 ar   
    36   20   21 ar   
    37   21   22 ar   
    38   22   23 ar   
    39   22   41 1    
    40   23   24 ar   
    41   23   42 1    
    42   24   25 ar   
    43   24   27 1    
    44   25   26 1    
    45   26   43 1    
    46   27   28 1    
    47   28   44 1    
    48   28   45 1    
    49   28   46 1    
    50   29   47 1    
    51   29   48 1    
    52   29   49 1    
@<TRIPOS>SUBSTRUCTURE
     1 UNK         1 GROUP             0       ****    0 ROOT    
