@<TRIPOS>MOLECULE
ZINC08683797_2060
60   63    1
SMALL
USER_CHARGES


@<TRIPOS>ATOM
      1 C1          3.2873   54.0026   28.8773 C.3       1 UNK         0.0000 
      2 C2          3.7652   54.0374   27.4360 C.ar      1 UNK         0.0000 
      3 C3          5.1227   54.2288   27.1666 C.ar      1 UNK         0.0000 
      4 C4          5.6193   54.2920   25.8584 C.ar      1 UNK         0.0000 
      5 C5          4.6978   54.1536   24.8034 C.ar      1 UNK         0.0000 
      6 C6          3.3157   53.9825   25.0826 C.ar      1 UNK         0.0000 
      7 C7          2.8419   53.9086   26.3984 C.ar      1 UNK         0.0000 
      8 S8          2.4265   53.9079   23.5650 S.3       1 UNK         0.0000 
      9 C9          3.9499   54.1029   22.7374 C.2       1 UNK         0.0000 
     10 N10         5.0165   54.1858   23.4807 N.2       1 UNK         0.0000 
     11 N11         3.9047   54.2854   21.3694 N.pl3     1 UNK         0.0000 
     12 N12         5.0258   54.0266   20.5523 N.am      1 UNK         0.0000 
     13 C13         5.8910   55.0103   20.2070 C.2       1 UNK         0.0000 
     14 O14         5.9074   56.1329   20.7194 O.2       1 UNK         0.0000 
     15 C15         6.9135   54.6540   19.1533 C.ar      1 UNK         0.0000 
     16 C16         8.1597   55.2977   19.1594 C.ar      1 UNK         0.0000 
     17 C17         9.1324   54.9579   18.2245 C.ar      1 UNK         0.0000 
     18 C18         8.8687   53.9772   17.2700 C.ar      1 UNK         0.0000 
     19 C19         7.6230   53.3486   17.2337 C.ar      1 UNK         0.0000 
     20 C20         6.6471   53.6894   18.1684 C.ar      1 UNK         0.0000 
     21 S21        10.1564   53.5769   16.0887 S.o2      1 UNK         0.0000 
     22 O22         9.9423   54.4878   14.9570 O.2       1 UNK         0.0000 
     23 O23        11.4139   53.5875   16.8470 O.2       1 UNK         0.0000 
     24 N24         9.8528   51.9220   15.5363 N.pl3     1 UNK         0.0000 
     25 C25         8.9623   51.6290   14.3879 C.3       1 UNK         0.0000 
     26 C26         9.7090   50.6906   13.4121 C.3       1 UNK         0.0000 
     27 H27        10.5939   51.2248   13.0602 H         1 UNK         0.0000 
     28 C28        10.1964   49.4273   14.1755 C.3       1 UNK         0.0000 
     29 C29        11.0428   49.7585   15.4412 C.3       1 UNK         0.0000 
     30 H30        11.1533   48.8360   16.0100 H         1 UNK         0.0000 
     31 C31        10.2683   50.7519   16.3442 C.3       1 UNK         0.0000 
     32 C32        12.4516   50.2833   15.0933 C.3       1 UNK         0.0000 
     33 C33         8.8475   50.3298   12.1908 C.3       1 UNK         0.0000 
     34 C34         7.1030   54.5185   25.6365 C.3       1 UNK         0.0000 
     35 H35         2.2812   54.4162   28.9648 H         1 UNK         0.0000 
     36 H36         3.2798   52.9806   29.2586 H         1 UNK         0.0000 
     37 H37         3.9283   54.6128   29.5153 H         1 UNK         0.0000 
     38 H38         5.8081   54.3376   27.9964 H         1 UNK         0.0000 
     39 H39         1.7898   53.7672   26.5982 H         1 UNK         0.0000 
     40 H40         3.0443   54.1206   20.8574 H         1 UNK         0.0000 
     41 H41         5.0469   53.1017   20.1477 H         1 UNK         0.0000 
     42 H42         8.3952   56.0519   19.8957 H         1 UNK         0.0000 
     43 H43        10.0958   55.4452   18.2536 H         1 UNK         0.0000 
     44 H44         7.3985   52.5990   16.4927 H         1 UNK         0.0000 
     45 H45         5.6935   53.1821   18.1165 H         1 UNK         0.0000 
     46 H46         8.0577   51.1575   14.7724 H         1 UNK         0.0000 
     47 H47         8.6692   52.5602   13.9039 H         1 UNK         0.0000 
     48 H48         9.3273   48.8397   14.4701 H         1 UNK         0.0000 
     49 H49        10.7541   48.7849   13.4931 H         1 UNK         0.0000 
     50 H50        10.8770   51.0953   17.1822 H         1 UNK         0.0000 
     51 H51         9.3656   50.2924   16.7486 H         1 UNK         0.0000 
     52 H52        12.4155   51.2487   14.5885 H         1 UNK         0.0000 
     53 H53        13.0518   50.4110   15.9950 H         1 UNK         0.0000 
     54 H54        12.9858   49.5919   14.4393 H         1 UNK         0.0000 
     55 H55         7.9439   49.7906   12.4792 H         1 UNK         0.0000 
     56 H56         8.5441   51.2244   11.6465 H         1 UNK         0.0000 
     57 H57         9.4037   49.6988   11.4967 H         1 UNK         0.0000 
     58 H58         7.2598   55.4815   25.1501 H         1 UNK         0.0000 
     59 H59         7.4899   53.7509   24.9721 H         1 UNK         0.0000 
     60 H60         7.6543   54.4932   26.5769 H         1 UNK         0.0000 
@<TRIPOS>BOND
     1    1    2 1    
     2    1   35 1    
     3    1   36 1    
     4    1   37 1    
     5    2    7 ar   
     6    2    3 ar   
     7    3    4 ar   
     8    3   38 1    
     9    4    5 ar   
    10    4   34 1    
    11    5   10 1    
    12    5    6 ar   
    13    6    7 ar   
    14    6    8 1    
    15    7   39 1    
    16    8    9 1    
    17    9   10 2    
    18    9   11 1    
    19   11   12 1    
    20   11   40 1    
    21   12   13 am   BACKBONE|DICT|INTERRES
    22   12   41 1    
    23   13   14 2    
    24   13   15 1    
    25   15   20 ar   
    26   15   16 ar   
    27   16   17 ar   
    28   16   42 1    
    29   17   18 ar   
    30   17   43 1    
    31   18   19 ar   
    32   18   21 1    
    33   19   20 ar   
    34   19   44 1    
    35   20   45 1    
    36   21   22 2    
    37   21   23 2    
    38   21   24 1    
    39   24   31 1    
    40   24   25 1    
    41   25   26 1    
    42   25   46 1    
    43   25   47 1    
    44   26   27 1    
    45   26   28 1    
    46   26   33 1    
    47   28   29 1    
    48   28   48 1    
    49   28   49 1    
    50   29   30 1    
    51   29   31 1    
    52   29   32 1    
    53   31   50 1    
    54   31   51 1    
    55   32   52 1    
    56   32   53 1    
    57   32   54 1    
    58   33   55 1    
    59   33   56 1    
    60   33   57 1    
    61   34   58 1    
    62   34   59 1    
    63   34   60 1    
@<TRIPOS>SUBSTRUCTURE
     1 UNK         1 GROUP             0       ****    0 ROOT    
