@<TRIPOS>MOLECULE
ZINC59293552_6128
63   66    1
SMALL
USER_CHARGES


@<TRIPOS>ATOM
      1 C1          2.5825   52.4042   29.7102 C.3       1 UNK         0.0000 
      2 C2          2.1633   52.7407   28.2744 C.3       1 UNK         0.0000 
      3 C3          3.3202   52.6671   27.2414 C.3       1 UNK         0.0000 
      4 N4          3.8576   53.9250   26.7010 N.am      1 UNK         0.0000 
      5 C5          4.3250   54.7656   27.7884 C.3       1 UNK         0.0000 
      6 C6          5.4869   54.2227   28.6104 C.3       1 UNK         0.0000 
      7 C7          5.5042   55.0488   29.8733 C.3       1 UNK         0.0000 
      8 C8          4.1114   54.2982   25.3974 C.2       1 UNK         0.0000 
      9 O9          4.8009   55.2959   25.1826 O.2       1 UNK         0.0000 
     10 C10         3.6155   53.5378   24.2372 C.2       1 UNK         0.0000 
     11 C11         2.3516   53.0200   24.1447 C.2       1 UNK         0.0000 
     12 N12         1.8432   52.2229   23.1369 N.am      1 UNK         0.0000 
     13 C13         0.5223   51.8425   23.2071 C.2       1 UNK         0.0000 
     14 O14        -0.0895   51.2015   22.3472 O.2       1 UNK         0.0000 
     15 C15        -0.0660   52.3064   24.4379 C.2       1 UNK         0.0000 
     16 C16        -1.3214   52.0489   24.8806 C.2       1 UNK         0.0000 
     17 C17        -2.3805   51.1838   24.3270 C.ar      1 UNK         0.0000 
     18 C18        -3.6666   51.7052   24.1669 C.ar      1 UNK         0.0000 
     19 C19        -4.6918   50.8980   23.6800 C.ar      1 UNK         0.0000 
     20 C20        -4.4312   49.5676   23.3591 C.ar      1 UNK         0.0000 
     21 C21        -3.1552   49.0368   23.5271 C.ar      1 UNK         0.0000 
     22 C22        -2.1317   49.8425   24.0182 C.ar      1 UNK         0.0000 
     23 S23         1.0837   53.2967   25.2800 S.3       1 UNK         0.0000 
     24 C24         2.7257   51.8681   22.1217 C.2       1 UNK         0.0000 
     25 C25         3.9969   52.3146   22.0816 C.2       1 UNK         0.0000 
     26 C26         4.6217   53.2966   23.0824 C.3       1 UNK         0.0000 
     27 H27         5.4713   52.7679   23.5145 H         1 UNK         0.0000 
     28 C28         5.3632   54.4498   22.3705 C.ar      1 UNK         0.0000 
     29 C29         6.6014   54.8848   22.8497 C.ar      1 UNK         0.0000 
     30 C30         7.3912   55.7124   22.0657 C.ar      1 UNK         0.0000 
     31 C31         6.9854   56.0929   20.7934 C.ar      1 UNK         0.0000 
     32 C32         5.7530   55.6871   20.3113 C.ar      1 UNK         0.0000 
     33 C33         4.9329   54.8966   21.1113 C.ar      1 UNK         0.0000 
     34 C34         4.8032   52.0476   20.9718 C.1       1 UNK         0.0000 
     35 N35         5.5044   52.0966   20.0816 N.1       1 UNK         0.0000 
     36 N36         2.2745   51.0341   21.1112 N.pl3     1 UNK         0.0000 
     37 H37         1.7137   52.3813   30.3714 H         1 UNK         0.0000 
     38 H38         3.2816   53.1313   30.1121 H         1 UNK         0.0000 
     39 H39         3.0584   51.4235   29.7541 H         1 UNK         0.0000 
     40 H40         1.3995   52.0164   27.9843 H         1 UNK         0.0000 
     41 H41         1.6682   53.7115   28.2439 H         1 UNK         0.0000 
     42 H42         4.1446   52.0967   27.6513 H         1 UNK         0.0000 
     43 H43         2.9522   52.0969   26.4094 H         1 UNK         0.0000 
     44 H44         4.6843   55.6966   27.4044 H         1 UNK         0.0000 
     45 H45         3.4740   55.0137   28.4242 H         1 UNK         0.0000 
     46 H46         5.3938   53.1730   28.8825 H         1 UNK         0.0000 
     47 H47         6.4241   54.3334   28.0625 H         1 UNK         0.0000 
     48 H48         6.3998   54.8967   30.4505 H         1 UNK         0.0000 
     49 H49         5.5043   56.0965   29.6822 H         1 UNK         0.0000 
     50 H50         4.6248   54.8739   30.4816 H         1 UNK         0.0000 
     51 H51        -1.6014   52.5207   25.8125 H         1 UNK         0.0000 
     52 H52        -3.8776   52.7346   24.4197 H         1 UNK         0.0000 
     53 H53        -5.6864   51.3001   23.5521 H         1 UNK         0.0000 
     54 H54        -5.2266   48.9409   22.9835 H         1 UNK         0.0000 
     55 H55        -2.9605   48.0022   23.2853 H         1 UNK         0.0000 
     56 H56        -1.1466   49.4222   24.1626 H         1 UNK         0.0000 
     57 H57         6.9697   54.5609   23.8119 H         1 UNK         0.0000 
     58 H58         8.3120   56.0969   22.4572 H         1 UNK         0.0000 
     59 H59         7.6238   56.7086   20.1770 H         1 UNK         0.0000 
     60 H60         5.4271   55.9850   19.3250 H         1 UNK         0.0000 
     61 H61         3.9839   54.5737   20.7060 H         1 UNK         0.0000 
     62 H62         2.8557   50.7914   20.3185 H         1 UNK         0.0000 
     63 H63         1.3097   50.7248   21.1043 H         1 UNK         0.0000 
@<TRIPOS>BOND
     1    1    2 1    
     2    1   37 1    
     3    1   38 1    
     4    1   39 1    
     5    2    3 1    
     6    2   40 1    
     7    2   41 1    
     8    3    4 1    
     9    3   42 1    
    10    3   43 1    
    11    4    5 1    
    12    4    8 am   BACKBONE|DICT|INTERRES
    13    5    6 1    
    14    5   44 1    
    15    5   45 1    
    16    6    7 1    
    17    6   46 1    
    18    6   47 1    
    19    7   48 1    
    20    7   49 1    
    21    7   50 1    
    22    8    9 2    
    23    8   10 1    
    24   10   26 1    
    25   10   11 2    
    26   11   23 1    
    27   11   12 am   BACKBONE|DICT|INTERRES
    28   12   13 am   BACKBONE|DICT|INTERRES
    29   12   24 1    
    30   13   14 2    
    31   13   15 1    
    32   15   16 2    
    33   15   23 1    
    34   16   17 1    
    35   16   51 1    
    36   17   22 ar   
    37   17   18 ar   
    38   18   19 ar   
    39   18   52 1    
    40   19   20 ar   
    41   19   53 1    
    42   20   21 ar   
    43   20   54 1    
    44   21   22 ar   
    45   21   55 1    
    46   22   56 1    
    47   24   25 2    
    48   24   36 1    
    49   25   26 1    
    50   25   34 1    
    51   26   27 1    
    52   26   28 1    
    53   28   33 ar   
    54   28   29 ar   
    55   29   30 ar   
    56   29   57 1    
    57   30   31 ar   
    58   30   58 1    
    59   31   32 ar   
    60   31   59 1    
    61   32   33 ar   
    62   32   60 1    
    63   33   61 1    
    64   34   35 3    
    65   36   62 1    
    66   36   63 1    
@<TRIPOS>SUBSTRUCTURE
     1 UNK         1 GROUP             0       ****    0 ROOT    
