@<TRIPOS>MOLECULE
ZINC39469265_1441
45   48    1
SMALL
USER_CHARGES


@<TRIPOS>ATOM
      1 C1          5.8218   54.2510   26.3321 C.ar      1 UNK         0.0000 
      2 C2          6.0866   54.3618   27.6962 C.ar      1 UNK         0.0000 
      3 C3          5.0350   54.3132   28.6089 C.ar      1 UNK         0.0000 
      4 C4          3.7281   54.1370   28.1550 C.ar      1 UNK         0.0000 
      5 C5          3.4644   54.0438   26.7881 C.ar      1 UNK         0.0000 
      6 C6          4.5142   54.0977   25.8740 C.ar      1 UNK         0.0000 
      7 O7          2.7013   54.1012   29.0617 O.3       1 UNK         0.0000 
      8 S8          2.2022   52.6194   29.6661 S.3       1 UNK         0.0000 
      9 O9          3.3455   51.6969   29.6904 O.2       1 UNK         0.0000 
     10 O10         1.4294   52.8787   30.8834 O.2       1 UNK         0.0000 
     11 C11         1.0513   52.1371   28.3584 C.2       1 UNK         0.0000 
     12 C12         1.2462   51.0082   27.6476 C.2       1 UNK         0.0000 
     13 C13         0.3100   50.6212   26.4831 C.3       1 UNK         0.0000 
     14 H14         0.6181   51.2137   25.6177 H         1 UNK         0.0000 
     15 C15         0.3708   49.1535   26.0437 C.3       1 UNK         0.0000 
     16 C16        -0.6549   48.8453   24.9286 C.3       1 UNK         0.0000 
     17 H17        -0.5001   49.4939   24.0642 H         1 UNK         0.0000 
     18 C18        -0.5637   47.3759   24.4817 C.3       1 UNK         0.0000 
     19 O19        -1.3608   47.1486   23.3415 O.3       1 UNK         0.0000 
     20 P20        -3.0310   47.3017   23.6139 P.3       1 UNK         0.0000 
     21 O21        -3.5085   46.0945   24.3863 O.co2     1 UNK         0.0000 
     22 N22        -3.2069   48.7396   24.6125 N.pl3     1 UNK         0.0000 
     23 N23        -2.0843   49.1933   25.4460 N.4       1 UNK         0.0000 
     24 C24        -2.1750   50.7023   25.7516 C.3       1 UNK         0.0000 
     25 C25        -1.1428   51.0478   26.8389 C.3       1 UNK         0.0000 
     26 H26        -1.4460   50.4967   27.7318 H         1 UNK         0.0000 
     27 C27        -1.1038   52.4981   27.2830 C.2       1 UNK         0.0000 
     28 C28        -0.0965   52.9755   28.0562 C.2       1 UNK         0.0000 
     29 F29        -0.1128   54.2577   28.4746 F         1 UNK         0.0000 
     30 O30        -3.7909   47.4593   22.3200 O.co2     1 UNK         0.0000 
     31 H31         6.6352   54.2853   25.6217 H         1 UNK         0.0000 
     32 H32         7.0993   54.4930   28.0498 H         1 UNK         0.0000 
     33 H33         5.2266   54.4196   29.6676 H         1 UNK         0.0000 
     34 H34         2.4494   53.9300   26.4372 H         1 UNK         0.0000 
     35 H35         4.3164   54.0165   24.8150 H         1 UNK         0.0000 
     36 H36         2.0980   50.3879   27.8772 H         1 UNK         0.0000 
     37 H37         1.3762   48.8984   25.7012 H         1 UNK         0.0000 
     38 H38         0.1522   48.4995   26.8816 H         1 UNK         0.0000 
     39 H39         0.4690   47.1474   24.2320 H         1 UNK         0.0000 
     40 H40        -0.8623   46.6937   25.2816 H         1 UNK         0.0000 
     41 H41        -3.8511   49.4487   24.2650 H         1 UNK         0.0000 
     42 H42        -2.0330   51.2538   24.8217 H         1 UNK         0.0000 
     43 H43        -3.1924   50.8777   26.1056 H         1 UNK         0.0000 
     44 H44        -1.9057   53.1580   26.9901 H         1 UNK         0.0000 
     45 H45        -2.2130   48.7116   26.3266 H         1 UNK         0.0000 
@<TRIPOS>BOND
     1    1    6 ar   
     2    1    2 ar   
     3    1   31 1    
     4    2    3 ar   
     5    2   32 1    
     6    3    4 ar   
     7    3   33 1    
     8    4    5 ar   
     9    4    7 1    
    10    5    6 ar   
    11    5   34 1    
    12    6   35 1    
    13    7    8 1    
    14    8    9 2    
    15    8   10 2    
    16    8   11 1    
    17   11   28 1    
    18   11   12 2    
    19   12   13 1    
    20   12   36 1    
    21   13   14 1    
    22   13   25 1    
    23   13   15 1    
    24   15   16 1    
    25   15   37 1    
    26   15   38 1    
    27   16   17 1    
    28   16   23 1    
    29   16   18 1    
    30   18   19 1    
    31   18   39 1    
    32   18   40 1    
    33   19   20 1    
    34   20   21 2    
    35   20   22 1    
    36   20   30 1    
    37   22   23 1    
    38   22   41 1    
    39   23   24 1    
    40   23   45 1    
    41   24   25 1    
    42   24   42 1    
    43   24   43 1    
    44   25   26 1    
    45   25   27 1    
    46   27   28 2    
    47   27   44 1    
    48   28   29 1    
@<TRIPOS>SUBSTRUCTURE
     1 UNK         1 GROUP             0       ****    0 ROOT    
