ZINC46613779_4586
                    3D
 Schrodinger Suite 2024-2.
 42 43  0  0  1  0            999 V2000
    6.7009   56.0871   21.7714 C   0  0  0  0  0  0
    6.1003   54.7302   22.1785 C   0  0  1  0  0  0
    6.9692   54.0964   22.0818 H   0  0  0  0  0  0
    5.6869   54.6119   23.6644 C   0  0  0  0  0  0
    6.6731   54.5901   24.6561 C   0  0  0  0  0  0
    6.3299   54.4962   26.0023 C   0  0  0  0  0  0
    4.9938   54.4010   26.3801 C   0  0  0  0  0  0
    3.9980   54.4055   25.3976 C   0  0  0  0  0  0
    4.3442   54.4963   24.0514 C   0  0  0  0  0  0
    4.7134   54.3410   27.7270 O   0  0  0  0  0  0
    3.7298   53.4005   28.1452 C   0  0  0  0  0  0
    4.0081   53.0008   29.3853 F   0  0  0  0  0  0
    2.5126   53.9453   28.1258 F   0  0  0  0  0  0
    5.1042   54.2844   21.1860 N   0  0  0  0  0  0
    4.6419   53.0277   21.0502 C   0  0  0  0  0  0
    5.1046   52.0767   21.6815 O   0  0  0  0  0  0
    3.6016   52.9424   20.1961 N   0  0  0  0  0  0
    3.1452   51.6600   19.8864 N   0  0  0  0  0  0
    1.8658   51.3341   20.1785 C   0  0  0  0  0  0
    1.0666   52.0978   20.7315 O   0  0  0  0  0  0
    1.4488   49.9191   19.8270 C   0  0  0  0  0  0
    2.2070   49.1274   18.9496 C   0  0  0  0  0  0
    1.8244   47.8236   18.6534 C   0  0  0  0  0  0
    0.6733   47.2954   19.2290 C   0  0  0  0  0  0
   -0.1033   48.0686   20.0873 C   0  0  0  0  0  0
    0.2839   49.3734   20.3868 C   0  0  0  0  0  0
    0.2131   45.6688   18.8827 Cl  0  0  0  0  0  0
    7.4726   56.3992   22.4746 H   0  0  0  0  0  0
    7.1818   56.0137   20.7949 H   0  0  0  0  0  0
    5.9524   56.8704   21.6815 H   0  0  0  0  0  0
    7.7137   54.6409   24.3908 H   0  0  0  0  0  0
    7.1006   54.4882   26.7592 H   0  0  0  0  0  0
    2.9548   54.3458   25.6686 H   0  0  0  0  0  0
    3.5558   54.5057   23.3137 H   0  0  0  0  0  0
    3.7166   52.4975   27.5325 H   0  0  0  0  0  0
    4.8494   54.9622   20.4826 H   0  0  0  0  0  0
    3.4799   53.5862   19.4282 H   0  0  0  0  0  0
    3.6436   51.2578   19.1014 H   0  0  0  0  0  0
    3.1041   49.5042   18.4824 H   0  0  0  0  0  0
    2.4279   47.2335   17.9790 H   0  0  0  0  0  0
   -0.9982   47.6574   20.5301 H   0  0  0  0  0  0
   -0.3256   49.9548   21.0651 H   0  0  0  0  0  0
  1  2  1  0  0  0
  1 28  1  0  0  0
  1 29  1  0  0  0
  1 30  1  0  0  0
  2  3  1  0  0  0
  2  4  1  0  0  0
  2 14  1  0  0  0
  4  9  2  0  0  0
  4  5  1  0  0  0
  5  6  2  0  0  0
  5 31  1  0  0  0
  6  7  1  0  0  0
  6 32  1  0  0  0
  7  8  2  0  0  0
  7 10  1  0  0  0
  8  9  1  0  0  0
  8 33  1  0  0  0
  9 34  1  0  0  0
 10 11  1  0  0  0
 11 12  1  0  0  0
 11 13  1  0  0  0
 11 35  1  0  0  0
 14 15  1  0  0  0
 14 36  1  0  0  0
 15 16  2  0  0  0
 15 17  1  0  0  0
 17 18  1  0  0  0
 17 37  1  0  0  0
 18 19  1  0  0  0
 18 38  1  0  0  0
 19 20  2  0  0  0
 19 21  1  0  0  0
 21 26  2  0  0  0
 21 22  1  0  0  0
 22 23  2  0  0  0
 22 39  1  0  0  0
 23 24  1  0  0  0
 23 40  1  0  0  0
 24 25  2  0  0  0
 24 27  1  0  0  0
 25 26  1  0  0  0
 25 41  1  0  0  0
 26 42  1  0  0  0
M  END
> <i_i_glide_confnum>
123

> <i_i_glide_lignum>
4587

> <i_i_glide_posenum>
236

> <i_i_glide_rotatable_bonds>
9

> <i_m_Source_File_Index>
6027

> <b_m_subgroup_collapsed>
0

> <r_i_docking_score>
-4.83301

> <r_i_glide_ecoul>
-5.57057

> <r_i_glide_eff_state_penalty>
0

> <r_i_glide_einternal>
2.44984

> <r_i_glide_emodel>
-50.155

> <r_i_glide_energy>
-38.1288

> <r_i_glide_erotb>
0.92372

> <r_i_glide_esite>
-0.0720005

> <r_i_glide_evdw>
-32.5582

> <r_i_glide_gscore>
-4.83301

> <r_i_glide_hbond>
-0.102356

> <r_i_glide_ligand_efficiency>
-0.185885

> <r_i_glide_ligand_efficiency_ln>
-1.13502

> <r_i_glide_ligand_efficiency_sa>
-0.550683

> <r_i_glide_lipo>
-2.07297

> <r_i_glide_metal>
0

> <r_i_glide_rewards>
-1.0459

> <s_i_glide_gridfile>
wee1_glide-grid

> <s_m_Source_File>
wee1_decoys_glide_SP.sdf

> <s_m_Source_Path>
/Users/zhangxujun/Desktop

> <s_m_entry_id>
6302

> <s_m_entry_name>
wee1_decoys_glide_SP.6027

> <s_m_subgroup_title>
wee1_decoys_glide_SP

> <s_m_subgroupid>
wee1_decoys_glide_SP


$$$$
