@<TRIPOS>MOLECULE
ZINC59310739_4968
63   68    1
SMALL
USER_CHARGES


@<TRIPOS>ATOM
      1 C1         -0.7273   51.9378   29.3181 C.3       1 UNK         0.0000 
      2 C2          0.2312   52.0452   28.1299 C.2       1 UNK         0.0000 
      3 N3          0.0299   51.4975   26.9886 N.2       1 UNK         0.0000 
      4 N4         -0.9676   50.5276   26.7892 N.pl3     1 UNK         0.0000 
      5 C5         -0.9566   49.7318   25.6722 C.ar      1 UNK         0.0000 
      6 N6         -1.4398   49.9890   24.4823 N.2       1 UNK         0.0000 
      7 C7         -1.1769   48.8676   23.8120 C.ar      1 UNK         0.0000 
      8 N8         -0.5310   47.9339   24.4813 N.2       1 UNK         0.0000 
      9 N9         -0.3950   48.4967   25.6794 N.pl3     1 UNK         0.0000 
     10 S10        -1.6675   48.5587   22.1419 S.3       1 UNK         0.0000 
     11 C11        -2.6293   50.0555   21.6948 C.3       1 UNK         0.0000 
     12 C12        -1.9927   50.9881   20.6535 C.2       1 UNK         0.0000 
     13 O13        -2.4961   52.0967   20.4905 O.2       1 UNK         0.0000 
     14 N14        -0.9136   50.5428   19.9788 N.am      1 UNK         0.0000 
     15 C15        -0.2183   51.1760   18.9476 C.2       1 UNK         0.0000 
     16 C16         1.0188   50.7545   18.4327 C.2       1 UNK         0.0000 
     17 C17         1.4646   51.6141   17.4145 C.2       1 UNK         0.0000 
     18 C18         0.5880   52.6318   17.1221 C.2       1 UNK         0.0000 
     19 S19        -0.8393   52.5772   18.0805 S.3       1 UNK         0.0000 
     20 C20         1.0785   53.5475   16.0342 C.3       1 UNK         0.0000 
     21 C21         2.5506   53.1213   15.9301 C.3       1 UNK         0.0000 
     22 C22         2.6571   51.6961   16.4997 C.3       1 UNK         0.0000 
     23 C23         1.7385   49.5754   18.8997 C.1       1 UNK         0.0000 
     24 N24         2.2929   48.6346   19.2810 N.1       1 UNK         0.0000 
     25 C25         1.5326   52.8813   28.3740 C.3       1 UNK         0.0000 
     26 C26         2.6641   52.3951   27.4256 C.3       1 UNK         0.0000 
     27 C27         3.9679   53.2144   27.5752 C.3       1 UNK         0.0000 
     28 C28         3.6681   54.7052   27.2652 C.3       1 UNK         0.0000 
     29 C29         2.5680   55.2146   28.2390 C.3       1 UNK         0.0000 
     30 C30         1.2949   54.3724   28.0290 C.3       1 UNK         0.0000 
     31 C31         3.1068   55.0730   29.6744 C.3       1 UNK         0.0000 
     32 C32         3.3906   53.5800   30.0003 C.3       1 UNK         0.0000 
     33 C33         4.4727   53.0569   29.0248 C.3       1 UNK         0.0000 
     34 C34         2.0729   52.7690   29.8414 C.3       1 UNK         0.0000 
     35 H35        -0.9021   52.9200   29.7547 H         1 UNK         0.0000 
     36 H36        -1.6996   51.5276   29.0491 H         1 UNK         0.0000 
     37 H37        -0.3155   51.2989   30.0965 H         1 UNK         0.0000 
     38 H38        -1.2936   50.1033   27.6565 H         1 UNK         0.0000 
     39 H39        -2.9231   50.6352   22.5683 H         1 UNK         0.0000 
     40 H40        -3.5639   49.7050   21.2572 H         1 UNK         0.0000 
     41 H41        -0.5149   49.6740   20.3062 H         1 UNK         0.0000 
     42 H42         1.0007   54.6042   16.2937 H         1 UNK         0.0000 
     43 H43         0.5445   53.3933   15.0956 H         1 UNK         0.0000 
     44 H44         3.1623   53.7930   16.5361 H         1 UNK         0.0000 
     45 H45         2.9314   53.1880   14.9097 H         1 UNK         0.0000 
     46 H46         2.6096   50.9546   15.7001 H         1 UNK         0.0000 
     47 H47         3.5948   51.5536   17.0302 H         1 UNK         0.0000 
     48 H48         2.8142   51.3494   27.6827 H         1 UNK         0.0000 
     49 H49         2.3561   52.4395   26.3784 H         1 UNK         0.0000 
     50 H50         4.7257   52.8443   26.8838 H         1 UNK         0.0000 
     51 H51         3.3478   54.8200   26.2288 H         1 UNK         0.0000 
     52 H52         4.5802   55.2962   27.3626 H         1 UNK         0.0000 
     53 H53         2.3045   56.2563   28.0514 H         1 UNK         0.0000 
     54 H54         1.1044   54.4408   26.9632 H         1 UNK         0.0000 
     55 H55         0.4481   54.7949   28.5701 H         1 UNK         0.0000 
     56 H56         4.0364   55.6424   29.6817 H         1 UNK         0.0000 
     57 H57         2.4167   55.5185   30.3921 H         1 UNK         0.0000 
     58 H58         3.7773   53.4589   31.0115 H         1 UNK         0.0000 
     59 H59         4.7052   52.0128   29.2390 H         1 UNK         0.0000 
     60 H60         5.4037   53.6088   29.1577 H         1 UNK         0.0000 
     61 H61         1.3421   53.1413   30.5607 H         1 UNK         0.0000 
     62 H62         2.2495   51.7246   30.1035 H         1 UNK         0.0000 
     63 H63         0.0126   48.0201   26.4778 H         1 UNK         0.0000 
@<TRIPOS>BOND
     1    1    2 1    
     2    1   35 1    
     3    1   36 1    
     4    1   37 1    
     5    2    3 2    
     6    2   25 1    
     7    3    4 1    
     8    4    5 1    
     9    4   38 1    
    10    5    9 ar   
    11    5    6 ar   
    12    6    7 ar   
    13    7    8 ar   
    14    7   10 1    
    15    8    9 ar   
    16    9   63 1    
    17   10   11 1    
    18   11   12 1    
    19   11   39 1    
    20   11   40 1    
    21   12   13 2    
    22   12   14 am   BACKBONE|DICT|INTERRES
    23   14   15 am   BACKBONE|DICT|INTERRES
    24   14   41 1    
    25   15   19 1    
    26   15   16 2    
    27   16   17 1    
    28   16   23 1    
    29   17   22 1    
    30   17   18 2    
    31   18   19 1    
    32   18   20 1    
    33   20   21 1    
    34   20   42 1    
    35   20   43 1    
    36   21   22 1    
    37   21   44 1    
    38   21   45 1    
    39   22   46 1    
    40   22   47 1    
    41   23   24 3    
    42   25   30 1    
    43   25   34 1    
    44   25   26 1    
    45   26   27 1    
    46   26   48 1    
    47   26   49 1    
    48   27   33 1    
    49   27   28 1    
    50   27   50 1    
    51   28   29 1    
    52   28   51 1    
    53   28   52 1    
    54   29   30 1    
    55   29   31 1    
    56   29   53 1    
    57   30   54 1    
    58   30   55 1    
    59   31   32 1    
    60   31   56 1    
    61   31   57 1    
    62   32   33 1    
    63   32   34 1    
    64   32   58 1    
    65   33   59 1    
    66   33   60 1    
    67   34   61 1    
    68   34   62 1    
@<TRIPOS>SUBSTRUCTURE
     1 UNK         1 GROUP             0       ****    0 ROOT    
