@<TRIPOS>MOLECULE
ZINC66926712_1408
59   61    1
SMALL
USER_CHARGES


@<TRIPOS>ATOM
      1 C1          7.1042   53.6966   27.9858 C.3       1 UNK         0.0000 
      2 C2          5.7087   54.1615   27.5049 C.3       1 UNK         0.0000 
      3 H3          5.6323   55.2142   27.7871 H         1 UNK         0.0000 
      4 C4          4.5630   53.4153   28.2123 C.ar      1 UNK         0.0000 
      5 N5          4.7043   52.6143   29.2490 N.2       1 UNK         0.0000 
      6 N6          3.4479   52.1610   29.6358 N.2       1 UNK         0.0000 
      7 C7          2.5944   52.7186   28.8195 C.ar      1 UNK         0.0000 
      8 N8          3.2229   53.5217   27.8986 N.pl3     1 UNK         0.0000 
      9 C9          2.5918   54.3370   26.8816 C.3       1 UNK         0.0000 
     10 N10         5.5829   54.0963   26.0360 N.am      1 UNK         0.0000 
     11 C11         6.2997   54.8089   25.1366 C.2       1 UNK         0.0000 
     12 O12         7.0672   55.6967   25.5135 O.2       1 UNK         0.0000 
     13 N13         6.1235   54.4998   23.8143 N.am      1 UNK         0.0000 
     14 C14         7.1043   55.0216   22.8308 C.3       1 UNK         0.0000 
     15 C15         6.4216   55.4583   21.5155 C.3       1 UNK         0.0000 
     16 C16         5.3694   54.4796   20.9649 C.3       1 UNK         0.0000 
     17 C17         4.4121   54.0544   22.0853 C.3       1 UNK         0.0000 
     18 C18         5.1384   53.5040   23.3308 C.3       1 UNK         0.0000 
     19 N19         4.7044   54.8963   19.7313 N.am      1 UNK         0.0000 
     20 C20         5.2901   55.0329   18.5307 C.2       1 UNK         0.0000 
     21 O21         6.4819   54.7930   18.3355 O.2       1 UNK         0.0000 
     22 C22         4.3688   55.4951   17.3915 C.3       1 UNK         0.0000 
     23 C23         5.0766   55.9308   16.0746 C.3       1 UNK         0.0000 
     24 C24         4.0736   56.1516   14.9152 C.3       1 UNK         0.0000 
     25 C25         3.1832   57.3927   15.1497 C.3       1 UNK         0.0000 
     26 C26         4.0301   58.6626   15.3823 C.3       1 UNK         0.0000 
     27 C27         5.1217   58.4671   16.4570 C.3       1 UNK         0.0000 
     28 C28         5.9623   57.1988   16.1988 C.3       1 UNK         0.0000 
     29 H29         7.2112   53.8131   29.0642 H         1 UNK         0.0000 
     30 H30         7.2798   52.6479   27.7460 H         1 UNK         0.0000 
     31 H31         7.9040   54.2803   27.5325 H         1 UNK         0.0000 
     32 H32         1.5198   52.6073   28.8213 H         1 UNK         0.0000 
     33 H33         1.5435   54.4968   27.1359 H         1 UNK         0.0000 
     34 H34         3.1044   55.2967   26.8150 H         1 UNK         0.0000 
     35 H35         2.6464   53.8203   25.9234 H         1 UNK         0.0000 
     36 H36         5.0801   53.2949   25.6875 H         1 UNK         0.0000 
     37 H37         7.8339   54.2382   22.6218 H         1 UNK         0.0000 
     38 H38         7.5988   55.9218   23.1991 H         1 UNK         0.0000 
     39 H39         7.1994   55.6397   20.7728 H         1 UNK         0.0000 
     40 H40         5.9488   56.4239   21.6813 H         1 UNK         0.0000 
     41 H41         5.9043   53.5681   20.6949 H         1 UNK         0.0000 
     42 H42         3.7832   54.8966   22.3783 H         1 UNK         0.0000 
     43 H43         3.7296   53.2891   21.7120 H         1 UNK         0.0000 
     44 H44         5.6725   52.5921   23.0615 H         1 UNK         0.0000 
     45 H45         4.3595   53.2968   24.0642 H         1 UNK         0.0000 
     46 H46         3.7183   55.1039   19.8039 H         1 UNK         0.0000 
     47 H47         3.7306   56.2956   17.7649 H         1 UNK         0.0000 
     48 H48         3.7035   54.6592   17.1736 H         1 UNK         0.0000 
     49 H49         5.7294   55.1156   15.7544 H         1 UNK         0.0000 
     50 H50         3.4393   55.2722   14.7946 H         1 UNK         0.0000 
     51 H51         4.6151   56.2703   13.9748 H         1 UNK         0.0000 
     52 H52         2.5266   57.2290   16.0048 H         1 UNK         0.0000 
     53 H53         2.5247   57.5430   14.2934 H         1 UNK         0.0000 
     54 H54         3.3849   59.4973   15.6599 H         1 UNK         0.0000 
     55 H55         4.5058   58.9528   14.4447 H         1 UNK         0.0000 
     56 H56         4.6615   58.4133   17.4430 H         1 UNK         0.0000 
     57 H57         5.7721   59.3418   16.4809 H         1 UNK         0.0000 
     58 H58         6.5449   57.3341   15.2862 H         1 UNK         0.0000 
     59 H59         6.6861   57.0869   17.0064 H         1 UNK         0.0000 
@<TRIPOS>BOND
     1    1    2 1    
     2    1   29 1    
     3    1   30 1    
     4    1   31 1    
     5    2    3 1    
     6    2    4 1    
     7    2   10 1    
     8    4    8 ar   
     9    4    5 ar   
    10    5    6 ar   
    11    6    7 ar   
    12    7    8 ar   
    13    7   32 1    
    14    8    9 1    
    15    9   33 1    
    16    9   34 1    
    17    9   35 1    
    18   10   11 am   BACKBONE|DICT|INTERRES
    19   10   36 1    
    20   11   12 2    
    21   11   13 am   BACKBONE|DICT|INTERRES
    22   13   18 1    
    23   13   14 1    
    24   14   15 1    
    25   14   37 1    
    26   14   38 1    
    27   15   16 1    
    28   15   39 1    
    29   15   40 1    
    30   16   17 1    
    31   16   19 1    
    32   16   41 1    
    33   17   18 1    
    34   17   42 1    
    35   17   43 1    
    36   18   44 1    
    37   18   45 1    
    38   19   20 am   BACKBONE|DICT|INTERRES
    39   19   46 1    
    40   20   21 2    
    41   20   22 1    
    42   22   23 1    
    43   22   47 1    
    44   22   48 1    
    45   23   28 1    
    46   23   24 1    
    47   23   49 1    
    48   24   25 1    
    49   24   50 1    
    50   24   51 1    
    51   25   26 1    
    52   25   52 1    
    53   25   53 1    
    54   26   27 1    
    55   26   54 1    
    56   26   55 1    
    57   27   28 1    
    58   27   56 1    
    59   27   57 1    
    60   28   58 1    
    61   28   59 1    
@<TRIPOS>SUBSTRUCTURE
     1 UNK         1 GROUP             0       ****    0 ROOT    
