@<TRIPOS>MOLECULE
ZINC13262025_1935
35   36    1
SMALL
USER_CHARGES


@<TRIPOS>ATOM
      1 C1          2.9375   50.3093   19.7665 C.3       1 UNK         0.0000 
      2 O2          2.3559   50.3016   21.0675 O.3       1 UNK         0.0000 
      3 C3          1.2318   49.5860   21.3213 C.2       1 UNK         0.0000 
      4 O4          0.7122   48.8433   20.4828 O.2       1 UNK         0.0000 
      5 C5          0.7281   49.6971   22.7460 C.ar      1 UNK         0.0000 
      6 C6         -0.1863   48.7142   23.1622 C.ar      1 UNK         0.0000 
      7 C7         -0.6987   48.6849   24.4536 C.ar      1 UNK         0.0000 
      8 C8         -0.3449   49.6811   25.3554 C.ar      1 UNK         0.0000 
      9 C9          0.5065   50.7077   24.9504 C.ar      1 UNK         0.0000 
     10 C10         1.0505   50.7352   23.6587 C.ar      1 UNK         0.0000 
     11 N11         1.9039   51.7857   23.2842 N.pl3     1 UNK         0.0000 
     12 S12         1.7404   53.4734   23.7833 S.o2      1 UNK         0.0000 
     13 O13         0.3231   53.6964   24.0854 O.2       1 UNK         0.0000 
     14 O14         2.4133   54.2502   22.7389 O.2       1 UNK         0.0000 
     15 C15         2.7125   53.7034   25.2795 C.ar      1 UNK         0.0000 
     16 C16         4.0755   53.9693   25.1595 C.ar      1 UNK         0.0000 
     17 C17         4.8443   54.2102   26.2942 C.ar      1 UNK         0.0000 
     18 C18         4.2578   54.2174   27.5595 C.ar      1 UNK         0.0000 
     19 C19         2.8770   53.9708   27.7067 C.ar      1 UNK         0.0000 
     20 C20         2.1241   53.6967   26.5488 C.ar      1 UNK         0.0000 
     21 C21         2.1951   54.0381   29.0442 C.2       1 UNK         0.0000 
     22 O22         0.9397   54.0389   29.0530 O.co2     1 UNK         0.0000 
     23 F23         5.0585   54.4948   28.6173 F         1 UNK         0.0000 
     24 Br24       -1.8696   47.2732   24.9653 Br        1 UNK         0.0000 
     25 H25         3.8525   50.8988   19.7756 H         1 UNK         0.0000 
     26 H26         3.1834   49.2995   19.4282 H         1 UNK         0.0000 
     27 H27         2.2546   50.7536   19.0393 H         1 UNK         0.0000 
     28 H28        -0.4970   47.9252   22.4935 H         1 UNK         0.0000 
     29 H29        -0.7355   49.6579   26.3662 H         1 UNK         0.0000 
     30 H30         0.7517   51.4756   25.6641 H         1 UNK         0.0000 
     31 H31         2.5683   51.5947   22.5450 H         1 UNK         0.0000 
     32 H32         4.5492   53.9911   24.1874 H         1 UNK         0.0000 
     33 H33         5.9027   54.4076   26.1944 H         1 UNK         0.0000 
     34 H34         1.0603   53.5242   26.6279 H         1 UNK         0.0000 
     35 O35         2.8968   54.0952   30.0815 O.co2     1 UNK         0.0000 
@<TRIPOS>BOND
     1    1    2 1    
     2    1   25 1    
     3    1   26 1    
     4    1   27 1    
     5    2    3 1    
     6    3    4 2    
     7    3    5 1    
     8    5   10 ar   
     9    5    6 ar   
    10    6    7 ar   
    11    6   28 1    
    12    7    8 ar   
    13    7   24 1    
    14    8    9 ar   
    15    8   29 1    
    16    9   10 ar   
    17    9   30 1    
    18   10   11 1    
    19   11   12 1    
    20   11   31 1    
    21   12   13 2    
    22   12   14 2    
    23   12   15 1    
    24   15   20 ar   
    25   15   16 ar   
    26   16   17 ar   
    27   16   32 1    
    28   17   18 ar   
    29   17   33 1    
    30   18   19 ar   
    31   18   23 1    
    32   19   20 ar   
    33   19   21 1    
    34   20   34 1    
    35   21   22 2    
    36   21   35 1    
@<TRIPOS>SUBSTRUCTURE
     1 UNK         1 GROUP             0       ****    0 ROOT    
