@<TRIPOS>MOLECULE
ZINC22076331_5238
46   48    1
SMALL
USER_CHARGES


@<TRIPOS>ATOM
      1 C1          3.9320   51.9726   31.4882 C.3       1 UNK         0.0000 
      2 O2          3.6633   51.6988   30.1184 O.3       1 UNK         0.0000 
      3 C3          2.6012   52.4033   29.6111 C.ar      1 UNK         0.0000 
      4 C4          1.4622   51.6972   29.2400 C.ar      1 UNK         0.0000 
      5 C5          0.3294   52.3590   28.7731 C.ar      1 UNK         0.0000 
      6 C6          0.3336   53.7540   28.7085 C.ar      1 UNK         0.0000 
      7 C7          1.4882   54.4724   29.0284 C.ar      1 UNK         0.0000 
      8 C8          2.6478   53.7927   29.4124 C.ar      1 UNK         0.0000 
      9 O9          3.8334   54.4880   29.4522 O.3       1 UNK         0.0000 
     10 C10         4.8859   54.0382   28.5758 C.3       1 UNK         0.0000 
     11 C11         4.6149   54.1909   27.0568 C.ar      1 UNK         0.0000 
     12 C12         3.4420   53.6976   26.4602 C.ar      1 UNK         0.0000 
     13 C13         3.2214   53.7956   25.0887 C.ar      1 UNK         0.0000 
     14 C14         4.1859   54.3752   24.2727 C.ar      1 UNK         0.0000 
     15 C15         5.3707   54.8451   24.8320 C.ar      1 UNK         0.0000 
     16 C16         5.5889   54.7456   26.2069 C.ar      1 UNK         0.0000 
     17 Cl17        7.1039   55.2963   26.8080 Cl        1 UNK         0.0000 
     18 Cl18        3.9144   54.4960   22.5721 Cl        1 UNK         0.0000 
     19 Br19        1.5042   56.3723   28.8817 Br        1 UNK         0.0000 
     20 C20        -0.8768   51.5371   28.3517 C.3       1 UNK         0.0000 
     21 N21        -0.6530   50.8089   27.0166 N.4       1 UNK         0.0000 
     22 C22        -0.7697   51.7105   25.7757 C.3       1 UNK         0.0000 
     23 C23        -0.2565   50.9323   24.5908 C.2       1 UNK         0.0000 
     24 C24        -0.8590   50.2659   23.5331 C.2       1 UNK         0.0000 
     25 C25         0.1673   49.7329   22.7513 C.2       1 UNK         0.0000 
     26 C26         1.3522   50.0956   23.3663 C.2       1 UNK         0.0000 
     27 O27         1.0938   50.8268   24.4799 O.3       1 UNK         0.0000 
     28 H28         4.7035   51.2991   31.8508 H         1 UNK         0.0000 
     29 H29         4.3046   52.9862   31.6312 H         1 UNK         0.0000 
     30 H30         3.0480   51.8319   32.1129 H         1 UNK         0.0000 
     31 H31         1.4749   50.6215   29.2819 H         1 UNK         0.0000 
     32 H32        -0.5365   54.2858   28.3611 H         1 UNK         0.0000 
     33 H33         5.7395   54.6427   28.8800 H         1 UNK         0.0000 
     34 H34         5.1879   53.0104   28.7766 H         1 UNK         0.0000 
     35 H35         2.6874   53.1788   27.0223 H         1 UNK         0.0000 
     36 H36         2.3123   53.4040   24.6589 H         1 UNK         0.0000 
     37 H37         6.1284   55.2771   24.1938 H         1 UNK         0.0000 
     38 H38        -1.8017   52.0968   28.2328 H         1 UNK         0.0000 
     39 H39        -1.0654   50.7451   29.0762 H         1 UNK         0.0000 
     40 H40        -1.2948   50.0223   26.9663 H         1 UNK         0.0000 
     41 H41        -0.1808   52.6064   25.9812 H         1 UNK         0.0000 
     42 H42        -1.8264   51.9736   25.7083 H         1 UNK         0.0000 
     43 H43        -1.9192   50.1738   23.3513 H         1 UNK         0.0000 
     44 H44         0.0612   49.1501   21.8478 H         1 UNK         0.0000 
     45 H45         2.3937   49.9078   23.1477 H         1 UNK         0.0000 
     46 H46         0.2712   50.4012   27.0372 H         1 UNK         0.0000 
@<TRIPOS>BOND
     1    1    2 1    
     2    1   28 1    
     3    1   29 1    
     4    1   30 1    
     5    2    3 1    
     6    3    8 ar   
     7    3    4 ar   
     8    4    5 ar   
     9    4   31 1    
    10    5    6 ar   
    11    5   20 1    
    12    6    7 ar   
    13    6   32 1    
    14    7    8 ar   
    15    7   19 1    
    16    8    9 1    
    17    9   10 1    
    18   10   11 1    
    19   10   33 1    
    20   10   34 1    
    21   11   16 ar   
    22   11   12 ar   
    23   12   13 ar   
    24   12   35 1    
    25   13   14 ar   
    26   13   36 1    
    27   14   15 ar   
    28   14   18 1    
    29   15   16 ar   
    30   15   37 1    
    31   16   17 1    
    32   20   21 1    
    33   20   38 1    
    34   20   39 1    
    35   21   22 1    
    36   21   40 1    
    37   21   46 1    
    38   22   23 1    
    39   22   41 1    
    40   22   42 1    
    41   23   27 1    
    42   23   24 2    
    43   24   25 1    
    44   24   43 1    
    45   25   26 2    
    46   25   44 1    
    47   26   27 1    
    48   26   45 1    
@<TRIPOS>SUBSTRUCTURE
     1 UNK         1 GROUP             0       ****    0 ROOT    
