ZINC04100113_5014
                    3D
 Schrodinger Suite 2024-2.
 49 52  0  0  1  0            999 V2000
    2.4017   53.5726   27.5979 C   0  0  0  0  0  0
    1.8389   53.4416   26.3386 C   0  0  0  0  0  0
    2.5882   53.6913   25.1937 C   0  0  0  0  0  0
    3.9758   54.0423   25.2675 C   0  0  0  0  0  0
    4.5360   54.1652   26.5844 C   0  0  0  0  0  0
    3.7334   53.9392   27.7307 C   0  0  0  0  0  0
    5.8941   54.4962   26.7385 C   0  0  0  0  0  0
    6.6916   54.6740   25.6251 C   0  0  0  0  0  0
    6.1873   54.5473   24.3418 C   0  0  0  0  0  0
    4.8236   54.2430   24.1063 C   0  0  0  0  0  0
    4.2875   54.0950   22.7219 C   0  0  0  0  0  0
    4.8933   54.4694   21.6689 N   0  0  0  0  0  0
    4.3044   54.2196   20.4620 N   0  0  0  0  0  0
    4.2087   53.0030   19.9050 C   0  0  0  0  0  0
    4.3050   52.8961   18.5847 N   0  3  0  0  0  0
    3.9267   51.5227   20.8147 S   0  0  0  0  0  0
    2.3780   50.8744   20.0869 C   0  0  2  0  0  0
    2.6055   50.4804   19.0941 H   0  0  0  0  0  0
    1.2822   51.9051   20.0477 C   0  0  0  0  0  0
    0.2489   51.4430   21.0562 C   0  0  0  0  0  0
   -0.7491   52.0933   21.3710 O   0  0  0  0  0  0
    0.6274   50.2196   21.5104 N   0  0  0  0  0  0
    1.7922   49.7763   20.9643 C   0  0  0  0  0  0
    2.3044   48.6719   21.1350 O   0  0  0  0  0  0
   -0.1250   49.4438   22.4174 C   0  0  0  0  0  0
   -1.3306   48.8624   22.0061 C   0  0  0  0  0  0
   -2.0147   48.0064   22.8659 C   0  0  0  0  0  0
   -1.4978   47.7349   24.1316 C   0  0  0  0  0  0
   -0.3193   48.3409   24.5608 C   0  0  0  0  0  0
    0.3693   49.1969   23.7049 C   0  0  0  0  0  0
   -2.3901   46.4990   25.2722 Br  0  0  0  0  0  0
    7.1044   54.7222   23.3342 O   0  0  0  0  0  0
    1.8009   53.3855   28.4763 H   0  0  0  0  0  0
    0.8013   53.1542   26.2475 H   0  0  0  0  0  0
    2.0817   53.5884   24.2485 H   0  0  0  0  0  0
    4.1687   54.0340   28.7154 H   0  0  0  0  0  0
    6.3162   54.5912   27.7300 H   0  0  0  0  0  0
    7.7319   54.8964   25.7603 H   0  0  0  0  0  0
    3.3239   53.6034   22.6462 H   0  0  0  0  0  0
    4.4271   54.9700   19.7977 H   0  0  0  0  0  0
    4.4901   51.9640   18.2006 H   0  0  0  0  0  0
    1.6297   52.9026   20.3003 H   0  0  0  0  0  0
    0.8183   51.9577   19.0615 H   0  0  0  0  0  0
   -1.7207   49.0464   21.0152 H   0  0  0  0  0  0
   -2.9336   47.5388   22.5446 H   0  0  0  0  0  0
    0.0716   48.1219   25.5459 H   0  0  0  0  0  0
    1.3053   49.6285   24.0312 H   0  0  0  0  0  0
    8.0165   54.8968   23.6167 H   0  0  0  0  0  0
    4.4213   53.7068   17.9947 H   0  0  0  0  0  0
  1  6  2  0  0  0
  1  2  1  0  0  0
  1 33  1  0  0  0
  2  3  2  0  0  0
  2 34  1  0  0  0
  3  4  1  0  0  0
  3 35  1  0  0  0
  4 10  2  0  0  0
  4  5  1  0  0  0
  5  6  1  0  0  0
  5  7  2  0  0  0
  6 36  1  0  0  0
  7  8  1  0  0  0
  7 37  1  0  0  0
  8  9  2  0  0  0
  8 38  1  0  0  0
  9 10  1  0  0  0
  9 32  1  0  0  0
 10 11  1  0  0  0
 11 12  2  0  0  0
 11 39  1  0  0  0
 12 13  1  0  0  0
 13 14  1  0  0  0
 13 40  1  0  0  0
 14 15  2  0  0  0
 14 16  1  0  0  0
 15 41  1  0  0  0
 15 49  1  0  0  0
 16 17  1  0  0  0
 17 18  1  0  0  0
 17 23  1  0  0  0
 17 19  1  0  0  0
 19 20  1  0  0  0
 19 42  1  0  0  0
 19 43  1  0  0  0
 20 21  2  0  0  0
 20 22  1  0  0  0
 22 23  1  0  0  0
 22 25  1  0  0  0
 23 24  2  0  0  0
 25 30  2  0  0  0
 25 26  1  0  0  0
 26 27  2  0  0  0
 26 44  1  0  0  0
 27 28  1  0  0  0
 27 45  1  0  0  0
 28 29  2  0  0  0
 28 31  1  0  0  0
 29 30  1  0  0  0
 29 46  1  0  0  0
 30 47  1  0  0  0
 32 48  1  0  0  0
M  CHG  1  15   1
M  END
> <i_i_glide_confnum>
49

> <i_i_glide_lignum>
5015

> <i_i_glide_posenum>
172

> <i_i_glide_rotatable_bonds>
7

> <i_m_Source_File_Index>
1832

> <b_m_subgroup_collapsed>
0

> <r_i_docking_score>
-6.53023

> <r_i_glide_ecoul>
-9.77136

> <r_i_glide_eff_state_penalty>
0

> <r_i_glide_einternal>
25.0428

> <r_i_glide_emodel>
-62.2163

> <r_i_glide_energy>
-51.0411

> <r_i_glide_erotb>
0.492936

> <r_i_glide_esite>
-0.115311

> <r_i_glide_evdw>
-41.2698

> <r_i_glide_gscore>
-6.53023

> <r_i_glide_hbond>
-0.52

> <r_i_glide_ligand_efficiency>
-0.210653

> <r_i_glide_ligand_efficiency_ln>
-1.47277

> <r_i_glide_ligand_efficiency_sa>
-0.66174

> <r_i_glide_lipo>
-2.40723

> <r_i_glide_metal>
0

> <r_i_glide_rewards>
-0.451431

> <s_i_glide_gridfile>
wee1_glide-grid

> <s_m_Source_File>
wee1_decoys_glide_SP.sdf

> <s_m_Source_Path>
/Users/zhangxujun/Desktop

> <s_m_entry_id>
2107

> <s_m_entry_name>
wee1_decoys_glide_SP.1832

> <s_m_subgroup_title>
wee1_decoys_glide_SP

> <s_m_subgroupid>
wee1_decoys_glide_SP


$$$$
