@<TRIPOS>MOLECULE
ZINC37252996_4681
40   41    1
SMALL
USER_CHARGES


@<TRIPOS>ATOM
      1 C1         -0.5257   51.9316   29.1341 C.3       1 UNK         0.0000 
      2 C2          0.1392   53.2750   29.5052 C.3       1 UNK         0.0000 
      3 H3         -0.6425   54.0319   29.5706 H         1 UNK         0.0000 
      4 C4          0.8235   53.2424   30.8834 C.3       1 UNK         0.0000 
      5 C5          2.0610   52.3245   30.8815 C.3       1 UNK         0.0000 
      6 C6          3.0832   52.7065   29.7941 C.3       1 UNK         0.0000 
      7 C7          2.4490   52.9301   28.3897 C.3       1 UNK         0.0000 
      8 H8          2.1250   51.9311   28.0925 H         1 UNK         0.0000 
      9 C9          1.1459   53.7613   28.4382 C.3       1 UNK         0.0000 
     10 N10         3.3453   53.2925   27.2900 N.am      1 UNK         0.0000 
     11 C11         4.2747   54.2600   27.2955 C.2       1 UNK         0.0000 
     12 O12         4.5626   54.8966   28.3067 O.2       1 UNK         0.0000 
     13 C13         5.0147   54.4976   25.9992 C.ar      1 UNK         0.0000 
     14 C14         6.2536   55.1501   26.0327 C.ar      1 UNK         0.0000 
     15 C15         6.9678   55.3658   24.8596 C.ar      1 UNK         0.0000 
     16 C16         6.4877   54.9021   23.6416 C.ar      1 UNK         0.0000 
     17 C17         5.2526   54.2627   23.5812 C.ar      1 UNK         0.0000 
     18 C18         4.5052   54.0862   24.7521 C.ar      1 UNK         0.0000 
     19 S19         4.6641   53.7033   21.9869 S.o2      1 UNK         0.0000 
     20 O20         5.0524   54.7270   21.0127 O.2       1 UNK         0.0000 
     21 O21         5.1041   52.3141   21.8385 O.2       1 UNK         0.0000 
     22 N22         2.9229   53.6964   22.0813 N.pl3     1 UNK         0.0000 
     23 H23         0.1896   51.1167   29.0274 H         1 UNK         0.0000 
     24 H24        -1.0679   52.0081   28.1913 H         1 UNK         0.0000 
     25 H25        -1.2461   51.6254   29.8941 H         1 UNK         0.0000 
     26 H26         1.1050   54.2538   31.1796 H         1 UNK         0.0000 
     27 H27         0.1198   52.8889   31.6399 H         1 UNK         0.0000 
     28 H28         1.7487   51.2973   30.7129 H         1 UNK         0.0000 
     29 H29         2.5351   52.3329   31.8641 H         1 UNK         0.0000 
     30 H30         3.8681   51.9510   29.7395 H         1 UNK         0.0000 
     31 H31         3.5559   53.6266   30.1341 H         1 UNK         0.0000 
     32 H32         0.6766   53.7355   27.4556 H         1 UNK         0.0000 
     33 H33         1.4008   54.8032   28.6410 H         1 UNK         0.0000 
     34 H34         3.0938   52.9164   26.3901 H         1 UNK         0.0000 
     35 H35         6.6669   55.4993   26.9703 H         1 UNK         0.0000 
     36 H36         7.9040   55.8965   24.8815 H         1 UNK         0.0000 
     37 H37         7.0711   55.0609   22.7452 H         1 UNK         0.0000 
     38 H38         3.5458   53.5953   24.6820 H         1 UNK         0.0000 
     39 H39         2.4807   54.3486   21.4224 H         1 UNK         0.0000 
     40 H40         2.5319   52.7546   22.0031 H         1 UNK         0.0000 
@<TRIPOS>BOND
     1    1    2 1    
     2    1   23 1    
     3    1   24 1    
     4    1   25 1    
     5    2    3 1    
     6    2    9 1    
     7    2    4 1    
     8    4    5 1    
     9    4   26 1    
    10    4   27 1    
    11    5    6 1    
    12    5   28 1    
    13    5   29 1    
    14    6    7 1    
    15    6   30 1    
    16    6   31 1    
    17    7    8 1    
    18    7    9 1    
    19    7   10 1    
    20    9   32 1    
    21    9   33 1    
    22   10   11 am   BACKBONE|DICT|INTERRES
    23   10   34 1    
    24   11   12 2    
    25   11   13 1    
    26   13   18 ar   
    27   13   14 ar   
    28   14   15 ar   
    29   14   35 1    
    30   15   16 ar   
    31   15   36 1    
    32   16   17 ar   
    33   16   37 1    
    34   17   18 ar   
    35   17   19 1    
    36   18   38 1    
    37   19   20 2    
    38   19   21 2    
    39   19   22 1    
    40   22   39 1    
    41   22   40 1    
@<TRIPOS>SUBSTRUCTURE
     1 UNK         1 GROUP             0       ****    0 ROOT    
