ZINC21463952_432
                    3D
 Schrodinger Suite 2024-2.
 57 60  0  0  1  0            999 V2000
    0.8443   52.3745   25.1795 C   0  0  0  0  0  0
    1.6393   53.5410   25.8112 C   0  0  1  0  0  0
    1.1045   54.4420   25.5204 H   0  0  0  0  0  0
    1.7350   53.5082   27.3866 C   0  0  0  0  0  0
    2.2939   54.8686   27.9277 C   0  0  0  0  0  0
    2.4822   54.8422   29.4652 C   0  0  2  0  0  0
    3.4808   53.7111   29.8198 C   0  0  0  0  0  0
    2.8962   52.3503   29.3753 C   0  0  2  0  0  0
    2.7046   52.3743   27.8451 C   0  0  0  0  0  0
    1.5193   52.0992   30.0380 C   0  0  0  0  0  0
    0.5381   53.2333   29.6567 C   0  0  1  0  0  0
    1.1093   54.5868   30.1422 C   0  0  0  0  0  0
    0.3652   53.2603   28.1115 C   0  0  0  0  0  0
    2.9695   53.6632   25.1966 N   0  0  0  0  0  0
    3.2478   54.0995   23.9575 C   0  0  0  0  0  0
    2.3790   54.4960   23.1821 O   0  0  0  0  0  0
    4.7399   54.1845   23.5992 C   0  0  0  0  0  0
    4.9136   54.1830   22.1777 O   0  0  0  0  0  0
    5.9039   54.8967   21.5713 C   0  0  0  0  0  0
    6.7046   55.5902   22.2011 O   0  0  0  0  0  0
    5.9053   54.7591   20.0727 C   0  0  0  0  0  0
    4.7499   54.2892   19.4194 C   0  0  0  0  0  0
    4.7196   54.1250   18.0335 C   0  0  0  0  0  0
    5.8485   54.4275   17.2745 C   0  0  0  0  0  0
    6.9985   54.8962   17.9015 C   0  0  0  0  0  0
    7.0418   55.0675   19.2854 C   0  0  0  0  0  0
    8.7038   55.6958   20.0030 Br  0  0  0  0  0  0
    3.2300   53.5481   17.2271 S   0  0  0  0  0  0
    2.4488   52.7898   18.2094 O   0  0  0  0  0  0
    3.6187   52.9737   15.9349 O   0  0  0  0  0  0
    2.3452   55.0078   16.8850 N   0  0  0  0  0  0
   -0.1620   52.3084   25.5867 H   0  0  0  0  0  0
    0.7279   52.5044   24.1037 H   0  0  0  0  0  0
    1.3164   51.4111   25.3584 H   0  0  0  0  0  0
    3.2428   55.1177   27.4512 H   0  0  0  0  0  0
    1.6116   55.6801   27.6818 H   0  0  0  0  0  0
    2.8750   55.8049   29.7863 H   0  0  0  0  0  0
    3.7028   53.6919   30.8807 H   0  0  0  0  0  0
    4.4401   53.8918   29.3281 H   0  0  0  0  0  0
    3.5876   51.5498   29.6410 H   0  0  0  0  0  0
    2.3038   51.4097   27.5332 H   0  0  0  0  0  0
    3.6825   52.4965   27.3783 H   0  0  0  0  0  0
    1.1157   51.1514   29.6809 H   0  0  0  0  0  0
    1.6150   52.0226   31.1225 H   0  0  0  0  0  0
   -0.4279   53.0524   30.1318 H   0  0  0  0  0  0
    1.1871   54.5897   31.2289 H   0  0  0  0  0  0
    0.4165   55.3927   29.9082 H   0  0  0  0  0  0
   -0.3637   54.0262   27.8596 H   0  0  0  0  0  0
   -0.0752   52.3120   27.7983 H   0  0  0  0  0  0
    3.7415   53.3927   25.7861 H   0  0  0  0  0  0
    5.2413   53.2970   23.9868 H   0  0  0  0  0  0
    5.1860   55.0383   24.1135 H   0  0  0  0  0  0
    3.8528   54.0535   19.9770 H   0  0  0  0  0  0
    5.8388   54.3023   16.2008 H   0  0  0  0  0  0
    7.8703   55.1252   17.3073 H   0  0  0  0  0  0
    2.2408   55.2136   15.8881 H   0  0  0  0  0  0
    1.5073   55.1299   17.4638 H   0  0  0  0  0  0
  1  2  1  0  0  0
  1 32  1  0  0  0
  1 33  1  0  0  0
  1 34  1  0  0  0
  2  3  1  0  0  0
  2  4  1  0  0  0
  2 14  1  0  0  0
  4  9  1  0  0  0
  4 13  1  0  0  0
  4  5  1  0  0  0
  5  6  1  0  0  0
  5 35  1  0  0  0
  5 36  1  0  0  0
  6 12  1  0  0  0
  6  7  1  0  0  0
  6 37  1  0  0  0
  7  8  1  0  0  0
  7 38  1  0  0  0
  7 39  1  0  0  0
  8  9  1  0  0  0
  8 10  1  0  0  0
  8 40  1  0  0  0
  9 41  1  0  0  0
  9 42  1  0  0  0
 10 11  1  0  0  0
 10 43  1  0  0  0
 10 44  1  0  0  0
 11 12  1  0  0  0
 11 13  1  0  0  0
 11 45  1  0  0  0
 12 46  1  0  0  0
 12 47  1  0  0  0
 13 48  1  0  0  0
 13 49  1  0  0  0
 14 15  1  0  0  0
 14 50  1  0  0  0
 15 16  2  0  0  0
 15 17  1  0  0  0
 17 18  1  0  0  0
 17 51  1  0  0  0
 17 52  1  0  0  0
 18 19  1  0  0  0
 19 20  2  0  0  0
 19 21  1  0  0  0
 21 26  2  0  0  0
 21 22  1  0  0  0
 22 23  2  0  0  0
 22 53  1  0  0  0
 23 24  1  0  0  0
 23 28  1  0  0  0
 24 25  2  0  0  0
 24 54  1  0  0  0
 25 26  1  0  0  0
 25 55  1  0  0  0
 26 27  1  0  0  0
 28 29  2  0  0  0
 28 30  2  0  0  0
 28 31  1  0  0  0
 31 56  1  0  0  0
 31 57  1  0  0  0
M  END
> <i_i_glide_confnum>
150

> <i_i_glide_lignum>
433

> <i_i_glide_posenum>
105

> <i_i_glide_rotatable_bonds>
8

> <i_m_Source_File_Index>
1043

> <b_m_subgroup_collapsed>
0

> <r_i_docking_score>
-4.045

> <r_i_glide_ecoul>
0.831297

> <r_i_glide_eff_state_penalty>
0

> <r_i_glide_einternal>
2.04416

> <r_i_glide_emodel>
-43.4275

> <r_i_glide_energy>
-35.1747

> <r_i_glide_erotb>
0.491045

> <r_i_glide_esite>
-0.0629913

> <r_i_glide_evdw>
-36.006

> <r_i_glide_gscore>
-4.045

> <r_i_glide_hbond>
0

> <r_i_glide_ligand_efficiency>
-0.134833

> <r_i_glide_ligand_efficiency_ln>
-0.919069

> <r_i_glide_ligand_efficiency_sa>
-0.418959

> <r_i_glide_lipo>
-2.17669

> <r_i_glide_metal>
0

> <r_i_glide_rewards>
-0.620767

> <s_i_glide_gridfile>
wee1_glide-grid

> <s_m_Source_File>
wee1_decoys_glide_SP.sdf

> <s_m_Source_Path>
/Users/zhangxujun/Desktop

> <s_m_entry_id>
1318

> <s_m_entry_name>
wee1_decoys_glide_SP.1043

> <s_m_subgroup_title>
wee1_decoys_glide_SP

> <s_m_subgroupid>
wee1_decoys_glide_SP


$$$$
