@<TRIPOS>MOLECULE
ZINC59437832_961
50   53    1
SMALL
USER_CHARGES


@<TRIPOS>ATOM
      1 C1          7.1043   54.7210   23.1611 C.3       1 UNK         0.0000 
      2 O2          5.7022   54.4963   23.1671 O.3       1 UNK         0.0000 
      3 C3          5.0369   54.3710   24.3740 C.ar      1 UNK         0.0000 
      4 C4          5.6612   54.4966   25.6255 C.ar      1 UNK         0.0000 
      5 C5          4.9349   54.3340   26.8026 C.ar      1 UNK         0.0000 
      6 C6          3.5676   54.0358   26.7655 C.ar      1 UNK         0.0000 
      7 C7          2.9435   53.9303   25.5104 C.ar      1 UNK         0.0000 
      8 C8          3.6633   54.0968   24.3159 C.ar      1 UNK         0.0000 
      9 O9          3.0926   53.9951   23.0584 O.3       1 UNK         0.0000 
     10 C10         1.7074   53.6972   22.9309 C.3       1 UNK         0.0000 
     11 C11         2.8025   53.8318   28.0579 C.2       1 UNK         0.0000 
     12 O12         3.2486   54.2856   29.1163 O.2       1 UNK         0.0000 
     13 N13         1.6565   53.1134   27.9311 N.am      1 UNK         0.0000 
     14 C14         0.7086   52.6836   28.8292 C.2       1 UNK         0.0000 
     15 S15         0.7021   52.8969   30.4850 S.2       1 UNK         0.0000 
     16 N16        -0.3576   52.0176   28.2954 N.pl3     1 UNK         0.0000 
     17 C17        -0.6016   51.7128   26.9475 C.ar      1 UNK         0.0000 
     18 C18        -1.7285   52.2590   26.3269 C.ar      1 UNK         0.0000 
     19 C19        -2.0082   52.0167   24.9818 C.ar      1 UNK         0.0000 
     20 C20        -1.1256   51.2010   24.2624 C.ar      1 UNK         0.0000 
     21 C21         0.0096   50.6316   24.8898 C.ar      1 UNK         0.0000 
     22 C22         0.2664   50.8667   26.2476 C.ar      1 UNK         0.0000 
     23 N23         0.7035   49.8923   23.9830 N.2       1 UNK         0.0000 
     24 N24        -0.0602   50.0366   22.8736 N.pl3     1 UNK         0.0000 
     25 N25        -1.1677   50.8114   22.9616 N.2       1 UNK         0.0000 
     26 C26         0.2708   49.3827   21.6639 C.ar      1 UNK         0.0000 
     27 C27        -0.7411   48.8103   20.8804 C.ar      1 UNK         0.0000 
     28 C28        -0.4165   48.1373   19.7056 C.ar      1 UNK         0.0000 
     29 C29         0.9140   48.0466   19.3065 C.ar      1 UNK         0.0000 
     30 C30         1.9215   48.6339   20.0661 C.ar      1 UNK         0.0000 
     31 C31         1.6065   49.2972   21.2499 C.ar      1 UNK         0.0000 
     32 Br32        1.3619   47.0995   17.7173 Br        1 UNK         0.0000 
     33 H33         7.4555   54.8069   22.1330 H         1 UNK         0.0000 
     34 H34         7.6314   53.8853   23.6243 H         1 UNK         0.0000 
     35 H35         7.3640   55.6489   23.6728 H         1 UNK         0.0000 
     36 H36         6.7155   54.7077   25.7063 H         1 UNK         0.0000 
     37 H37         5.4527   54.4275   27.7482 H         1 UNK         0.0000 
     38 H38         1.8861   53.7230   25.4571 H         1 UNK         0.0000 
     39 H39         1.4502   53.6244   21.8752 H         1 UNK         0.0000 
     40 H40         1.4586   52.7408   23.3918 H         1 UNK         0.0000 
     41 H41         1.0908   54.4832   23.3691 H         1 UNK         0.0000 
     42 H42         1.4762   52.8170   26.9850 H         1 UNK         0.0000 
     43 H43        -1.0773   51.7301   28.9435 H         1 UNK         0.0000 
     44 H44        -2.3996   52.8959   26.8816 H         1 UNK         0.0000 
     45 H45        -2.8801   52.4473   24.5118 H         1 UNK         0.0000 
     46 H46         1.1044   50.4038   26.7441 H         1 UNK         0.0000 
     47 H47        -1.7769   48.8675   21.1847 H         1 UNK         0.0000 
     48 H48        -1.1931   47.6819   19.1080 H         1 UNK         0.0000 
     49 H49         2.9482   48.5675   19.7344 H         1 UNK         0.0000 
     50 H50         2.4015   49.7364   21.8365 H         1 UNK         0.0000 
@<TRIPOS>BOND
     1    1    2 1    
     2    1   33 1    
     3    1   34 1    
     4    1   35 1    
     5    2    3 1    
     6    3    8 ar   
     7    3    4 ar   
     8    4    5 ar   
     9    4   36 1    
    10    5    6 ar   
    11    5   37 1    
    12    6    7 ar   
    13    6   11 1    
    14    7    8 ar   
    15    7   38 1    
    16    8    9 1    
    17    9   10 1    
    18   10   39 1    
    19   10   40 1    
    20   10   41 1    
    21   11   12 2    
    22   11   13 am   BACKBONE|DICT|INTERRES
    23   13   14 am   BACKBONE|DICT|INTERRES
    24   13   42 1    
    25   14   15 2    
    26   14   16 1    
    27   16   17 1    
    28   16   43 1    
    29   17   22 ar   
    30   17   18 ar   
    31   18   19 ar   
    32   18   44 1    
    33   19   20 ar   
    34   19   45 1    
    35   20   25 ar   
    36   20   21 ar   
    37   21   22 ar   
    38   21   23 ar   
    39   22   46 1    
    40   23   24 ar   
    41   24   25 ar   
    42   24   26 1    
    43   26   31 ar   
    44   26   27 ar   
    45   27   28 ar   
    46   27   47 1    
    47   28   29 ar   
    48   28   48 1    
    49   29   30 ar   
    50   29   32 1    
    51   30   31 ar   
    52   30   49 1    
    53   31   50 1    
@<TRIPOS>SUBSTRUCTURE
     1 UNK         1 GROUP             0       ****    0 ROOT    
