@<TRIPOS>MOLECULE
ZINC09135450_2133
63   65    1
SMALL
USER_CHARGES


@<TRIPOS>ATOM
      1 C1         -7.9098   49.4965   32.0964 C.3       1 UNK         0.0000 
      2 C2         -6.8088   49.6763   31.0667 C.ar      1 UNK         0.0000 
      3 C3         -5.5003   49.9229   31.4811 C.ar      1 UNK         0.0000 
      4 C4         -4.4938   50.0989   30.5369 C.ar      1 UNK         0.0000 
      5 C5         -4.7803   50.0647   29.1688 C.ar      1 UNK         0.0000 
      6 C6         -6.0972   49.7924   28.7433 C.ar      1 UNK         0.0000 
      7 C7         -7.0991   49.6092   29.7031 C.ar      1 UNK         0.0000 
      8 C8         -6.4665   49.6222   27.2747 C.3       1 UNK         0.0000 
      9 N9         -3.6956   50.3003   28.3066 N.am      1 UNK         0.0000 
     10 C10        -3.6100   51.3289   27.4190 C.2       1 UNK         0.0000 
     11 O11        -4.5764   52.0266   27.0990 O.2       1 UNK         0.0000 
     12 C12        -2.2383   51.6767   26.8941 C.2       1 UNK         0.0000 
     13 O13        -2.0546   52.6669   26.1839 O.2       1 UNK         0.0000 
     14 N14        -1.2124   50.8953   27.2875 N.am      1 UNK         0.0000 
     15 C15         0.2025   51.0511   26.9415 C.3       1 UNK         0.0000 
     16 C16         1.0434   52.1730   27.6554 C.3       1 UNK         0.0000 
     17 H17         1.7439   51.6560   28.3173 H         1 UNK         0.0000 
     18 C18         1.9283   52.9737   26.6852 C.ar      1 UNK         0.0000 
     19 C19         1.5042   53.2969   25.3956 C.ar      1 UNK         0.0000 
     20 C20         2.3977   53.8227   24.4698 C.ar      1 UNK         0.0000 
     21 C21         3.7442   54.0294   24.7995 C.ar      1 UNK         0.0000 
     22 C22         4.1583   53.8219   26.1380 C.ar      1 UNK         0.0000 
     23 C23         3.2384   53.2991   27.0535 C.ar      1 UNK         0.0000 
     24 C24         5.6094   54.0333   26.5702 C.3       1 UNK         0.0000 
     25 C25         6.3561   54.9276   25.5779 C.3       1 UNK         0.0000 
     26 C26         6.0858   54.4783   24.1372 C.3       1 UNK         0.0000 
     27 N27         4.6488   54.4967   23.8329 N.pl3     1 UNK         0.0000 
     28 C28         4.4989   54.2514   22.3952 C.3       1 UNK         0.0000 
     29 C29        -0.1085   52.2328   29.9776 C.3       1 UNK         0.0000 
     30 C30         0.8369   54.3767   29.0413 C.3       1 UNK         0.0000 
     31 H31        -7.7025   50.0775   32.9966 H         1 UNK         0.0000 
     32 H32        -8.0038   48.4478   32.3749 H         1 UNK         0.0000 
     33 H33        -8.8693   49.8462   31.7113 H         1 UNK         0.0000 
     34 H34        -5.2544   49.9762   32.5326 H         1 UNK         0.0000 
     35 H35        -3.4841   50.2723   30.8850 H         1 UNK         0.0000 
     36 H36        -8.1111   49.4053   29.3838 H         1 UNK         0.0000 
     37 H37        -6.8061   50.5658   26.8504 H         1 UNK         0.0000 
     38 H38        -5.6248   49.2528   26.6907 H         1 UNK         0.0000 
     39 H39        -7.2603   48.8861   27.1570 H         1 UNK         0.0000 
     40 H40        -2.8638   49.7624   28.5219 H         1 UNK         0.0000 
     41 H41        -1.4033   50.0238   27.7889 H         1 UNK         0.0000 
     42 H42         0.6699   50.0954   27.1751 H         1 UNK         0.0000 
     43 H43         0.2803   51.0821   25.8550 H         1 UNK         0.0000 
     44 H44         0.4857   53.1134   25.0818 H         1 UNK         0.0000 
     45 H45         2.0262   54.0323   23.4789 H         1 UNK         0.0000 
     46 H46         3.5864   53.0623   28.0489 H         1 UNK         0.0000 
     47 H47         5.6599   54.4538   27.5744 H         1 UNK         0.0000 
     48 H48         6.0963   53.0596   26.6168 H         1 UNK         0.0000 
     49 H49         7.4250   54.8965   25.7773 H         1 UNK         0.0000 
     50 H50         6.0552   55.9687   25.6912 H         1 UNK         0.0000 
     51 H51         6.4029   53.4380   24.0373 H         1 UNK         0.0000 
     52 H52         6.6900   55.0013   23.3928 H         1 UNK         0.0000 
     53 H53         4.7373   53.2146   22.1498 H         1 UNK         0.0000 
     54 H54         3.4888   54.4588   22.0427 H         1 UNK         0.0000 
     55 H55         5.1552   54.8964   21.8096 H         1 UNK         0.0000 
     56 H56         0.8318   52.0295   30.4966 H         1 UNK         0.0000 
     57 H57        -0.7607   52.8509   30.5986 H         1 UNK         0.0000 
     58 H58        -0.6140   51.2970   29.7345 H         1 UNK         0.0000 
     59 H59         1.8374   54.1897   29.4357 H         1 UNK         0.0000 
     60 H60         0.8746   54.9813   28.1332 H         1 UNK         0.0000 
     61 H61         0.2095   54.8573   29.7936 H         1 UNK         0.0000 
     62 N62         0.2088   53.0117   28.6724 N.4       1 UNK         0.0000 
     63 H63        -0.6708   53.1945   28.2027 H         1 UNK         0.0000 
@<TRIPOS>BOND
     1    1    2 1    
     2    1   31 1    
     3    1   32 1    
     4    1   33 1    
     5    2    7 ar   
     6    2    3 ar   
     7    3    4 ar   
     8    3   34 1    
     9    4    5 ar   
    10    4   35 1    
    11    5    6 ar   
    12    5    9 1    
    13    6    7 ar   
    14    6    8 1    
    15    7   36 1    
    16    8   37 1    
    17    8   38 1    
    18    8   39 1    
    19    9   10 am   BACKBONE|DICT|INTERRES
    20    9   40 1    
    21   10   11 2    
    22   10   12 1    
    23   12   13 2    
    24   12   14 am   BACKBONE|DICT|INTERRES
    25   14   15 1    
    26   14   41 1    
    27   15   16 1    
    28   15   42 1    
    29   15   43 1    
    30   16   17 1    
    31   16   18 1    
    32   16   62 1    
    33   18   23 ar   
    34   18   19 ar   
    35   19   20 ar   
    36   19   44 1    
    37   20   21 ar   
    38   20   45 1    
    39   21   27 1    
    40   21   22 ar   
    41   22   23 ar   
    42   22   24 1    
    43   23   46 1    
    44   24   25 1    
    45   24   47 1    
    46   24   48 1    
    47   25   26 1    
    48   25   49 1    
    49   25   50 1    
    50   26   27 1    
    51   26   51 1    
    52   26   52 1    
    53   27   28 1    
    54   28   53 1    
    55   28   54 1    
    56   28   55 1    
    57   29   56 1    
    58   29   57 1    
    59   29   58 1    
    60   29   62 1    
    61   30   59 1    
    62   30   60 1    
    63   30   61 1    
    64   30   62 1    
    65   62   63 1    
@<TRIPOS>SUBSTRUCTURE
     1 UNK         1 GROUP             0       ****    0 ROOT    
