@<TRIPOS>MOLECULE
ZINC15245020_2251
55   58    1
SMALL
USER_CHARGES


@<TRIPOS>ATOM
      1 C1          0.0498   48.9208   22.8881 C.3       1 UNK         0.0000 
      2 C2          0.8331   49.2967   21.6429 C.ar      1 UNK         0.0000 
      3 C3          0.6355   48.6059   20.4444 C.ar      1 UNK         0.0000 
      4 C4          1.3777   48.9410   19.3129 C.ar      1 UNK         0.0000 
      5 C5          2.3051   49.9796   19.3692 C.ar      1 UNK         0.0000 
      6 C6          2.4996   50.6959   20.5537 C.ar      1 UNK         0.0000 
      7 C7          1.7670   50.3342   21.6977 C.ar      1 UNK         0.0000 
      8 N8          3.4550   51.7286   20.5151 N.am      1 UNK         0.0000 
      9 C9          3.5866   52.7881   21.3480 C.2       1 UNK         0.0000 
     10 O10         2.8434   53.0057   22.3086 O.2       1 UNK         0.0000 
     11 C11         4.7460   53.7278   21.0496 C.ar      1 UNK         0.0000 
     12 C12         5.1878   53.8837   19.7218 C.ar      1 UNK         0.0000 
     13 C13         6.2503   54.7274   19.4079 C.ar      1 UNK         0.0000 
     14 C14         6.9033   55.4279   20.4150 C.ar      1 UNK         0.0000 
     15 C15         6.4825   55.2964   21.7350 C.ar      1 UNK         0.0000 
     16 C16         5.3998   54.4683   22.0699 C.ar      1 UNK         0.0000 
     17 N17         4.9744   54.3786   23.4093 N.pl3     1 UNK         0.0000 
     18 S18         6.0142   54.6629   24.8111 S.o2      1 UNK         0.0000 
     19 O19         6.3044   56.0966   24.8820 O.2       1 UNK         0.0000 
     20 O20         7.1044   53.6968   24.7002 O.2       1 UNK         0.0000 
     21 C21         5.0663   54.2463   26.2621 C.ar      1 UNK         0.0000 
     22 C22         5.7109   53.6650   27.3557 C.ar      1 UNK         0.0000 
     23 C23         4.9781   53.2864   28.4793 C.ar      1 UNK         0.0000 
     24 C24         3.5951   53.5027   28.5169 C.ar      1 UNK         0.0000 
     25 C25         2.9662   54.1440   27.4535 C.ar      1 UNK         0.0000 
     26 C26         3.6927   54.4961   26.3133 C.ar      1 UNK         0.0000 
     27 C27         1.4990   54.2807   27.7321 C.3       1 UNK         0.0000 
     28 C28         1.3390   53.7689   29.1573 C.3       1 UNK         0.0000 
     29 N29         2.6432   53.1998   29.5098 N.am      1 UNK         0.0000 
     30 C30         2.8219   52.4946   30.6539 C.2       1 UNK         0.0000 
     31 O31         3.9005   52.0056   30.9901 O.2       1 UNK         0.0000 
     32 C32         1.6223   52.2670   31.5854 C.3       1 UNK         0.0000 
     33 H33        -0.6608   48.1146   22.7033 H         1 UNK         0.0000 
     34 H34         0.7299   48.6063   23.6803 H         1 UNK         0.0000 
     35 H35        -0.5027   49.7848   23.2587 H         1 UNK         0.0000 
     36 H36        -0.0821   47.8007   20.3890 H         1 UNK         0.0000 
     37 H37         1.2397   48.3980   18.3896 H         1 UNK         0.0000 
     38 H38         2.8769   50.2180   18.4815 H         1 UNK         0.0000 
     39 H39         1.9158   50.8360   22.6410 H         1 UNK         0.0000 
     40 H40         4.0975   51.6729   19.7367 H         1 UNK         0.0000 
     41 H41         4.7101   53.3581   18.9058 H         1 UNK         0.0000 
     42 H42         6.5728   54.8291   18.3818 H         1 UNK         0.0000 
     43 H43         7.7389   56.0682   20.1730 H         1 UNK         0.0000 
     44 H44         7.0100   55.8525   22.4945 H         1 UNK         0.0000 
     45 H45         4.1209   53.8567   23.5604 H         1 UNK         0.0000 
     46 H46         6.7737   53.4711   27.3255 H         1 UNK         0.0000 
     47 H47         5.5026   52.7977   29.2819 H         1 UNK         0.0000 
     48 H48         3.1984   54.9511   25.4673 H         1 UNK         0.0000 
     49 H49         0.9349   53.6408   27.0532 H         1 UNK         0.0000 
     50 H50         1.1140   55.2980   27.6815 H         1 UNK         0.0000 
     51 H51         0.5111   53.0611   29.2302 H         1 UNK         0.0000 
     52 H52         1.1728   54.6186   29.8223 H         1 UNK         0.0000 
     53 H53         1.1821   53.2079   31.9154 H         1 UNK         0.0000 
     54 H54         1.9197   51.7072   32.4739 H         1 UNK         0.0000 
     55 H55         0.8446   51.6975   31.0783 H         1 UNK         0.0000 
@<TRIPOS>BOND
     1    1    2 1    
     2    1   33 1    
     3    1   34 1    
     4    1   35 1    
     5    2    7 ar   
     6    2    3 ar   
     7    3    4 ar   
     8    3   36 1    
     9    4    5 ar   
    10    4   37 1    
    11    5    6 ar   
    12    5   38 1    
    13    6    7 ar   
    14    6    8 1    
    15    7   39 1    
    16    8    9 am   BACKBONE|DICT|INTERRES
    17    8   40 1    
    18    9   10 2    
    19    9   11 1    
    20   11   16 ar   
    21   11   12 ar   
    22   12   13 ar   
    23   12   41 1    
    24   13   14 ar   
    25   13   42 1    
    26   14   15 ar   
    27   14   43 1    
    28   15   16 ar   
    29   15   44 1    
    30   16   17 1    
    31   17   18 1    
    32   17   45 1    
    33   18   19 2    
    34   18   20 2    
    35   18   21 1    
    36   21   26 ar   
    37   21   22 ar   
    38   22   23 ar   
    39   22   46 1    
    40   23   24 ar   
    41   23   47 1    
    42   24   29 1    
    43   24   25 ar   
    44   25   26 ar   
    45   25   27 1    
    46   26   48 1    
    47   27   28 1    
    48   27   49 1    
    49   27   50 1    
    50   28   29 1    
    51   28   51 1    
    52   28   52 1    
    53   29   30 am   BACKBONE|DICT|INTERRES
    54   30   31 2    
    55   30   32 1    
    56   32   53 1    
    57   32   54 1    
    58   32   55 1    
@<TRIPOS>SUBSTRUCTURE
     1 UNK         1 GROUP             0       ****    0 ROOT    
