ZINC49475875_1697
                    3D
 Schrodinger Suite 2024-2.
 30 32  0  0  1  0            999 V2000
    1.2904   56.1894   30.2255 C   0  0  0  0  0  0
    1.0884   54.6930   30.3419 C   0  0  0  0  0  0
    1.6396   53.6562   29.5647 C   0  0  0  0  0  0
    1.0280   52.4973   30.0059 C   0  0  0  0  0  0
    0.2624   52.8898   31.0706 N   0  0  0  0  0  0
   -0.3078   52.2762   31.6506 H   0  0  0  0  0  0
    0.3040   54.2091   31.2798 N   0  0  0  0  0  0
    2.5472   53.7633   28.5370 N   0  0  0  0  0  0
    3.8077   54.2020   28.7208 C   0  0  0  0  0  0
    4.2949   54.4965   29.8136 O   0  0  0  0  0  0
    4.5825   54.3255   27.5162 C   0  0  0  0  0  0
    4.2531   54.1869   26.1658 C   0  0  0  0  0  0
    5.4255   54.4992   25.4599 C   0  0  0  0  0  0
    6.4146   54.8104   26.2737 N   0  0  0  0  0  0
    5.9010   54.7026   27.4999 N   0  0  0  0  0  0
    6.4369   54.9254   28.3308 H   0  0  0  0  0  0
    5.6039   54.4981   23.9558 C   0  0  0  0  0  0
    6.7043   55.2618   23.2533 C   0  0  0  0  0  0
    6.7428   53.7468   23.3350 C   0  0  0  0  0  0
    2.5825   53.6960   25.3813 Br  0  0  0  0  0  0
    1.1131   56.5347   29.2065 H   0  0  0  0  0  0
    0.6332   56.7625   30.8786 H   0  0  0  0  0  0
    2.3042   56.4803   30.4815 H   0  0  0  0  0  0
    1.0859   51.4689   29.6820 H   0  0  0  0  0  0
    2.2773   53.4360   27.6202 H   0  0  0  0  0  0
    4.6593   54.4618   23.4122 H   0  0  0  0  0  0
    6.4857   55.7287   22.2926 H   0  0  0  0  0  0
    7.4123   55.8435   23.8447 H   0  0  0  0  0  0
    7.5039   53.2963   23.9733 H   0  0  0  0  0  0
    6.4790   53.1281   22.4820 H   0  0  0  0  0  0
  1  2  1  0  0  0
  1 21  1  0  0  0
  1 22  1  0  0  0
  1 23  1  0  0  0
  2  7  2  0  0  0
  2  3  1  0  0  0
  3  4  2  0  0  0
  3  8  1  0  0  0
  4  5  1  0  0  0
  4 24  1  0  0  0
  5  6  1  0  0  0
  5  7  1  0  0  0
  8  9  1  0  0  0
  8 25  1  0  0  0
  9 10  2  0  0  0
  9 11  1  0  0  0
 11 15  1  0  0  0
 11 12  2  0  0  0
 12 13  1  0  0  0
 12 20  1  0  0  0
 13 14  2  0  0  0
 13 17  1  0  0  0
 14 15  1  0  0  0
 15 16  1  0  0  0
 17 19  1  0  0  0
 17 18  1  0  0  0
 17 26  1  0  0  0
 18 19  1  0  0  0
 18 27  1  0  0  0
 18 28  1  0  0  0
 19 29  1  0  0  0
 19 30  1  0  0  0
M  END
> <i_i_glide_confnum>
32

> <i_i_glide_lignum>
1698

> <i_i_glide_posenum>
288

> <i_i_glide_rotatable_bonds>
4

> <i_m_Source_File_Index>
2317

> <b_m_subgroup_collapsed>
0

> <r_i_docking_score>
-8.06994

> <r_i_glide_ecoul>
-5.78895

> <r_i_glide_eff_state_penalty>
0

> <r_i_glide_einternal>
2.83808

> <r_i_glide_emodel>
-63.9962

> <r_i_glide_energy>
-43.6317

> <r_i_glide_erotb>
0.770392

> <r_i_glide_esite>
-0.0851702

> <r_i_glide_evdw>
-37.8428

> <r_i_glide_gscore>
-8.06994

> <r_i_glide_hbond>
-0.371903

> <r_i_glide_ligand_efficiency>
-0.44833

> <r_i_glide_ligand_efficiency_ln>
-2.07434

> <r_i_glide_ligand_efficiency_sa>
-1.17496

> <r_i_glide_lipo>
-2.40923

> <r_i_glide_metal>
0

> <r_i_glide_rewards>
-3.21355

> <s_i_glide_gridfile>
wee1_glide-grid

> <s_m_Source_File>
wee1_decoys_glide_SP.sdf

> <s_m_Source_Path>
/Users/zhangxujun/Desktop

> <s_m_entry_id>
2592

> <s_m_entry_name>
wee1_decoys_glide_SP.2317

> <s_m_subgroup_title>
wee1_decoys_glide_SP

> <s_m_subgroupid>
wee1_decoys_glide_SP


$$$$
