@<TRIPOS>MOLECULE
ZINC18597318_4430
46   47    1
SMALL
USER_CHARGES


@<TRIPOS>ATOM
      1 C1          0.4126   54.2250   28.7221 C.3       1 UNK         0.0000 
      2 C2          0.6788   52.7043   28.7193 C.3       1 UNK         0.0000 
      3 H3         -0.1673   52.2578   29.2430 H         1 UNK         0.0000 
      4 C4          0.6767   52.1392   27.2799 C.2       1 UNK         0.0000 
      5 O5          1.2037   52.8025   26.3825 O.2       1 UNK         0.0000 
      6 N6          0.0693   50.9442   27.0961 N.am      1 UNK         0.0000 
      7 C7         -0.1311   50.3191   25.9186 C.2       1 UNK         0.0000 
      8 O8          0.3057   50.6805   24.8214 O.2       1 UNK         0.0000 
      9 N9         -0.9278   49.2509   26.0797 N.am      1 UNK         0.0000 
     10 C10        -1.5377   48.4171   25.0313 C.3       1 UNK         0.0000 
     11 C11        -2.5111   49.2410   24.1560 C.3       1 UNK         0.0000 
     12 C12        -2.3402   47.3026   25.7310 C.3       1 UNK         0.0000 
     13 C13        -0.4654   47.7502   24.1384 C.3       1 UNK         0.0000 
     14 S14         2.1607   52.2175   29.6871 S.3       1 UNK         0.0000 
     15 C15         3.4118   53.2317   28.9653 C.ar      1 UNK         0.0000 
     16 N16         3.6384   53.3178   27.6227 N.pl3     1 UNK         0.0000 
     17 H17         3.0791   52.8704   26.9082 H         1 UNK         0.0000 
     18 C18         4.6926   54.1578   27.4088 C.ar      1 UNK         0.0000 
     19 C19         5.0663   54.4947   28.7090 C.ar      1 UNK         0.0000 
     20 N20         4.2869   53.9447   29.6320 N.2       1 UNK         0.0000 
     21 C21         5.2076   54.4980   26.0536 C.ar      1 UNK         0.0000 
     22 C22         6.3776   55.2457   25.9317 C.ar      1 UNK         0.0000 
     23 C23         6.9116   55.4939   24.6705 C.ar      1 UNK         0.0000 
     24 C24         6.3045   54.9698   23.5350 C.ar      1 UNK         0.0000 
     25 C25         5.1144   54.2594   23.6440 C.ar      1 UNK         0.0000 
     26 C26         4.5527   54.0520   24.9002 C.ar      1 UNK         0.0000 
     27 Br27        7.0568   55.2971   21.8173 Br        1 UNK         0.0000 
     28 H28        -0.4417   54.4793   28.0920 H         1 UNK         0.0000 
     29 H29         0.2078   54.5779   29.7338 H         1 UNK         0.0000 
     30 H30         1.2647   54.7955   28.3473 H         1 UNK         0.0000 
     31 H31        -0.3297   50.4898   27.9040 H         1 UNK         0.0000 
     32 H32        -1.1048   48.8994   27.0282 H         1 UNK         0.0000 
     33 H33        -3.0003   48.6204   23.4044 H         1 UNK         0.0000 
     34 H34        -2.0004   50.0429   23.6222 H         1 UNK         0.0000 
     35 H35        -3.2943   49.7019   24.7572 H         1 UNK         0.0000 
     36 H36        -1.6958   46.6799   26.3559 H         1 UNK         0.0000 
     37 H37        -3.1084   47.7142   26.3868 H         1 UNK         0.0000 
     38 H38        -2.8361   46.6474   25.0163 H         1 UNK         0.0000 
     39 H39         0.3012   47.2673   24.7444 H         1 UNK         0.0000 
     40 H40        -0.8987   46.9963   23.4813 H         1 UNK         0.0000 
     41 H41         0.0466   48.4698   23.5011 H         1 UNK         0.0000 
     42 H42         5.9005   55.1295   28.9859 H         1 UNK         0.0000 
     43 H43         6.8739   55.6229   26.8144 H         1 UNK         0.0000 
     44 H44         7.8057   56.0918   24.5604 H         1 UNK         0.0000 
     45 H45         4.6216   53.8812   22.7581 H         1 UNK         0.0000 
     46 H46         3.6300   53.4923   24.9660 H         1 UNK         0.0000 
@<TRIPOS>BOND
     1    1    2 1    
     2    1   28 1    
     3    1   29 1    
     4    1   30 1    
     5    2    3 1    
     6    2    4 1    
     7    2   14 1    
     8    4    5 2    
     9    4    6 am   BACKBONE|DICT|INTERRES
    10    6    7 am   BACKBONE|DICT|INTERRES
    11    6   31 1    
    12    7    8 2    
    13    7    9 am   BACKBONE|DICT|INTERRES
    14    9   10 1    
    15    9   32 1    
    16   10   11 1    
    17   10   12 1    
    18   10   13 1    
    19   11   33 1    
    20   11   34 1    
    21   11   35 1    
    22   12   36 1    
    23   12   37 1    
    24   12   38 1    
    25   13   39 1    
    26   13   40 1    
    27   13   41 1    
    28   14   15 1    
    29   15   20 ar   
    30   15   16 ar   
    31   16   17 1    
    32   16   18 ar   
    33   18   19 ar   
    34   18   21 1    
    35   19   20 ar   
    36   19   42 1    
    37   21   26 ar   
    38   21   22 ar   
    39   22   23 ar   
    40   22   43 1    
    41   23   24 ar   
    42   23   44 1    
    43   24   25 ar   
    44   24   27 1    
    45   25   26 ar   
    46   25   45 1    
    47   26   46 1    
@<TRIPOS>SUBSTRUCTURE
     1 UNK         1 GROUP             0       ****    0 ROOT    
