@<TRIPOS>MOLECULE
ZINC08915217_5280
50   53    1
SMALL
USER_CHARGES


@<TRIPOS>ATOM
      1 C1          4.9860   56.7787   15.8709 C.3       1 UNK         0.0000 
      2 S2          5.6042   57.0572   17.5545 S.3       1 UNK         0.0000 
      3 C3          5.3683   55.5681   18.4740 C.ar      1 UNK         0.0000 
      4 N4          4.8427   54.4877   17.8379 N.ar      1 UNK         0.0000 
      5 C5          4.6620   53.3722   18.5915 C.ar      1 UNK         0.0000 
      6 C6          4.9783   53.3202   19.9525 C.ar      1 UNK         0.0000 
      7 C7          5.5041   54.4961   20.5253 C.ar      1 UNK         0.0000 
      8 N8          5.7268   55.6144   19.7809 N.ar      1 UNK         0.0000 
      9 C9          5.8930   54.5912   21.9741 C.2       1 UNK         0.0000 
     10 O10         7.0413   54.9000   22.2934 O.2       1 UNK         0.0000 
     11 N11         4.8769   54.3426   22.8224 N.am      1 UNK         0.0000 
     12 C12         4.8684   54.3322   24.2176 C.2       1 UNK         0.0000 
     13 C13         3.7431   54.0151   25.0119 C.2       1 UNK         0.0000 
     14 C14         4.0825   54.0464   26.3843 C.2       1 UNK         0.0000 
     15 C15         5.4059   54.3467   26.6226 C.2       1 UNK         0.0000 
     16 S16         6.3046   54.6371   25.1846 S.3       1 UNK         0.0000 
     17 C17         5.7622   54.3608   28.0818 C.3       1 UNK         0.0000 
     18 C18         4.3730   54.2979   28.7374 C.3       1 UNK         0.0000 
     19 C19         3.3806   53.7636   27.6917 C.3       1 UNK         0.0000 
     20 C20         2.4210   53.7439   24.4757 C.2       1 UNK         0.0000 
     21 O21         2.0907   54.1289   23.3514 O.2       1 UNK         0.0000 
     22 N22         1.6186   53.0033   25.2596 N.am      1 UNK         0.0000 
     23 C23         0.2996   52.5017   24.8674 C.3       1 UNK         0.0000 
     24 C24         0.3617   51.3071   23.8755 C.3       1 UNK         0.0000 
     25 H25         1.1525   50.6082   24.1519 H         1 UNK         0.0000 
     26 C26         0.2331   51.6146   22.3774 C.3       1 UNK         0.0000 
     27 C27        -1.2521   51.6597   22.0786 C.3       1 UNK         0.0000 
     28 C28        -1.8996   50.9917   23.2898 C.3       1 UNK         0.0000 
     29 O29        -0.8101   50.5119   24.0771 O.3       1 UNK         0.0000 
     30 Br30        4.7028   51.6973   20.9214 Br        1 UNK         0.0000 
     31 H31         5.1152   57.6814   15.2745 H         1 UNK         0.0000 
     32 H32         5.5310   55.9656   15.3899 H         1 UNK         0.0000 
     33 H33         3.9248   56.5295   15.8901 H         1 UNK         0.0000 
     34 H34         4.2655   52.5010   18.0850 H         1 UNK         0.0000 
     35 H35         3.9788   54.1449   22.4043 H         1 UNK         0.0000 
     36 H36         6.3786   53.5069   28.3627 H         1 UNK         0.0000 
     37 H37         6.2999   55.2633   28.3716 H         1 UNK         0.0000 
     38 H38         4.3758   53.6940   29.6463 H         1 UNK         0.0000 
     39 H39         4.0650   55.2976   29.0426 H         1 UNK         0.0000 
     40 H40         2.4099   54.2516   27.7774 H         1 UNK         0.0000 
     41 H41         3.2291   52.6941   27.8409 H         1 UNK         0.0000 
     42 H42         1.9506   52.7435   26.1763 H         1 UNK         0.0000 
     43 H43        -0.3114   53.3103   24.4591 H         1 UNK         0.0000 
     44 H44        -0.2084   52.1847   25.7827 H         1 UNK         0.0000 
     45 H45         0.7128   50.8085   21.8180 H         1 UNK         0.0000 
     46 H46         0.7713   52.5119   22.0740 H         1 UNK         0.0000 
     47 H47        -1.4810   51.1348   21.1483 H         1 UNK         0.0000 
     48 H48        -1.6029   52.6862   21.9780 H         1 UNK         0.0000 
     49 H49        -2.5574   50.1673   23.0122 H         1 UNK         0.0000 
     50 H50        -2.4882   51.6995   23.8752 H         1 UNK         0.0000 
@<TRIPOS>BOND
     1    1    2 1    
     2    1   31 1    
     3    1   32 1    
     4    1   33 1    
     5    2    3 1    
     6    3    8 ar   
     7    3    4 ar   
     8    4    5 ar   
     9    5    6 ar   
    10    5   34 1    
    11    6    7 ar   
    12    6   30 1    
    13    7    8 ar   
    14    7    9 1    
    15    9   10 2    
    16    9   11 am   BACKBONE|DICT|INTERRES
    17   11   12 am   BACKBONE|DICT|INTERRES
    18   11   35 1    
    19   12   16 1    
    20   12   13 2    
    21   13   14 1    
    22   13   20 1    
    23   14   19 1    
    24   14   15 2    
    25   15   16 1    
    26   15   17 1    
    27   17   18 1    
    28   17   36 1    
    29   17   37 1    
    30   18   19 1    
    31   18   38 1    
    32   18   39 1    
    33   19   40 1    
    34   19   41 1    
    35   20   21 2    
    36   20   22 am   BACKBONE|DICT|INTERRES
    37   22   23 1    
    38   22   42 1    
    39   23   24 1    
    40   23   43 1    
    41   23   44 1    
    42   24   25 1    
    43   24   29 1    
    44   24   26 1    
    45   26   27 1    
    46   26   45 1    
    47   26   46 1    
    48   27   28 1    
    49   27   47 1    
    50   27   48 1    
    51   28   29 1    
    52   28   49 1    
    53   28   50 1    
@<TRIPOS>SUBSTRUCTURE
     1 UNK         1 GROUP             0       ****    0 ROOT    
