@<TRIPOS>MOLECULE
ZINC63393535_908
68   71    1
SMALL
USER_CHARGES


@<TRIPOS>ATOM
      1 C1          1.9044   56.8625   29.8306 C.3       1 UNK         0.0000 
      2 C2          1.3877   55.4483   29.6798 C.2       1 UNK         0.0000 
      3 C3          0.7045   54.7536   30.7677 C.2       1 UNK         0.0000 
      4 C4          0.1451   53.5233   30.6309 C.2       1 UNK         0.0000 
      5 C5          0.2039   52.8609   29.4016 C.2       1 UNK         0.0000 
      6 N6         -0.2875   51.6962   29.0549 N.pl3     1 UNK         0.0000 
      7 C7          0.0520   51.4094   27.6499 C.3       1 UNK         0.0000 
      8 C8          0.8361   52.6442   27.2550 C.2       1 UNK         0.0000 
      9 C9          0.8666   53.4546   28.3255 C.2       1 UNK         0.0000 
     10 C10         1.4603   54.7859   28.5056 C.2       1 UNK         0.0000 
     11 C11         1.4504   52.8103   25.8754 C.3       1 UNK         0.0000 
     12 C12         0.4982   52.5504   24.6924 C.3       1 UNK         0.0000 
     13 N13         1.2184   52.3122   23.4402 N.am      1 UNK         0.0000 
     14 C14         1.9113   53.3889   22.7344 C.3       1 UNK         0.0000 
     15 C15         2.4909   52.6922   21.5067 C.3       1 UNK         0.0000 
     16 H16         1.8536   52.9007   20.6448 H         1 UNK         0.0000 
     17 C17         2.4742   51.2061   21.8536 C.3       1 UNK         0.0000 
     18 C18         1.5041   51.0566   23.0197 C.2       1 UNK         0.0000 
     19 O19         1.1107   49.9891   23.4879 O.2       1 UNK         0.0000 
     20 C20         3.9062   53.2283   21.1977 C.2       1 UNK         0.0000 
     21 O21         4.7682   53.2195   22.0815 O.2       1 UNK         0.0000 
     22 N22         4.1124   53.6522   19.9343 N.am      1 UNK         0.0000 
     23 C23         5.2725   54.1965   19.3616 C.ar      1 UNK         0.0000 
     24 C24         6.2911   54.8214   20.0982 C.ar      1 UNK         0.0000 
     25 C25         7.4235   55.2977   19.4461 C.ar      1 UNK         0.0000 
     26 C26         7.5108   55.2072   18.0573 C.ar      1 UNK         0.0000 
     27 C27         6.4890   54.6119   17.3175 C.ar      1 UNK         0.0000 
     28 C28         5.3718   54.1089   17.9716 C.ar      1 UNK         0.0000 
     29 S29         8.9402   55.8814   17.2315 S.o2      1 UNK         0.0000 
     30 O30         8.6286   55.9856   15.8012 O.2       1 UNK         0.0000 
     31 O31        10.0821   55.0792   17.6817 O.2       1 UNK         0.0000 
     32 N32         9.1484   57.5060   17.9060 N.pl3     1 UNK         0.0000 
     33 C33         8.2037   58.6429   17.7005 C.3       1 UNK         0.0000 
     34 C34         8.9231   59.9017   18.2215 C.3       1 UNK         0.0000 
     35 C35         6.9023   58.4290   18.5035 C.3       1 UNK         0.0000 
     36 C36         7.8720   58.8444   16.2077 C.3       1 UNK         0.0000 
     37 H37         2.9833   56.8875   29.6827 H         1 UNK         0.0000 
     38 H38         1.5035   57.4977   29.0399 H         1 UNK         0.0000 
     39 H39         1.6476   57.2995   30.7956 H         1 UNK         0.0000 
     40 H40         0.6551   55.2387   31.7310 H         1 UNK         0.0000 
     41 H41        -0.3379   53.0681   31.4883 H         1 UNK         0.0000 
     42 H42        -0.8784   51.2637   27.1012 H         1 UNK         0.0000 
     43 H43         0.6424   50.4968   27.6117 H         1 UNK         0.0000 
     44 H44         1.9439   55.2896   27.6826 H         1 UNK         0.0000 
     45 H45         2.2723   52.0976   25.8290 H         1 UNK         0.0000 
     46 H46         1.9153   53.7906   25.7758 H         1 UNK         0.0000 
     47 H47        -0.2172   53.3667   24.5838 H         1 UNK         0.0000 
     48 H48        -0.1155   51.6743   24.9177 H         1 UNK         0.0000 
     49 H49         2.6767   53.7505   23.4260 H         1 UNK         0.0000 
     50 H50         1.2194   54.1916   22.4804 H         1 UNK         0.0000 
     51 H51         2.0442   50.6312   21.0320 H         1 UNK         0.0000 
     52 H52         3.4495   50.7711   22.0789 H         1 UNK         0.0000 
     53 H53         3.3663   53.4812   19.2769 H         1 UNK         0.0000 
     54 H54         6.2307   54.9273   21.1695 H         1 UNK         0.0000 
     55 H55         8.2186   55.7553   20.0170 H         1 UNK         0.0000 
     56 H56         6.5551   54.5406   16.2404 H         1 UNK         0.0000 
     57 H57         4.5927   53.6347   17.3910 H         1 UNK         0.0000 
     58 H58         9.6265   57.5131   18.8107 H         1 UNK         0.0000 
     59 H59         8.3046   60.7903   18.0946 H         1 UNK         0.0000 
     60 H60         9.8557   60.0768   17.6820 H         1 UNK         0.0000 
     61 H61         9.1678   59.8122   19.2795 H         1 UNK         0.0000 
     62 H62         6.3174   57.5954   18.1180 H         1 UNK         0.0000 
     63 H63         7.0882   58.2447   19.5589 H         1 UNK         0.0000 
     64 H64         6.2511   59.2963   18.4445 H         1 UNK         0.0000 
     65 H65         7.2504   58.0417   15.8146 H         1 UNK         0.0000 
     66 H66         7.3097   59.7681   16.0531 H         1 UNK         0.0000 
     67 H67         8.7740   58.9020   15.5981 H         1 UNK         0.0000 
     68 H68        -0.8148   51.0653   29.6560 H         1 UNK         0.0000 
@<TRIPOS>BOND
     1    1    2 1    
     2    1   37 1    
     3    1   38 1    
     4    1   39 1    
     5    2   10 2    
     6    2    3 1    
     7    3    4 2    
     8    3   40 1    
     9    4    5 1    
    10    4   41 1    
    11    5    9 1    
    12    5    6 2    
    13    6    7 1    
    14    6   68 1    
    15    7    8 1    
    16    7   42 1    
    17    7   43 1    
    18    8    9 2    
    19    8   11 1    
    20    9   10 1    
    21   10   44 1    
    22   11   12 1    
    23   11   45 1    
    24   11   46 1    
    25   12   13 1    
    26   12   47 1    
    27   12   48 1    
    28   13   18 am   BACKBONE|DICT|INTERRES
    29   13   14 1    
    30   14   15 1    
    31   14   49 1    
    32   14   50 1    
    33   15   16 1    
    34   15   17 1    
    35   15   20 1    
    36   17   18 1    
    37   17   51 1    
    38   17   52 1    
    39   18   19 2    
    40   20   21 2    
    41   20   22 am   BACKBONE|DICT|INTERRES
    42   22   23 1    
    43   22   53 1    
    44   23   28 ar   
    45   23   24 ar   
    46   24   25 ar   
    47   24   54 1    
    48   25   26 ar   
    49   25   55 1    
    50   26   27 ar   
    51   26   29 1    
    52   27   28 ar   
    53   27   56 1    
    54   28   57 1    
    55   29   30 2    
    56   29   31 2    
    57   29   32 1    
    58   32   33 1    
    59   32   58 1    
    60   33   34 1    
    61   33   35 1    
    62   33   36 1    
    63   34   59 1    
    64   34   60 1    
    65   34   61 1    
    66   35   62 1    
    67   35   63 1    
    68   35   64 1    
    69   36   65 1    
    70   36   66 1    
    71   36   67 1    
@<TRIPOS>SUBSTRUCTURE
     1 UNK         1 GROUP             0       ****    0 ROOT    
