@<TRIPOS>MOLECULE
ZINC00995183_4413
52   55    1
SMALL
USER_CHARGES


@<TRIPOS>ATOM
      1 C1         -4.9961   51.1678   25.2097 C.3       1 UNK         0.0000 
      2 C2         -3.9825   50.0569   25.5537 C.3       1 UNK         0.0000 
      3 C3         -2.6469   50.5141   26.1945 C.3       1 UNK         0.0000 
      4 H4         -2.0961   49.5950   26.4050 H         1 UNK         0.0000 
      5 C5         -2.8488   51.3018   27.5020 C.3       1 UNK         0.0000 
      6 C6         -1.5237   51.4619   28.2725 C.3       1 UNK         0.0000 
      7 C7         -0.4013   51.9571   27.3432 C.2       1 UNK         0.0000 
      8 C8         -0.5676   51.8804   25.9465 C.2       1 UNK         0.0000 
      9 S9          0.7775   52.5047   25.0847 S.3       1 UNK         0.0000 
     10 C10         1.6008   52.9117   26.5693 C.2       1 UNK         0.0000 
     11 C11         0.8571   52.5389   27.7157 C.2       1 UNK         0.0000 
     12 C12         1.3319   52.7860   29.0834 C.2       1 UNK         0.0000 
     13 O13         2.3170   53.4759   29.3331 O.2       1 UNK         0.0000 
     14 N14         0.6514   52.2229   30.0818 N.am      1 UNK         0.0000 
     15 N15         2.8907   53.4508   26.5421 N.am      1 UNK         0.0000 
     16 C16         3.5010   54.0957   25.5208 C.2       1 UNK         0.0000 
     17 O17         2.9285   54.4965   24.5086 O.2       1 UNK         0.0000 
     18 C18         4.9261   54.2876   25.6908 C.2       1 UNK         0.0000 
     19 C19         5.6336   54.3884   26.8870 C.2       1 UNK         0.0000 
     20 O20         6.9337   54.6361   26.6161 O.3       1 UNK         0.0000 
     21 N21         7.0940   54.7126   25.2395 N.2       1 UNK         0.0000 
     22 C22         5.9160   54.4972   24.6909 C.2       1 UNK         0.0000 
     23 C23         5.8329   54.4959   23.1799 C.ar      1 UNK         0.0000 
     24 C24         4.9168   53.6865   22.4965 C.ar      1 UNK         0.0000 
     25 C25         4.8159   53.7314   21.1084 C.ar      1 UNK         0.0000 
     26 C26         5.6585   54.5685   20.3848 C.ar      1 UNK         0.0000 
     27 C27         6.6137   55.3414   21.0369 C.ar      1 UNK         0.0000 
     28 C28         6.7046   55.2967   22.4251 C.ar      1 UNK         0.0000 
     29 C29         5.2925   54.2813   28.3533 C.3       1 UNK         0.0000 
     30 C30        -1.8039   51.3658   25.2177 C.3       1 UNK         0.0000 
     31 H31        -5.9022   50.7420   24.7756 H         1 UNK         0.0000 
     32 H32        -4.5970   51.8779   24.4859 H         1 UNK         0.0000 
     33 H33        -5.2990   51.7269   26.0963 H         1 UNK         0.0000 
     34 H34        -4.4659   49.3462   26.2244 H         1 UNK         0.0000 
     35 H35        -3.7636   49.4881   24.6486 H         1 UNK         0.0000 
     36 H36        -3.3430   52.2536   27.3077 H         1 UNK         0.0000 
     37 H37        -3.5406   50.7594   28.1469 H         1 UNK         0.0000 
     38 H38        -1.6989   52.0992   29.1317 H         1 UNK         0.0000 
     39 H39        -1.2295   50.5003   28.6775 H         1 UNK         0.0000 
     40 H40        -0.1330   51.6175   29.8894 H         1 UNK         0.0000 
     41 H41         0.9159   52.4043   31.0381 H         1 UNK         0.0000 
     42 H42         3.3750   53.4265   27.4268 H         1 UNK         0.0000 
     43 H43         4.2637   53.0160   23.0331 H         1 UNK         0.0000 
     44 H44         4.0881   53.1184   20.5967 H         1 UNK         0.0000 
     45 H45         5.5837   54.6003   19.3080 H         1 UNK         0.0000 
     46 H46         7.2800   55.9742   20.4681 H         1 UNK         0.0000 
     47 H47         7.4502   55.9069   22.9138 H         1 UNK         0.0000 
     48 H48         4.4934   54.9686   28.6344 H         1 UNK         0.0000 
     49 H49         4.9686   53.2718   28.6124 H         1 UNK         0.0000 
     50 H50         6.1488   54.5043   28.9902 H         1 UNK         0.0000 
     51 H51        -1.5304   50.7793   24.3393 H         1 UNK         0.0000 
     52 H52        -2.3746   52.2227   24.8604 H         1 UNK         0.0000 
@<TRIPOS>BOND
     1    1    2 1    
     2    1   31 1    
     3    1   32 1    
     4    1   33 1    
     5    2    3 1    
     6    2   34 1    
     7    2   35 1    
     8    3    4 1    
     9    3   30 1    
    10    3    5 1    
    11    5    6 1    
    12    5   36 1    
    13    5   37 1    
    14    6    7 1    
    15    6   38 1    
    16    6   39 1    
    17    7   11 1    
    18    7    8 2    
    19    8    9 1    
    20    8   30 1    
    21    9   10 1    
    22   10   11 2    
    23   10   15 am   BACKBONE|DICT|INTERRES
    24   11   12 1    
    25   12   13 2    
    26   12   14 am   BACKBONE|DICT|INTERRES
    27   14   40 1    
    28   14   41 1    
    29   15   16 am   BACKBONE|DICT|INTERRES
    30   15   42 1    
    31   16   17 2    
    32   16   18 1    
    33   18   22 1    
    34   18   19 2    
    35   19   20 1    
    36   19   29 1    
    37   20   21 1    
    38   21   22 2    
    39   22   23 1    
    40   23   28 ar   
    41   23   24 ar   
    42   24   25 ar   
    43   24   43 1    
    44   25   26 ar   
    45   25   44 1    
    46   26   27 ar   
    47   26   45 1    
    48   27   28 ar   
    49   27   46 1    
    50   28   47 1    
    51   29   48 1    
    52   29   49 1    
    53   29   50 1    
    54   30   51 1    
    55   30   52 1    
@<TRIPOS>SUBSTRUCTURE
     1 UNK         1 GROUP             0       ****    0 ROOT    
