@<TRIPOS>MOLECULE
ZINC65074748_810
61   64    1
SMALL
USER_CHARGES


@<TRIPOS>ATOM
      1 C1          3.6045   54.2468   28.0549 C.3       1 UNK         0.0000 
      2 C2          4.2545   54.2789   26.6838 C.ar      1 UNK         0.0000 
      3 C3          5.6293   54.4745   26.5627 C.ar      1 UNK         0.0000 
      4 C4          6.2198   54.4964   25.3022 C.ar      1 UNK         0.0000 
      5 C5          5.4531   54.3199   24.1447 C.ar      1 UNK         0.0000 
      6 C6          4.0583   54.1097   24.2598 C.ar      1 UNK         0.0000 
      7 C7          3.4802   54.0960   25.5361 C.ar      1 UNK         0.0000 
      8 S8          2.9277   53.9428   22.8502 S.o2      1 UNK         0.0000 
      9 O9          3.5977   54.4968   21.6732 O.2       1 UNK         0.0000 
     10 O10         1.6392   54.4967   23.2850 O.2       1 UNK         0.0000 
     11 N11         2.7043   52.1962   22.6020 N.pl3     1 UNK         0.0000 
     12 C12         3.6420   51.5086   21.6821 C.3       1 UNK         0.0000 
     13 C13         3.1964   51.6567   20.2150 C.3       1 UNK         0.0000 
     14 C14         1.7479   51.1320   19.9862 C.3       1 UNK         0.0000 
     15 C15         0.8087   51.8388   21.0189 C.3       1 UNK         0.0000 
     16 C16         1.3113   51.6997   22.4774 C.3       1 UNK         0.0000 
     17 C17         1.3114   51.3712   18.5251 C.2       1 UNK         0.0000 
     18 N18         1.2653   50.4011   17.5966 N.pl3     1 UNK         0.0000 
     19 C19         1.5038   48.9875   17.8535 C.3       1 UNK         0.0000 
     20 C20         2.2693   48.8718   19.1674 C.3       1 UNK         0.0000 
     21 N21         1.6106   49.6759   20.1911 N.3       1 UNK         0.0000 
     22 N22         1.0075   52.6310   18.1863 N.pl3     1 UNK         0.0000 
     23 C23         0.5752   53.0763   16.8595 C.3       1 UNK         0.0000 
     24 C24         0.2901   54.5609   16.8074 C.ar      1 UNK         0.0000 
     25 C25         1.3096   55.4581   16.4763 C.ar      1 UNK         0.0000 
     26 C26         1.0441   56.8246   16.4074 C.ar      1 UNK         0.0000 
     27 C27        -0.2391   57.2979   16.6739 C.ar      1 UNK         0.0000 
     28 C28        -1.2558   56.4093   17.0137 C.ar      1 UNK         0.0000 
     29 C29        -0.9945   55.0414   17.0771 C.ar      1 UNK         0.0000 
     30 F30        -2.4956   56.8730   17.2814 F         1 UNK         0.0000 
     31 F31         2.0307   57.6891   16.0839 F         1 UNK         0.0000 
     32 C32         6.1912   54.3694   22.8139 C.3       1 UNK         0.0000 
     33 H33         4.3248   53.9835   28.8317 H         1 UNK         0.0000 
     34 H34         3.1611   55.2149   28.2919 H         1 UNK         0.0000 
     35 H35         2.8176   53.4911   28.0885 H         1 UNK         0.0000 
     36 H36         6.2410   54.6126   27.4432 H         1 UNK         0.0000 
     37 H37         7.2861   54.6503   25.2243 H         1 UNK         0.0000 
     38 H38         2.4149   53.9464   25.6413 H         1 UNK         0.0000 
     39 H39         3.5907   50.4497   21.9211 H         1 UNK         0.0000 
     40 H40         4.6654   51.8133   21.8880 H         1 UNK         0.0000 
     41 H41         3.9038   51.1467   19.5689 H         1 UNK         0.0000 
     42 H42         3.2602   52.7018   19.9134 H         1 UNK         0.0000 
     43 H43         0.7216   52.9008   20.7933 H         1 UNK         0.0000 
     44 H44        -0.2031   51.4391   20.9357 H         1 UNK         0.0000 
     45 H45         1.3175   50.6400   22.7353 H         1 UNK         0.0000 
     46 H46         0.6768   52.1811   23.2229 H         1 UNK         0.0000 
     47 H47         0.5337   48.4937   17.9130 H         1 UNK         0.0000 
     48 H48         2.0647   48.5583   17.0226 H         1 UNK         0.0000 
     49 H49         2.3086   47.8315   19.4938 H         1 UNK         0.0000 
     50 H50         3.3118   49.1622   19.0324 H         1 UNK         0.0000 
     51 H51         1.9934   49.4528   21.0988 H         1 UNK         0.0000 
     52 H52         1.1072   53.3453   18.8983 H         1 UNK         0.0000 
     53 H53        -0.3121   52.5047   16.5843 H         1 UNK         0.0000 
     54 H54         1.3562   52.8092   16.1454 H         1 UNK         0.0000 
     55 H55         2.3086   55.1037   16.2671 H         1 UNK         0.0000 
     56 H56        -0.4375   58.3586   16.6268 H         1 UNK         0.0000 
     57 H57        -1.7925   54.3601   17.3321 H         1 UNK         0.0000 
     58 H58         7.2729   54.2994   22.9384 H         1 UNK         0.0000 
     59 H59         5.9030   53.5382   22.1762 H         1 UNK         0.0000 
     60 H60         5.9660   55.2956   22.2852 H         1 UNK         0.0000 
     61 H61         0.9880   50.6725   16.6652 H         1 UNK         0.0000 
@<TRIPOS>BOND
     1    1    2 1    
     2    1   33 1    
     3    1   34 1    
     4    1   35 1    
     5    2    7 ar   
     6    2    3 ar   
     7    3    4 ar   
     8    3   36 1    
     9    4    5 ar   
    10    4   37 1    
    11    5    6 ar   
    12    5   32 1    
    13    6    7 ar   
    14    6    8 1    
    15    7   38 1    
    16    8    9 2    
    17    8   10 2    
    18    8   11 1    
    19   11   16 1    
    20   11   12 1    
    21   12   13 1    
    22   12   39 1    
    23   12   40 1    
    24   13   14 1    
    25   13   41 1    
    26   13   42 1    
    27   14   21 1    
    28   14   15 1    
    29   14   17 1    
    30   15   16 1    
    31   15   43 1    
    32   15   44 1    
    33   16   45 1    
    34   16   46 1    
    35   17   18 2    
    36   17   22 1    
    37   18   19 1    
    38   18   61 1    
    39   19   20 1    
    40   19   47 1    
    41   19   48 1    
    42   20   21 1    
    43   20   49 1    
    44   20   50 1    
    45   21   51 1    
    46   22   23 1    
    47   22   52 1    
    48   23   24 1    
    49   23   53 1    
    50   23   54 1    
    51   24   29 ar   
    52   24   25 ar   
    53   25   26 ar   
    54   25   55 1    
    55   26   27 ar   
    56   26   31 1    
    57   27   28 ar   
    58   27   56 1    
    59   28   29 ar   
    60   28   30 1    
    61   29   57 1    
    62   32   58 1    
    63   32   59 1    
    64   32   60 1    
@<TRIPOS>SUBSTRUCTURE
     1 UNK         1 GROUP             0       ****    0 ROOT    
