ZINC65074822_811
                    3D
 Schrodinger Suite 2024-2.
 61 64  0  0  1  0            999 V2000
    4.7034   54.4772   28.4522 C   0  0  0  0  0  0
    4.5755   54.3374   26.9423 C   0  0  0  0  0  0
    3.3067   54.2562   26.3638 C   0  0  0  0  0  0
    3.1675   54.0967   24.9854 C   0  0  0  0  0  0
    4.2948   53.9687   24.1729 C   0  0  0  0  0  0
    5.5625   54.0975   24.7406 C   0  0  0  0  0  0
    5.7098   54.2813   26.1189 C   0  0  0  0  0  0
    7.1045   54.4039   26.6968 C   0  0  0  0  0  0
    4.1522   53.6069   22.4201 S   0  0  0  0  0  0
    5.3376   52.8112   22.0806 O   0  0  0  0  0  0
    3.9024   54.8966   21.7796 O   0  0  0  0  0  0
    2.7063   52.5828   22.2333 N   0  0  0  0  0  0
    1.3619   53.1444   22.0259 C   0  0  0  0  0  0
    0.3692   52.4763   23.0059 C   0  0  0  0  0  0
    0.4279   50.9032   23.0279 C   0  0  0  0  0  0
    1.9061   50.3984   22.9734 C   0  0  0  0  0  0
    2.8130   51.1386   21.9771 C   0  0  0  0  0  0
   -0.1914   50.3001   24.3005 C   0  0  0  0  0  0
   -0.8897   49.1559   24.3029 N   0  3  0  0  0  0
   -1.3269   48.4379   23.1084 C   0  0  0  0  0  0
   -0.6050   48.9821   21.8660 C   0  0  0  0  0  0
   -0.4304   50.4273   21.9306 N   0  0  0  0  0  0
    0.0814   50.9312   25.4486 N   0  0  0  0  0  0
   -0.2087   50.4716   26.8008 C   0  0  0  0  0  0
    0.3267   51.4325   27.8480 C   0  0  0  0  0  0
   -0.4956   52.4313   28.3556 C   0  0  0  0  0  0
   -0.0302   53.2905   29.3533 C   0  0  0  0  0  0
    1.2461   53.1131   29.8880 C   0  0  0  0  0  0
    2.0650   52.0903   29.4054 C   0  0  0  0  0  0
    1.6172   51.2957   28.3565 C   0  0  0  0  0  0
    3.5798   51.7001   30.1444 Cl  0  0  0  0  0  0
    1.6704   53.9225   30.8815 F   0  0  0  0  0  0
    5.1511   53.5758   28.8681 H   0  0  0  0  0  0
    5.3680   55.2965   28.7163 H   0  0  0  0  0  0
    3.7438   54.6628   28.9365 H   0  0  0  0  0  0
    2.4217   54.3191   26.9806 H   0  0  0  0  0  0
    2.1833   54.0641   24.5580 H   0  0  0  0  0  0
    6.4370   54.0234   24.1090 H   0  0  0  0  0  0
    7.1845   55.2923   27.3222 H   0  0  0  0  0  0
    7.3447   53.5346   27.3097 H   0  0  0  0  0  0
    7.8380   54.4969   25.9012 H   0  0  0  0  0  0
    1.0698   52.9532   20.9921 H   0  0  0  0  0  0
    1.4029   54.2262   22.1454 H   0  0  0  0  0  0
   -0.6436   52.8228   22.7969 H   0  0  0  0  0  0
    0.5747   52.8763   23.9916 H   0  0  0  0  0  0
    2.3137   50.5338   23.9716 H   0  0  0  0  0  0
    1.9704   49.3241   22.8078 H   0  0  0  0  0  0
    2.5152   50.9397   20.9455 H   0  0  0  0  0  0
    3.8523   50.8288   22.0737 H   0  0  0  0  0  0
   -1.1381   47.3731   23.2457 H   0  0  0  0  0  0
   -2.4049   48.5843   23.0290 H   0  0  0  0  0  0
    0.3606   48.4972   21.7353 H   0  0  0  0  0  0
   -1.1913   48.7323   20.9797 H   0  0  0  0  0  0
   -1.3246   50.8964   21.9034 H   0  0  0  0  0  0
    0.6340   51.7728   25.3804 H   0  0  0  0  0  0
    0.2413   49.4813   26.8885 H   0  0  0  0  0  0
   -1.2884   50.3411   26.8924 H   0  0  0  0  0  0
   -1.5064   52.4968   27.9850 H   0  0  0  0  0  0
   -0.6678   54.0689   29.7430 H   0  0  0  0  0  0
    2.2481   50.4962   28.0042 H   0  0  0  0  0  0
   -1.2171   48.8321   25.2042 H   0  0  0  0  0  0
  1  2  1  0  0  0
  1 33  1  0  0  0
  1 34  1  0  0  0
  1 35  1  0  0  0
  2  7  2  0  0  0
  2  3  1  0  0  0
  3  4  2  0  0  0
  3 36  1  0  0  0
  4  5  1  0  0  0
  4 37  1  0  0  0
  5  6  2  0  0  0
  5  9  1  0  0  0
  6  7  1  0  0  0
  6 38  1  0  0  0
  7  8  1  0  0  0
  8 39  1  0  0  0
  8 40  1  0  0  0
  8 41  1  0  0  0
  9 10  2  0  0  0
  9 11  2  0  0  0
  9 12  1  0  0  0
 12 17  1  0  0  0
 12 13  1  0  0  0
 13 14  1  0  0  0
 13 42  1  0  0  0
 13 43  1  0  0  0
 14 15  1  0  0  0
 14 44  1  0  0  0
 14 45  1  0  0  0
 15 22  1  0  0  0
 15 16  1  0  0  0
 15 18  1  0  0  0
 16 17  1  0  0  0
 16 46  1  0  0  0
 16 47  1  0  0  0
 17 48  1  0  0  0
 17 49  1  0  0  0
 18 19  2  0  0  0
 18 23  1  0  0  0
 19 20  1  0  0  0
 19 61  1  0  0  0
 20 21  1  0  0  0
 20 50  1  0  0  0
 20 51  1  0  0  0
 21 22  1  0  0  0
 21 52  1  0  0  0
 21 53  1  0  0  0
 22 54  1  0  0  0
 23 24  1  0  0  0
 23 55  1  0  0  0
 24 25  1  0  0  0
 24 56  1  0  0  0
 24 57  1  0  0  0
 25 30  2  0  0  0
 25 26  1  0  0  0
 26 27  2  0  0  0
 26 58  1  0  0  0
 27 28  1  0  0  0
 27 59  1  0  0  0
 28 29  2  0  0  0
 28 32  1  0  0  0
 29 30  1  0  0  0
 29 31  1  0  0  0
 30 60  1  0  0  0
M  CHG  1  19   1
M  END
> <i_i_glide_confnum>
84

> <i_i_glide_lignum>
812

> <i_i_glide_posenum>
376

> <i_i_glide_rotatable_bonds>
5

> <i_m_Source_File_Index>
814

> <b_m_subgroup_collapsed>
0

> <r_i_docking_score>
-4.40077

> <r_i_glide_ecoul>
-0.942001

> <r_i_glide_eff_state_penalty>
0

> <r_i_glide_einternal>
2.9841

> <r_i_glide_emodel>
-44.765

> <r_i_glide_energy>
-36.0846

> <r_i_glide_erotb>
0.439982

> <r_i_glide_esite>
-0.0820179

> <r_i_glide_evdw>
-35.1426

> <r_i_glide_gscore>
-4.40077

> <r_i_glide_hbond>
0

> <r_i_glide_ligand_efficiency>
-0.137524

> <r_i_glide_ligand_efficiency_ln>
-0.985453

> <r_i_glide_ligand_efficiency_sa>
-0.436612

> <r_i_glide_lipo>
-2.75471

> <r_i_glide_metal>
0

> <r_i_glide_rewards>
-0.105595

> <s_i_glide_gridfile>
wee1_glide-grid

> <s_m_Source_File>
wee1_decoys_glide_SP.sdf

> <s_m_Source_Path>
/Users/zhangxujun/Desktop

> <s_m_entry_id>
1089

> <s_m_entry_name>
wee1_decoys_glide_SP.814

> <s_m_subgroup_title>
wee1_decoys_glide_SP

> <s_m_subgroupid>
wee1_decoys_glide_SP


$$$$
