@<TRIPOS>MOLECULE
ZINC39675311_2206
72   75    1
SMALL
USER_CHARGES


@<TRIPOS>ATOM
      1 C1         -7.8912   50.6123   28.1760 C.3       1 UNK         0.0000 
      2 C2         -6.8338   51.2536   27.2928 C.ar      1 UNK         0.0000 
      3 C3         -7.1978   51.8466   26.0813 C.ar      1 UNK         0.0000 
      4 C4         -6.2338   52.4508   25.2753 C.ar      1 UNK         0.0000 
      5 C5         -4.8869   52.4548   25.6603 C.ar      1 UNK         0.0000 
      6 C6         -4.5299   51.8723   26.8834 C.ar      1 UNK         0.0000 
      7 C7         -5.4948   51.2798   27.6963 C.ar      1 UNK         0.0000 
      8 F8         -5.1240   50.7371   28.8784 F         1 UNK         0.0000 
      9 C9         -3.8674   53.1604   24.8029 C.2       1 UNK         0.0000 
     10 O10        -4.0956   54.3261   24.4741 O.2       1 UNK         0.0000 
     11 N11        -2.7465   52.4950   24.4165 N.am      1 UNK         0.0000 
     12 C12        -1.7293   53.1126   23.5637 C.3       1 UNK         0.0000 
     13 C13        -0.9177   51.9162   23.0169 C.3       1 UNK         0.0000 
     14 H14        -1.3974   51.5234   22.1190 H         1 UNK         0.0000 
     15 C15        -0.9936   50.8853   24.1723 C.3       1 UNK         0.0000 
     16 C16        -2.4623   51.0742   24.6286 C.3       1 UNK         0.0000 
     17 C17         0.0068   51.1990   25.3364 C.3       1 UNK         0.0000 
     18 C18        -0.2130   50.2978   26.5545 C.3       1 UNK         0.0000 
     19 N19        -0.0968   48.8366   26.0816 N.4       1 UNK         0.0000 
     20 C20        -0.9508   48.4436   24.8564 C.3       1 UNK         0.0000 
     21 C21        -0.6533   49.4440   23.7271 C.3       1 UNK         0.0000 
     22 C22         0.5327   52.3434   22.6662 C.2       1 UNK         0.0000 
     23 O23         1.0784   53.2608   23.2794 O.2       1 UNK         0.0000 
     24 N24         1.1313   51.6623   21.6691 N.am      1 UNK         0.0000 
     25 C25         2.5465   51.7422   21.2835 C.3       1 UNK         0.0000 
     26 H26         3.1207   51.4751   22.1695 H         1 UNK         0.0000 
     27 C27         2.8584   50.6455   20.2518 C.3       1 UNK         0.0000 
     28 C28         2.9952   53.1435   20.7876 C.3       1 UNK         0.0000 
     29 C29         4.5112   53.4437   20.8223 C.3       1 UNK         0.0000 
     30 C30         5.0509   53.9889   22.1477 C.ar      1 UNK         0.0000 
     31 C31         4.4472   53.6971   23.3767 C.ar      1 UNK         0.0000 
     32 C32         4.9983   54.1571   24.5673 C.ar      1 UNK         0.0000 
     33 C33         6.1508   54.9486   24.5448 C.ar      1 UNK         0.0000 
     34 C34         6.7045   55.2968   23.3158 C.ar      1 UNK         0.0000 
     35 C35         6.1787   54.8092   22.1258 C.ar      1 UNK         0.0000 
     36 O36         6.7924   55.4266   25.6684 O.3       1 UNK         0.0000 
     37 C37         6.3964   54.9354   26.9423 C.3       1 UNK         0.0000 
     38 H38        -8.9018   50.8920   27.8744 H         1 UNK         0.0000 
     39 H39        -7.7990   49.5261   28.1512 H         1 UNK         0.0000 
     40 H40        -7.7642   50.9311   29.2119 H         1 UNK         0.0000 
     41 H41        -8.2300   51.8438   25.7611 H         1 UNK         0.0000 
     42 H42        -6.5418   52.9143   24.3465 H         1 UNK         0.0000 
     43 H43        -3.5078   51.8960   27.2323 H         1 UNK         0.0000 
     44 H44        -1.1072   53.7028   24.2337 H         1 UNK         0.0000 
     45 H45        -2.1582   53.6966   22.7543 H         1 UNK         0.0000 
     46 H46        -3.1073   50.5193   23.9455 H         1 UNK         0.0000 
     47 H47        -2.6811   50.6698   25.6135 H         1 UNK         0.0000 
     48 H48         1.0475   51.1400   25.0139 H         1 UNK         0.0000 
     49 H49        -0.1272   52.2267   25.6773 H         1 UNK         0.0000 
     50 H50         0.5559   50.4368   27.3147 H         1 UNK         0.0000 
     51 H51        -1.1861   50.4023   27.0349 H         1 UNK         0.0000 
     52 H52         0.8712   48.6069   25.9006 H         1 UNK         0.0000 
     53 H53        -0.6621   47.4214   24.6067 H         1 UNK         0.0000 
     54 H54        -1.9894   48.4476   25.1904 H         1 UNK         0.0000 
     55 H55        -1.2793   49.1694   22.8762 H         1 UNK         0.0000 
     56 H56         0.3767   49.3618   23.3725 H         1 UNK         0.0000 
     57 H57         0.5922   50.9668   21.1767 H         1 UNK         0.0000 
     58 H58         3.9000   50.6912   19.9325 H         1 UNK         0.0000 
     59 H59         2.7045   49.6464   20.6619 H         1 UNK         0.0000 
     60 H60         2.2595   50.7559   19.3469 H         1 UNK         0.0000 
     61 H61         2.5243   53.9201   21.3821 H         1 UNK         0.0000 
     62 H62         2.6202   53.2956   19.7745 H         1 UNK         0.0000 
     63 H63         4.7005   54.2026   20.0608 H         1 UNK         0.0000 
     64 H64         5.0969   52.5738   20.5228 H         1 UNK         0.0000 
     65 H65         3.5547   53.1003   23.4400 H         1 UNK         0.0000 
     66 H66         4.5184   53.8868   25.4940 H         1 UNK         0.0000 
     67 H67         7.5690   55.9417   23.2865 H         1 UNK         0.0000 
     68 H68         6.6523   55.0690   21.1895 H         1 UNK         0.0000 
     69 H69         7.1048   55.2964   27.6817 H         1 UNK         0.0000 
     70 H70         6.4124   53.8446   26.9830 H         1 UNK         0.0000 
     71 H71         5.4052   55.2950   27.2209 H         1 UNK         0.0000 
     72 H72        -0.3819   48.2524   26.8677 H         1 UNK         0.0000 
@<TRIPOS>BOND
     1    1    2 1    
     2    1   38 1    
     3    1   39 1    
     4    1   40 1    
     5    2    7 ar   
     6    2    3 ar   
     7    3    4 ar   
     8    3   41 1    
     9    4    5 ar   
    10    4   42 1    
    11    5    6 ar   
    12    5    9 1    
    13    6    7 ar   
    14    6   43 1    
    15    7    8 1    
    16    9   10 2    
    17    9   11 am   BACKBONE|DICT|INTERRES
    18   11   16 1    
    19   11   12 1    
    20   12   13 1    
    21   12   44 1    
    22   12   45 1    
    23   13   14 1    
    24   13   15 1    
    25   13   22 1    
    26   15   21 1    
    27   15   16 1    
    28   15   17 1    
    29   16   46 1    
    30   16   47 1    
    31   17   18 1    
    32   17   48 1    
    33   17   49 1    
    34   18   19 1    
    35   18   50 1    
    36   18   51 1    
    37   19   20 1    
    38   19   52 1    
    39   19   72 1    
    40   20   21 1    
    41   20   53 1    
    42   20   54 1    
    43   21   55 1    
    44   21   56 1    
    45   22   23 2    
    46   22   24 am   BACKBONE|DICT|INTERRES
    47   24   25 1    
    48   24   57 1    
    49   25   26 1    
    50   25   27 1    
    51   25   28 1    
    52   27   58 1    
    53   27   59 1    
    54   27   60 1    
    55   28   29 1    
    56   28   61 1    
    57   28   62 1    
    58   29   30 1    
    59   29   63 1    
    60   29   64 1    
    61   30   35 ar   
    62   30   31 ar   
    63   31   32 ar   
    64   31   65 1    
    65   32   33 ar   
    66   32   66 1    
    67   33   34 ar   
    68   33   36 1    
    69   34   35 ar   
    70   34   67 1    
    71   35   68 1    
    72   36   37 1    
    73   37   69 1    
    74   37   70 1    
    75   37   71 1    
@<TRIPOS>SUBSTRUCTURE
     1 UNK         1 GROUP             0       ****    0 ROOT    
