@<TRIPOS>MOLECULE
ZINC36821455_3738
60   63    1
SMALL
USER_CHARGES


@<TRIPOS>ATOM
      1 C1          2.5789   53.1184   30.0435 C.3       1 UNK         0.0000 
      2 C2          3.2671   53.2119   28.6695 C.3       1 UNK         0.0000 
      3 H3          3.7233   52.2369   28.4821 H         1 UNK         0.0000 
      4 C4          4.3402   54.3202   28.6472 C.3       1 UNK         0.0000 
      5 C5          5.1995   54.2686   27.3649 C.3       1 UNK         0.0000 
      6 C6          4.2934   54.0971   26.1414 C.2       1 UNK         0.0000 
      7 C7          2.9475   53.7299   26.2476 C.2       1 UNK         0.0000 
      8 S8          2.1177   53.6261   24.7112 S.3       1 UNK         0.0000 
      9 C9          3.6100   53.9710   23.8732 C.ar      1 UNK         0.0000 
     10 C10         4.6961   54.2065   24.7680 C.ar      1 UNK         0.0000 
     11 C11         5.9339   54.4819   24.1354 C.ar      1 UNK         0.0000 
     12 N12         6.0524   54.4968   22.7846 N.ar      1 UNK         0.0000 
     13 C13         4.9410   54.2294   22.0566 C.ar      1 UNK         0.0000 
     14 N14         3.6981   53.9805   22.5420 N.ar      1 UNK         0.0000 
     15 S15         5.1585   54.1837   20.3023 S.3       1 UNK         0.0000 
     16 C16         3.8153   53.1841   19.5703 C.3       1 UNK         0.0000 
     17 C17         3.6757   51.7619   20.1187 C.2       1 UNK         0.0000 
     18 O18         4.5063   51.2967   20.8993 O.2       1 UNK         0.0000 
     19 N19         2.6126   51.0689   19.6809 N.am      1 UNK         0.0000 
     20 C20         2.2982   49.6945   20.0701 C.3       1 UNK         0.0000 
     21 C21         1.8459   49.5443   21.5440 C.3       1 UNK         0.0000 
     22 C22         0.6315   50.3608   21.9917 C.ar      1 UNK         0.0000 
     23 C23         0.4483   50.6028   23.3524 C.ar      1 UNK         0.0000 
     24 C24        -0.6478   51.3365   23.7977 C.ar      1 UNK         0.0000 
     25 C25        -1.5907   51.8454   22.8880 C.ar      1 UNK         0.0000 
     26 C26        -1.4235   51.5954   21.5158 C.ar      1 UNK         0.0000 
     27 C27        -0.3134   50.8519   21.0845 C.ar      1 UNK         0.0000 
     28 O28        -2.3817   52.0962   20.6489 O.3       1 UNK         0.0000 
     29 C29        -2.2699   51.8495   19.2505 C.3       1 UNK         0.0000 
     30 O30        -2.6936   52.5906   23.2694 O.3       1 UNK         0.0000 
     31 C31        -2.9589   52.7892   24.6533 C.3       1 UNK         0.0000 
     32 N32         7.1043   54.7203   24.8560 N.pl3     1 UNK         0.0000 
     33 C33         2.2186   53.4912   27.5653 C.3       1 UNK         0.0000 
     34 H34         2.0726   54.0492   30.3022 H         1 UNK         0.0000 
     35 H35         1.8300   52.3251   30.0556 H         1 UNK         0.0000 
     36 H36         3.2991   52.8944   30.8310 H         1 UNK         0.0000 
     37 H37         3.8754   55.2967   28.7905 H         1 UNK         0.0000 
     38 H38         5.0010   54.2121   29.5078 H         1 UNK         0.0000 
     39 H39         5.9054   53.4380   27.4226 H         1 UNK         0.0000 
     40 H40         5.7920   55.1819   27.2986 H         1 UNK         0.0000 
     41 H41         3.9947   53.1175   18.4975 H         1 UNK         0.0000 
     42 H42         2.8686   53.6967   19.7079 H         1 UNK         0.0000 
     43 H43         2.0167   51.4943   18.9887 H         1 UNK         0.0000 
     44 H44         3.1043   49.0068   19.8200 H         1 UNK         0.0000 
     45 H45         1.4749   49.4083   19.4163 H         1 UNK         0.0000 
     46 H46         2.6906   49.8028   22.1855 H         1 UNK         0.0000 
     47 H47         1.6466   48.4968   21.7520 H         1 UNK         0.0000 
     48 H48         1.1593   50.2227   24.0723 H         1 UNK         0.0000 
     49 H49        -0.7452   51.5001   24.8597 H         1 UNK         0.0000 
     50 H50        -0.1837   50.6533   20.0350 H         1 UNK         0.0000 
     51 H51        -3.1137   52.3090   18.7354 H         1 UNK         0.0000 
     52 H52        -1.3575   52.2840   18.8391 H         1 UNK         0.0000 
     53 H53        -2.2926   50.7814   19.0288 H         1 UNK         0.0000 
     54 H54        -3.8463   53.4121   24.7632 H         1 UNK         0.0000 
     55 H55        -2.1345   53.2963   25.1543 H         1 UNK         0.0000 
     56 H56        -3.1530   51.8423   25.1593 H         1 UNK         0.0000 
     57 H57         7.0879   54.6035   25.8581 H         1 UNK         0.0000 
     58 H58         7.9727   54.8690   24.3433 H         1 UNK         0.0000 
     59 H59         1.6276   54.3731   27.8165 H         1 UNK         0.0000 
     60 H60         1.5215   52.6565   27.4789 H         1 UNK         0.0000 
@<TRIPOS>BOND
     1    1    2 1    
     2    1   34 1    
     3    1   35 1    
     4    1   36 1    
     5    2    3 1    
     6    2   33 1    
     7    2    4 1    
     8    4    5 1    
     9    4   37 1    
    10    4   38 1    
    11    5    6 1    
    12    5   39 1    
    13    5   40 1    
    14    6   10 1    
    15    6    7 2    
    16    7    8 1    
    17    7   33 1    
    18    8    9 1    
    19    9   14 ar   
    20    9   10 ar   
    21   10   11 ar   
    22   11   12 ar   
    23   11   32 1    
    24   12   13 ar   
    25   13   14 ar   
    26   13   15 1    
    27   15   16 1    
    28   16   17 1    
    29   16   41 1    
    30   16   42 1    
    31   17   18 2    
    32   17   19 am   BACKBONE|DICT|INTERRES
    33   19   20 1    
    34   19   43 1    
    35   20   21 1    
    36   20   44 1    
    37   20   45 1    
    38   21   22 1    
    39   21   46 1    
    40   21   47 1    
    41   22   27 ar   
    42   22   23 ar   
    43   23   24 ar   
    44   23   48 1    
    45   24   25 ar   
    46   24   49 1    
    47   25   26 ar   
    48   25   30 1    
    49   26   27 ar   
    50   26   28 1    
    51   27   50 1    
    52   28   29 1    
    53   29   51 1    
    54   29   52 1    
    55   29   53 1    
    56   30   31 1    
    57   31   54 1    
    58   31   55 1    
    59   31   56 1    
    60   32   57 1    
    61   32   58 1    
    62   33   59 1    
    63   33   60 1    
@<TRIPOS>SUBSTRUCTURE
     1 UNK         1 GROUP             0       ****    0 ROOT    
