ZINC63541084_5118
                    3D
 Schrodinger Suite 2024-2.
 53 57  0  0  1  0            999 V2000
   -8.0091   51.4274   31.2648 C   0  0  0  0  0  0
   -7.3725   50.9179   32.4714 C   0  0  0  0  0  0
   -6.0914   50.4632   32.4674 C   0  0  0  0  0  0
   -5.3344   50.4765   31.2870 C   0  0  0  0  0  0
   -4.0959   50.0968   31.0826 N   0  3  0  0  0  0
   -3.7378   50.2798   29.6696 C   0  0  0  0  0  0
   -5.0085   50.8762   29.0955 C   0  0  0  0  0  0
   -5.8998   50.9544   30.1028 C   0  0  0  0  0  0
   -7.2895   51.4387   30.1239 C   0  0  0  0  0  0
   -5.1589   51.2400   27.6264 C   0  0  0  0  0  0
   -4.6777   50.1669   26.6300 C   0  0  0  0  0  0
   -3.2211   50.0622   26.5295 N   0  0  0  0  0  0
   -2.4541   50.9121   25.8252 C   0  0  0  0  0  0
   -2.9104   51.9076   25.2590 O   0  0  0  0  0  0
   -0.9540   50.5625   25.7171 C   0  0  1  0  0  0
   -0.9411   49.4763   25.6023 H   0  0  0  0  0  0
   -0.2128   51.2494   24.5668 C   0  0  1  0  0  0
   -0.8413   51.4870   23.7084 H   0  0  0  0  0  0
    0.3337   52.5162   25.2502 C   0  0  2  0  0  0
   -0.4131   53.2920   25.0725 H   0  0  0  0  0  0
    1.5824   53.0685   24.7007 N   0  0  0  0  0  0
    2.5021   53.5155   25.4869 C   0  0  0  0  0  0
    2.2898   53.5014   26.9193 C   0  0  0  0  0  0
    1.2423   52.9117   27.5415 C   0  0  0  0  0  0
    0.2962   52.2873   26.7112 N   0  0  0  0  0  0
   -0.2159   50.9287   26.9167 N   0  0  0  0  0  0
    1.0138   52.8837   29.0575 C   0  0  0  0  0  0
    1.8181   51.9733   29.6161 F   0  0  0  0  0  0
    1.3000   54.0808   29.5772 F   0  0  0  0  0  0
   -0.2549   52.5901   29.3663 F   0  0  0  0  0  0
    3.7429   54.0034   24.8605 C   0  0  0  0  0  0
    4.0600   54.0925   23.4994 C   0  0  0  0  0  0
    5.3782   54.4965   23.2525 C   0  0  0  0  0  0
    6.0783   54.7617   24.4160 C   0  0  0  0  0  0
    5.1141   54.4967   25.8287 S   0  0  0  0  0  0
    1.1047   50.1403   24.0757 Cl  0  0  0  0  0  0
   -9.0322   51.7782   31.2868 H   0  0  0  0  0  0
   -7.9339   50.9025   33.3938 H   0  0  0  0  0  0
   -5.6663   50.0966   33.3917 H   0  0  0  0  0  0
   -2.8586   50.9233   29.6164 H   0  0  0  0  0  0
   -3.4803   49.2976   29.2685 H   0  0  0  0  0  0
   -7.7737   51.8096   29.2330 H   0  0  0  0  0  0
   -6.2187   51.4227   27.4470 H   0  0  0  0  0  0
   -4.6540   52.1869   27.4317 H   0  0  0  0  0  0
   -5.0732   49.1930   26.9170 H   0  0  0  0  0  0
   -5.0938   50.3736   25.6411 H   0  0  0  0  0  0
   -2.7610   49.3188   27.0477 H   0  0  0  0  0  0
    3.0140   53.9801   27.5586 H   0  0  0  0  0  0
    0.6009   50.3350   26.9944 H   0  0  0  0  0  0
    3.3648   53.8421   22.7100 H   0  0  0  0  0  0
    5.7970   54.5975   22.2627 H   0  0  0  0  0  0
    7.1045   55.0912   24.5068 H   0  0  0  0  0  0
   -3.4493   49.7302   31.7775 H   0  0  0  0  0  0
  1  9  2  0  0  0
  1  2  1  0  0  0
  1 37  1  0  0  0
  2  3  2  0  0  0
  2 38  1  0  0  0
  3  4  1  0  0  0
  3 39  1  0  0  0
  4  8  1  0  0  0
  4  5  2  0  0  0
  5  6  1  0  0  0
  5 53  1  0  0  0
  6  7  1  0  0  0
  6 40  1  0  0  0
  6 41  1  0  0  0
  7  8  2  0  0  0
  7 10  1  0  0  0
  8  9  1  0  0  0
  9 42  1  0  0  0
 10 11  1  0  0  0
 10 43  1  0  0  0
 10 44  1  0  0  0
 11 12  1  0  0  0
 11 45  1  0  0  0
 11 46  1  0  0  0
 12 13  1  0  0  0
 12 47  1  0  0  0
 13 14  2  0  0  0
 13 15  1  0  0  0
 15 16  1  0  0  0
 15 26  1  0  0  0
 15 17  1  0  0  0
 17 18  1  0  0  0
 17 19  1  0  0  0
 17 36  1  0  0  0
 19 20  1  0  0  0
 19 25  1  0  0  0
 19 21  1  0  0  0
 21 22  2  0  0  0
 22 23  1  0  0  0
 22 31  1  0  0  0
 23 24  2  0  0  0
 23 48  1  0  0  0
 24 25  1  0  0  0
 24 27  1  0  0  0
 25 26  1  0  0  0
 26 49  1  0  0  0
 27 28  1  0  0  0
 27 29  1  0  0  0
 27 30  1  0  0  0
 31 35  1  0  0  0
 31 32  2  0  0  0
 32 33  1  0  0  0
 32 50  1  0  0  0
 33 34  2  0  0  0
 33 51  1  0  0  0
 34 35  1  0  0  0
 34 52  1  0  0  0
M  CHG  1   5   1
M  END
> <i_i_glide_confnum>
14

> <i_i_glide_lignum>
5119

> <i_i_glide_posenum>
382

> <i_i_glide_rotatable_bonds>
7

> <i_m_Source_File_Index>
1567

> <b_m_subgroup_collapsed>
0

> <r_i_docking_score>
-5.36424

> <r_i_glide_ecoul>
-4.94405

> <r_i_glide_eff_state_penalty>
0

> <r_i_glide_einternal>
4.42883

> <r_i_glide_emodel>
-62.4437

> <r_i_glide_energy>
-45.9799

> <r_i_glide_erotb>
0.416015

> <r_i_glide_esite>
-0.21195

> <r_i_glide_evdw>
-41.0358

> <r_i_glide_gscore>
-5.36424

> <r_i_glide_hbond>
-0.141271

> <r_i_glide_ligand_efficiency>
-0.162553

> <r_i_glide_ligand_efficiency_ln>
-1.19298

> <r_i_glide_ligand_efficiency_sa>
-0.521394

> <r_i_glide_lipo>
-1.73406

> <r_i_glide_metal>
0

> <r_i_glide_rewards>
-0.899578

> <s_i_glide_gridfile>
wee1_glide-grid

> <s_m_Source_File>
wee1_decoys_glide_SP.sdf

> <s_m_Source_Path>
/Users/zhangxujun/Desktop

> <s_m_entry_id>
1842

> <s_m_entry_name>
wee1_decoys_glide_SP.1567

> <s_m_subgroup_title>
wee1_decoys_glide_SP

> <s_m_subgroupid>
wee1_decoys_glide_SP


$$$$
