ZINC13392627_524
                    3D
 Schrodinger Suite 2024-2.
 59 61  0  0  1  0            999 V2000
    1.6417   52.6416   30.0910 C   0  0  0  0  0  0
    1.4842   52.7213   28.5793 C   0  0  0  0  0  0
    0.4372   52.0234   27.9680 C   0  0  0  0  0  0
    0.2472   52.0962   26.5894 C   0  0  0  0  0  0
    1.1050   52.8705   25.8045 C   0  0  0  0  0  0
    2.1670   53.5510   26.4056 C   0  0  0  0  0  0
    2.3599   53.4896   27.7904 C   0  0  0  0  0  0
    3.5213   54.2562   28.4092 C   0  0  0  0  0  0
    0.8653   52.9642   24.0304 S   0  0  0  0  0  0
    1.4189   54.2523   23.5955 O   0  0  0  0  0  0
   -0.5331   52.6219   23.7439 O   0  0  0  0  0  0
    1.9044   51.6846   23.3746 N   0  0  0  0  0  0
    2.4279   51.8737   21.9964 C   0  0  0  0  0  0
    1.4229   51.3532   20.9445 C   0  0  0  0  0  0
    1.1496   49.8475   21.2291 C   0  0  0  0  0  0
    0.5552   49.6879   22.6570 C   0  0  0  0  0  0
    1.5415   50.2766   23.6880 C   0  0  0  0  0  0
    0.1292   49.3110   20.2044 C   0  0  0  0  0  0
   -1.0193   49.7570   20.1739 O   0  0  0  0  0  0
    0.5615   48.3540   19.3671 N   0  0  0  0  0  0
   -0.2584   47.7184   18.3393 C   0  0  0  0  0  0
    0.2421   46.3280   17.9799 C   0  0  0  0  0  0
    0.8885   46.1168   16.7660 C   0  0  0  0  0  0
    1.3114   44.8418   16.4128 C   0  0  0  0  0  0
    1.1045   43.7408   17.2633 C   0  0  0  0  0  0
    0.4433   43.9444   18.5020 C   0  0  0  0  0  0
    0.0128   45.2443   18.8305 C   0  0  0  0  0  0
    0.2154   42.8305   19.4917 C   0  0  0  0  0  0
    0.7043   41.6968   19.2816 O   0  0  0  0  0  0
    1.5296   42.4686   16.9127 O   0  0  0  0  0  0
    2.2842   42.2600   15.7240 C   0  0  0  0  0  0
    2.5838   52.1604   30.3521 H   0  0  0  0  0  0
    1.6503   53.6444   30.5169 H   0  0  0  0  0  0
    0.8255   52.0947   30.5648 H   0  0  0  0  0  0
   -0.2385   51.4195   28.5585 H   0  0  0  0  0  0
   -0.5691   51.5504   26.1369 H   0  0  0  0  0  0
    2.8374   54.1371   25.7927 H   0  0  0  0  0  0
    4.1593   53.5800   28.9800 H   0  0  0  0  0  0
    4.1441   54.7430   27.6568 H   0  0  0  0  0  0
    3.1524   55.0202   29.0944 H   0  0  0  0  0  0
    3.3421   51.2846   21.9096 H   0  0  0  0  0  0
    2.7151   52.9160   21.8512 H   0  0  0  0  0  0
    1.8975   51.4949   19.9713 H   0  0  0  0  0  0
    0.5245   51.9685   21.0384 H   0  0  0  0  0  0
    2.0649   49.2605   21.1198 H   0  0  0  0  0  0
   -0.3814   50.2357   22.7784 H   0  0  0  0  0  0
    0.4270   48.6374   22.9234 H   0  0  0  0  0  0
    2.4635   49.6962   23.6570 H   0  0  0  0  0  0
    1.1645   50.2112   24.7090 H   0  0  0  0  0  0
    1.5511   48.1636   19.3246 H   0  0  0  0  0  0
   -0.2563   48.3553   17.4524 H   0  0  0  0  0  0
   -1.3034   47.6493   18.6517 H   0  0  0  0  0  0
    1.0681   46.9404   16.0894 H   0  0  0  0  0  0
    1.8083   44.7327   15.4616 H   0  0  0  0  0  0
   -0.4955   45.4284   19.7678 H   0  0  0  0  0  0
    2.5538   41.2066   15.6514 H   0  0  0  0  0  0
    1.7089   42.5148   14.8329 H   0  0  0  0  0  0
    3.2101   42.8363   15.7352 H   0  0  0  0  0  0
   -0.4956   43.0487   20.5002 O   0  5  0  0  0  0
  1  2  1  0  0  0
  1 32  1  0  0  0
  1 33  1  0  0  0
  1 34  1  0  0  0
  2  7  2  0  0  0
  2  3  1  0  0  0
  3  4  2  0  0  0
  3 35  1  0  0  0
  4  5  1  0  0  0
  4 36  1  0  0  0
  5  6  2  0  0  0
  5  9  1  0  0  0
  6  7  1  0  0  0
  6 37  1  0  0  0
  7  8  1  0  0  0
  8 38  1  0  0  0
  8 39  1  0  0  0
  8 40  1  0  0  0
  9 10  2  0  0  0
  9 11  2  0  0  0
  9 12  1  0  0  0
 12 17  1  0  0  0
 12 13  1  0  0  0
 13 14  1  0  0  0
 13 41  1  0  0  0
 13 42  1  0  0  0
 14 15  1  0  0  0
 14 43  1  0  0  0
 14 44  1  0  0  0
 15 16  1  0  0  0
 15 18  1  0  0  0
 15 45  1  0  0  0
 16 17  1  0  0  0
 16 46  1  0  0  0
 16 47  1  0  0  0
 17 48  1  0  0  0
 17 49  1  0  0  0
 18 19  2  0  0  0
 18 20  1  0  0  0
 20 21  1  0  0  0
 20 50  1  0  0  0
 21 22  1  0  0  0
 21 51  1  0  0  0
 21 52  1  0  0  0
 22 27  2  0  0  0
 22 23  1  0  0  0
 23 24  2  0  0  0
 23 53  1  0  0  0
 24 25  1  0  0  0
 24 54  1  0  0  0
 25 26  2  0  0  0
 25 30  1  0  0  0
 26 27  1  0  0  0
 26 28  1  0  0  0
 27 55  1  0  0  0
 28 29  2  0  0  0
 28 59  1  0  0  0
 30 31  1  0  0  0
 31 56  1  0  0  0
 31 57  1  0  0  0
 31 58  1  0  0  0
M  CHG  1  59  -1
M  END
> <i_i_glide_confnum>
148

> <i_i_glide_lignum>
525

> <i_i_glide_posenum>
261

> <i_i_glide_rotatable_bonds>
8

> <i_m_Source_File_Index>
4751

> <b_m_subgroup_collapsed>
0

> <r_i_docking_score>
-3.83685

> <r_i_glide_ecoul>
-8.62784

> <r_i_glide_eff_state_penalty>
0

> <r_i_glide_einternal>
5.46168

> <r_i_glide_emodel>
-49.9281

> <r_i_glide_energy>
-40.2154

> <r_i_glide_erotb>
0.571701

> <r_i_glide_esite>
-0.0868871

> <r_i_glide_evdw>
-31.5875

> <r_i_glide_gscore>
-3.83685

> <r_i_glide_hbond>
-0.4

> <r_i_glide_ligand_efficiency>
-0.119902

> <r_i_glide_ligand_efficiency_ln>
-0.859176

> <r_i_glide_ligand_efficiency_sa>
-0.380664

> <r_i_glide_lipo>
-1.3191

> <r_i_glide_metal>
0

> <r_i_glide_rewards>
0.270985

> <s_i_glide_gridfile>
wee1_glide-grid

> <s_m_Source_File>
wee1_decoys_glide_SP.sdf

> <s_m_Source_Path>
/Users/zhangxujun/Desktop

> <s_m_entry_id>
5026

> <s_m_entry_name>
wee1_decoys_glide_SP.4751

> <s_m_subgroup_title>
wee1_decoys_glide_SP

> <s_m_subgroupid>
wee1_decoys_glide_SP


$$$$
