ZINC12453050_4823
                    3D
 Schrodinger Suite 2024-2.
 74 78  0  0  1  0            999 V2000
   -2.1392   47.0864   22.0775 C   0  0  0  0  0  0
   -1.6762   48.4812   22.4551 C   0  0  0  0  0  0
   -2.0644   49.5825   21.6880 C   0  0  0  0  0  0
   -1.6240   50.8585   22.0304 C   0  0  0  0  0  0
   -0.7765   51.0373   23.1297 C   0  0  0  0  0  0
   -0.4114   49.9299   23.9110 C   0  0  0  0  0  0
   -0.8564   48.6560   23.5706 C   0  0  0  0  0  0
   -0.3120   52.4241   23.5000 C   0  0  0  0  0  0
   -1.1671   53.2956   23.6820 O   0  0  0  0  0  0
    1.0194   52.6477   23.6900 N   0  0  0  0  0  0
    1.4703   53.7361   24.5756 C   0  0  0  0  0  0
    1.8321   53.2934   25.9927 C   0  0  0  0  0  0
    3.0408   53.6972   26.5643 C   0  0  0  0  0  0
    3.3601   53.3123   27.8648 C   0  0  0  0  0  0
    2.4733   52.5179   28.6095 C   0  0  0  0  0  0
    1.2720   52.1138   28.0290 C   0  0  0  0  0  0
    0.9503   52.4979   26.7312 C   0  0  0  0  0  0
    2.6984   52.0950   29.9062 O   0  0  0  0  0  0
    3.9051   52.4678   30.5592 C   0  0  0  0  0  0
    2.0881   51.7694   23.1820 C   0  0  0  0  0  0
    2.9820   52.3617   22.0825 C   0  0  0  0  0  0
    3.9982   53.2454   22.4754 C   0  0  0  0  0  0
    4.8226   53.8815   21.5172 C   0  0  0  0  0  0
    5.9043   54.7252   21.8767 C   0  0  0  0  0  0
    6.7013   55.3021   20.8885 C   0  0  0  0  0  0
    6.4409   55.0799   19.5390 C   0  0  0  0  0  0
    5.3834   54.2624   19.1377 C   0  0  0  0  0  0
    4.5713   53.6561   20.1354 C   0  0  0  0  0  0
    2.7600   52.1446   20.7049 C   0  0  0  0  0  0
    1.7983   51.2275   20.1541 N   0  0  0  0  0  0
    1.6928   49.8148   20.6139 C   0  0  0  0  0  0
    2.0344   48.7906   19.5053 C   0  0  0  0  0  0
    1.3496   49.0840   18.1687 C   0  0  0  0  0  0
    1.6347   50.5330   17.7657 C   0  0  2  0  0  0
    2.7094   50.6854   17.6817 H   0  0  0  0  0  0
    1.1293   51.4954   18.8522 C   0  0  0  0  0  0
    1.0953   50.8372   16.5010 O   0  0  0  0  0  0
    5.1162   53.9972   17.6620 C   0  0  0  0  0  0
   -1.2936   46.3961   22.0712 H   0  0  0  0  0  0
   -2.8606   46.7183   22.8095 H   0  0  0  0  0  0
   -2.5950   47.0604   21.0874 H   0  0  0  0  0  0
   -2.7022   49.4529   20.8253 H   0  0  0  0  0  0
   -1.9301   51.7008   21.4264 H   0  0  0  0  0  0
    0.2099   50.0489   24.7878 H   0  0  0  0  0  0
   -0.5599   47.8111   24.1799 H   0  0  0  0  0  0
    0.7044   54.4985   24.6664 H   0  0  0  0  0  0
    2.3051   54.2675   24.1226 H   0  0  0  0  0  0
    3.7297   54.3174   26.0105 H   0  0  0  0  0  0
    4.3011   53.6382   28.2789 H   0  0  0  0  0  0
    0.5804   51.5025   28.5915 H   0  0  0  0  0  0
    0.0042   52.1846   26.3140 H   0  0  0  0  0  0
    3.9021   52.0847   31.5803 H   0  0  0  0  0  0
    4.0161   53.5517   30.6122 H   0  0  0  0  0  0
    4.7726   52.0477   30.0495 H   0  0  0  0  0  0
    2.7036   51.4920   24.0334 H   0  0  0  0  0  0
    1.6814   50.8303   22.8375 H   0  0  0  0  0  0
    4.1994   53.4239   23.5209 H   0  0  0  0  0  0
    6.1226   54.9070   22.9187 H   0  0  0  0  0  0
    7.5375   55.9253   21.1717 H   0  0  0  0  0  0
    7.0796   55.5374   18.7972 H   0  0  0  0  0  0
    2.4346   49.6462   21.3936 H   0  0  0  0  0  0
    0.7095   49.6630   21.0547 H   0  0  0  0  0  0
    3.1099   48.7969   19.3370 H   0  0  0  0  0  0
    1.7946   47.7813   19.8431 H   0  0  0  0  0  0
    1.6981   48.3941   17.3978 H   0  0  0  0  0  0
    0.2737   48.9288   18.2744 H   0  0  0  0  0  0
    0.0515   51.4268   19.0035 H   0  0  0  0  0  0
    1.3348   52.5236   18.5507 H   0  0  0  0  0  0
    1.6172   50.3635   15.8453 H   0  0  0  0  0  0
    5.8253   54.5211   17.0174 H   0  0  0  0  0  0
    5.1977   52.9305   17.4431 H   0  0  0  0  0  0
    4.1131   54.3248   17.3877 H   0  0  0  0  0  0
    3.5357   52.8080   19.8218 N   0  3  0  0  0  0
    3.3866   52.6129   18.8438 H   0  0  0  0  0  0
  1  2  1  0  0  0
  1 39  1  0  0  0
  1 40  1  0  0  0
  1 41  1  0  0  0
  2  7  2  0  0  0
  2  3  1  0  0  0
  3  4  2  0  0  0
  3 42  1  0  0  0
  4  5  1  0  0  0
  4 43  1  0  0  0
  5  6  2  0  0  0
  5  8  1  0  0  0
  6  7  1  0  0  0
  6 44  1  0  0  0
  7 45  1  0  0  0
  8  9  2  0  0  0
  8 10  1  0  0  0
 10 11  1  0  0  0
 10 20  1  0  0  0
 11 12  1  0  0  0
 11 46  1  0  0  0
 11 47  1  0  0  0
 12 17  2  0  0  0
 12 13  1  0  0  0
 13 14  2  0  0  0
 13 48  1  0  0  0
 14 15  1  0  0  0
 14 49  1  0  0  0
 15 16  2  0  0  0
 15 18  1  0  0  0
 16 17  1  0  0  0
 16 50  1  0  0  0
 17 51  1  0  0  0
 18 19  1  0  0  0
 19 52  1  0  0  0
 19 53  1  0  0  0
 19 54  1  0  0  0
 20 21  1  0  0  0
 20 55  1  0  0  0
 20 56  1  0  0  0
 21 29  2  0  0  0
 21 22  1  0  0  0
 22 23  2  0  0  0
 22 57  1  0  0  0
 23 28  1  0  0  0
 23 24  1  0  0  0
 24 25  2  0  0  0
 24 58  1  0  0  0
 25 26  1  0  0  0
 25 59  1  0  0  0
 26 27  2  0  0  0
 26 60  1  0  0  0
 27 28  1  0  0  0
 27 38  1  0  0  0
 28 73  2  0  0  0
 29 30  1  0  0  0
 29 73  1  0  0  0
 30 36  1  0  0  0
 30 31  1  0  0  0
 31 32  1  0  0  0
 31 61  1  0  0  0
 31 62  1  0  0  0
 32 33  1  0  0  0
 32 63  1  0  0  0
 32 64  1  0  0  0
 33 34  1  0  0  0
 33 65  1  0  0  0
 33 66  1  0  0  0
 34 35  1  0  0  0
 34 36  1  0  0  0
 34 37  1  0  0  0
 36 67  1  0  0  0
 36 68  1  0  0  0
 37 69  1  0  0  0
 38 70  1  0  0  0
 38 71  1  0  0  0
 38 72  1  0  0  0
 73 74  1  0  0  0
M  CHG  1  73   1
M  END
> <i_i_glide_confnum>
152

> <i_i_glide_lignum>
4824

> <i_i_glide_posenum>
169

> <i_i_glide_rotatable_bonds>
9

> <i_m_Source_File_Index>
773

> <b_m_subgroup_collapsed>
0

> <r_i_docking_score>
-4.31214

> <r_i_glide_ecoul>
-2.28289

> <r_i_glide_eff_state_penalty>
0

> <r_i_glide_einternal>
5.3138

> <r_i_glide_emodel>
-53.6175

> <r_i_glide_energy>
-43.3679

> <r_i_glide_erotb>
0.549989

> <r_i_glide_esite>
-0.0185533

> <r_i_glide_evdw>
-41.085

> <r_i_glide_gscore>
-4.31214

> <r_i_glide_hbond>
-0.242884

> <r_i_glide_ligand_efficiency>
-0.113477

> <r_i_glide_ligand_efficiency_ln>
-0.929823

> <r_i_glide_ligand_efficiency_sa>
-0.381508

> <r_i_glide_lipo>
-2.21471

> <r_i_glide_metal>
0

> <r_i_glide_rewards>
0.0107053

> <s_i_glide_gridfile>
wee1_glide-grid

> <s_m_Source_File>
wee1_decoys_glide_SP.sdf

> <s_m_Source_Path>
/Users/zhangxujun/Desktop

> <s_m_entry_id>
1048

> <s_m_entry_name>
wee1_decoys_glide_SP.773

> <s_m_subgroup_title>
wee1_decoys_glide_SP

> <s_m_subgroupid>
wee1_decoys_glide_SP


$$$$
