@<TRIPOS>MOLECULE
ZINC02050335_912
48   50    1
SMALL
USER_CHARGES


@<TRIPOS>ATOM
      1 C1         -0.2684   55.5915   16.2746 C.3       1 UNK         0.0000 
      2 C2         -0.9417   54.3954   16.9228 C.ar      1 UNK         0.0000 
      3 C3         -2.2845   54.1128   16.6620 C.ar      1 UNK         0.0000 
      4 C4         -2.8989   53.0177   17.2678 C.ar      1 UNK         0.0000 
      5 C5         -2.1832   52.2138   18.1545 C.ar      1 UNK         0.0000 
      6 C6         -0.8404   52.4929   18.4438 C.ar      1 UNK         0.0000 
      7 C7         -0.2224   53.5804   17.7996 C.ar      1 UNK         0.0000 
      8 C8         -0.0790   51.6196   19.4091 C.2       1 UNK         0.0000 
      9 O9         -0.3111   50.4126   19.4622 O.2       1 UNK         0.0000 
     10 N10         0.8390   52.2618   20.1605 N.am      1 UNK         0.0000 
     11 C11         1.8080   51.7841   21.1680 C.3       1 UNK         0.0000 
     12 C12         1.4414   50.3894   21.8399 C.3       1 UNK         0.0000 
     13 F13         2.1993   50.1290   22.9066 F         1 UNK         0.0000 
     14 F14         0.1705   50.3227   22.2360 F         1 UNK         0.0000 
     15 F15         1.6212   49.3378   21.0380 F         1 UNK         0.0000 
     16 C16         3.1842   51.5967   20.4472 C.3       1 UNK         0.0000 
     17 F17         4.1541   51.2116   21.2776 F         1 UNK         0.0000 
     18 F18         3.1044   50.7026   19.4634 F         1 UNK         0.0000 
     19 F19         3.5987   52.7383   19.8863 F         1 UNK         0.0000 
     20 N20         1.9102   52.8969   22.1336 N.pl3     1 UNK         0.0000 
     21 C21         1.7855   52.9776   23.5000 C.2       1 UNK         0.0000 
     22 N22         2.6387   53.6578   24.2091 N.2       1 UNK         0.0000 
     23 C23         2.3830   53.5439   25.5391 C.ar      1 UNK         0.0000 
     24 C24         3.1740   54.0967   26.5530 C.ar      1 UNK         0.0000 
     25 C25         2.8038   53.8757   27.8795 C.ar      1 UNK         0.0000 
     26 C26         1.6720   53.1242   28.2060 C.ar      1 UNK         0.0000 
     27 C27         0.8645   52.5662   27.2087 C.ar      1 UNK         0.0000 
     28 C28         1.2305   52.7888   25.8742 C.ar      1 UNK         0.0000 
     29 S29         0.4569   52.2549   24.3898 S.3       1 UNK         0.0000 
     30 S30         1.3098   52.8998   29.9468 S.o2      1 UNK         0.0000 
     31 O31         2.4107   52.0980   30.4903 O.2       1 UNK         0.0000 
     32 O32         1.0415   54.2383   30.4813 O.2       1 UNK         0.0000 
     33 C33        -0.2797   51.8938   30.0526 C.3       1 UNK         0.0000 
     34 H34         0.3918   56.0878   16.9882 H         1 UNK         0.0000 
     35 H35         0.3298   55.2753   15.4189 H         1 UNK         0.0000 
     36 H36        -0.9950   56.3361   15.9476 H         1 UNK         0.0000 
     37 H37        -2.8498   54.7306   15.9799 H         1 UNK         0.0000 
     38 H38        -3.9330   52.7932   17.0495 H         1 UNK         0.0000 
     39 H39        -2.6792   51.3687   18.6138 H         1 UNK         0.0000 
     40 H40         0.8183   53.8086   17.9896 H         1 UNK         0.0000 
     41 H41         0.6126   53.2366   20.2883 H         1 UNK         0.0000 
     42 H42         2.3812   53.6740   21.6916 H         1 UNK         0.0000 
     43 H43         4.0548   54.6702   26.3104 H         1 UNK         0.0000 
     44 H44         3.4111   54.2931   28.6708 H         1 UNK         0.0000 
     45 H45        -0.0128   51.9795   27.4374 H         1 UNK         0.0000 
     46 H46        -0.4952   51.7044   31.1044 H         1 UNK         0.0000 
     47 H47        -1.0914   52.4621   29.6090 H         1 UNK         0.0000 
     48 H48        -0.1479   50.9465   29.5322 H         1 UNK         0.0000 
@<TRIPOS>BOND
     1    1    2 1    
     2    1   34 1    
     3    1   35 1    
     4    1   36 1    
     5    2    7 ar   
     6    2    3 ar   
     7    3    4 ar   
     8    3   37 1    
     9    4    5 ar   
    10    4   38 1    
    11    5    6 ar   
    12    5   39 1    
    13    6    7 ar   
    14    6    8 1    
    15    7   40 1    
    16    8    9 2    
    17    8   10 am   BACKBONE|DICT|INTERRES
    18   10   11 1    
    19   10   41 1    
    20   11   12 1    
    21   11   16 1    
    22   11   20 1    
    23   12   13 1    
    24   12   14 1    
    25   12   15 1    
    26   16   17 1    
    27   16   18 1    
    28   16   19 1    
    29   20   21 1    
    30   20   42 1    
    31   21   29 1    
    32   21   22 2    
    33   22   23 1    
    34   23   28 ar   
    35   23   24 ar   
    36   24   25 ar   
    37   24   43 1    
    38   25   26 ar   
    39   25   44 1    
    40   26   27 ar   
    41   26   30 1    
    42   27   28 ar   
    43   27   45 1    
    44   28   29 1    
    45   30   31 2    
    46   30   32 2    
    47   30   33 1    
    48   33   46 1    
    49   33   47 1    
    50   33   48 1    
@<TRIPOS>SUBSTRUCTURE
     1 UNK         1 GROUP             0       ****    0 ROOT    
