@<TRIPOS>MOLECULE
ZINC39637232_3669
68   71    1
SMALL
USER_CHARGES


@<TRIPOS>ATOM
      1 C1          3.3991   52.3601   30.6147 C.3       1 UNK         0.0000 
      2 C2          3.0975   53.1247   29.3077 C.3       1 UNK         0.0000 
      3 H3          2.6011   54.0605   29.5727 H         1 UNK         0.0000 
      4 C4          4.4291   53.4659   28.6006 C.3       1 UNK         0.0000 
      5 C5          4.1965   54.3671   27.3876 C.3       1 UNK         0.0000 
      6 C6          3.2357   53.7257   26.3751 C.3       1 UNK         0.0000 
      7 C7          1.9189   53.2192   27.0149 C.3       1 UNK         0.0000 
      8 H8          1.4069   54.1243   27.3532 H         1 UNK         0.0000 
      9 C9          2.1756   52.3571   28.3037 C.3       1 UNK         0.0000 
     10 H10         2.7604   51.4941   27.9955 H         1 UNK         0.0000 
     11 C11         0.8835   51.8360   28.9681 C.3       1 UNK         0.0000 
     12 N12         1.0709   52.6442   25.9634 N.am      1 UNK         0.0000 
     13 C13        -0.2653   52.4967   25.9268 C.2       1 UNK         0.0000 
     14 O14        -1.0154   52.8451   26.8415 O.2       1 UNK         0.0000 
     15 C15        -0.8405   51.9103   24.6117 C.3       1 UNK         0.0000 
     16 H16        -0.0027   51.7394   23.9392 H         1 UNK         0.0000 
     17 C17        -1.8253   52.8587   23.9036 C.3       1 UNK         0.0000 
     18 N18        -3.1321   52.4638   24.4394 N.am      1 UNK         0.0000 
     19 C19        -3.0796   51.1456   25.0873 C.3       1 UNK         0.0000 
     20 C20        -1.6504   50.6065   24.8423 C.3       1 UNK         0.0000 
     21 C21        -1.2219   49.6559   25.9785 C.3       1 UNK         0.0000 
     22 C22         0.2280   49.1811   25.7977 C.3       1 UNK         0.0000 
     23 N23         0.3044   48.3858   24.4818 N.4       1 UNK         0.0000 
     24 C24        -0.2627   49.1258   23.2443 C.3       1 UNK         0.0000 
     25 C25        -1.6668   49.6956   23.5796 C.3       1 UNK         0.0000 
     26 C26        -4.1414   53.3642   24.5675 C.2       1 UNK         0.0000 
     27 O27        -4.0917   54.4967   24.0836 O.2       1 UNK         0.0000 
     28 C28        -5.3622   52.9913   25.3683 C.ar      1 UNK         0.0000 
     29 C29        -5.7586   53.8061   26.4341 C.ar      1 UNK         0.0000 
     30 C30        -6.8941   53.4951   27.1796 C.ar      1 UNK         0.0000 
     31 C31        -7.6649   52.3694   26.8637 C.ar      1 UNK         0.0000 
     32 C32        -7.2800   51.5630   25.7848 C.ar      1 UNK         0.0000 
     33 C33        -6.1402   51.8732   25.0429 C.ar      1 UNK         0.0000 
     34 F34        -8.0104   50.4766   25.4453 F         1 UNK         0.0000 
     35 C35        -8.9124   52.0185   27.6736 C.3       1 UNK         0.0000 
     36 F36        -9.1298   52.8825   28.6680 F         1 UNK         0.0000 
     37 F37        -9.9815   52.0268   26.8773 F         1 UNK         0.0000 
     38 F38        -8.7786   50.8023   28.2027 F         1 UNK         0.0000 
     39 H39         3.8248   51.3777   30.4082 H         1 UNK         0.0000 
     40 H40         4.1186   52.8975   31.2331 H         1 UNK         0.0000 
     41 H41         2.5115   52.2288   31.2332 H         1 UNK         0.0000 
     42 H42         5.1004   53.9803   29.2886 H         1 UNK         0.0000 
     43 H43         4.9668   52.5560   28.3259 H         1 UNK         0.0000 
     44 H44         3.7611   55.2968   27.7382 H         1 UNK         0.0000 
     45 H45         5.1445   54.6200   26.9101 H         1 UNK         0.0000 
     46 H46         3.0197   54.4468   25.5840 H         1 UNK         0.0000 
     47 H47         3.7606   52.8967   25.9048 H         1 UNK         0.0000 
     48 H48         0.2027   52.6514   29.2140 H         1 UNK         0.0000 
     49 H49         1.0800   51.2968   29.8876 H         1 UNK         0.0000 
     50 H50         0.3578   51.1342   28.3236 H         1 UNK         0.0000 
     51 H51         1.5883   52.2567   25.1898 H         1 UNK         0.0000 
     52 H52        -1.5340   53.8961   24.0781 H         1 UNK         0.0000 
     53 H53        -1.7710   52.6294   22.8392 H         1 UNK         0.0000 
     54 H54        -3.8628   50.4308   24.8334 H         1 UNK         0.0000 
     55 H55        -3.1706   51.3293   26.1607 H         1 UNK         0.0000 
     56 H56        -1.2925   50.1574   26.9433 H         1 UNK         0.0000 
     57 H57        -1.9032   48.8081   26.0785 H         1 UNK         0.0000 
     58 H58         0.9625   49.9786   25.7282 H         1 UNK         0.0000 
     59 H59         0.5299   48.4969   26.5906 H         1 UNK         0.0000 
     60 H60         1.2696   48.0990   24.3317 H         1 UNK         0.0000 
     61 H61         0.4742   49.8817   22.9748 H         1 UNK         0.0000 
     62 H62        -0.3042   48.3928   22.4375 H         1 UNK         0.0000 
     63 H63        -2.3848   48.8808   23.6979 H         1 UNK         0.0000 
     64 H64        -2.0301   50.2562   22.7169 H         1 UNK         0.0000 
     65 H65        -5.1801   54.6806   26.6997 H         1 UNK         0.0000 
     66 H66        -7.1670   54.1370   28.0038 H         1 UNK         0.0000 
     67 H67        -5.8829   51.2461   24.2022 H         1 UNK         0.0000 
     68 H68        -0.2267   47.5395   24.6292 H         1 UNK         0.0000 
@<TRIPOS>BOND
     1    1    2 1    
     2    1   39 1    
     3    1   40 1    
     4    1   41 1    
     5    2    3 1    
     6    2    9 1    
     7    2    4 1    
     8    4    5 1    
     9    4   42 1    
    10    4   43 1    
    11    5    6 1    
    12    5   44 1    
    13    5   45 1    
    14    6    7 1    
    15    6   46 1    
    16    6   47 1    
    17    7    8 1    
    18    7    9 1    
    19    7   12 1    
    20    9   10 1    
    21    9   11 1    
    22   11   48 1    
    23   11   49 1    
    24   11   50 1    
    25   12   13 am   BACKBONE|DICT|INTERRES
    26   12   51 1    
    27   13   14 2    
    28   13   15 1    
    29   15   16 1    
    30   15   20 1    
    31   15   17 1    
    32   17   18 1    
    33   17   52 1    
    34   17   53 1    
    35   18   19 1    
    36   18   26 am   BACKBONE|DICT|INTERRES
    37   19   20 1    
    38   19   54 1    
    39   19   55 1    
    40   20   25 1    
    41   20   21 1    
    42   21   22 1    
    43   21   56 1    
    44   21   57 1    
    45   22   23 1    
    46   22   58 1    
    47   22   59 1    
    48   23   24 1    
    49   23   60 1    
    50   23   68 1    
    51   24   25 1    
    52   24   61 1    
    53   24   62 1    
    54   25   63 1    
    55   25   64 1    
    56   26   27 2    
    57   26   28 1    
    58   28   33 ar   
    59   28   29 ar   
    60   29   30 ar   
    61   29   65 1    
    62   30   31 ar   
    63   30   66 1    
    64   31   32 ar   
    65   31   35 1    
    66   32   33 ar   
    67   32   34 1    
    68   33   67 1    
    69   35   36 1    
    70   35   37 1    
    71   35   38 1    
@<TRIPOS>SUBSTRUCTURE
     1 UNK         1 GROUP             0       ****    0 ROOT    
