@<TRIPOS>MOLECULE
ZINC59081001_5719
64   66    1
SMALL
USER_CHARGES


@<TRIPOS>ATOM
      1 C1          1.6775   47.8917   17.2747 C.3       1 UNK         0.0000 
      2 N2          1.8819   49.0307   18.2975 N.4       1 UNK         0.0000 
      3 C3          0.5798   49.8481   18.4422 C.3       1 UNK         0.0000 
      4 C4          0.8304   51.0240   19.4067 C.3       1 UNK         0.0000 
      5 C5          1.5170   50.6385   20.7539 C.3       1 UNK         0.0000 
      6 C6          2.6586   49.6082   20.5778 C.3       1 UNK         0.0000 
      7 C7          2.2693   48.4381   19.6625 C.3       1 UNK         0.0000 
      8 N8          1.8866   51.7975   21.6173 N.pl3     1 UNK         0.0000 
      9 C9          2.9083   52.6884   21.0164 C.3       1 UNK         0.0000 
     10 C10         4.2986   52.6690   21.6777 C.3       1 UNK         0.0000 
     11 C11         5.2043   53.7056   21.0323 C.ar      1 UNK         0.0000 
     12 C12         5.7611   54.7296   21.7992 C.ar      1 UNK         0.0000 
     13 C13         6.5830   55.6839   21.2055 C.ar      1 UNK         0.0000 
     14 C14         6.8557   55.6298   19.8388 C.ar      1 UNK         0.0000 
     15 C15         6.3374   54.5844   19.0555 C.ar      1 UNK         0.0000 
     16 C16         5.5042   53.6313   19.6675 C.ar      1 UNK         0.0000 
     17 O17         6.6928   54.5429   17.7195 O.3       1 UNK         0.0000 
     18 C18         6.2492   53.4552   16.9127 C.3       1 UNK         0.0000 
     19 O19         7.6717   56.5969   19.3044 O.3       1 UNK         0.0000 
     20 C20         6.9933   57.5863   18.5394 C.3       1 UNK         0.0000 
     21 C21         1.1938   52.1386   22.7769 C.2       1 UNK         0.0000 
     22 S22         1.5050   53.5334   23.6818 S.2       1 UNK         0.0000 
     23 N23         0.2008   51.2680   23.1549 N.pl3     1 UNK         0.0000 
     24 C24        -0.7369   51.3669   24.1962 C.ar      1 UNK         0.0000 
     25 C25        -1.8251   52.2368   24.0581 C.ar      1 UNK         0.0000 
     26 C26        -2.7747   52.3573   25.0802 C.ar      1 UNK         0.0000 
     27 C27        -2.6174   51.5983   26.2453 C.ar      1 UNK         0.0000 
     28 C28        -1.5372   50.7275   26.3811 C.ar      1 UNK         0.0000 
     29 C29        -0.5982   50.5966   25.3588 C.ar      1 UNK         0.0000 
     30 Cl30        0.7041   49.4730   25.5558 Cl        1 UNK         0.0000 
     31 C31        -3.9686   53.2973   24.9276 C.3       1 UNK         0.0000 
     32 F32        -3.7120   54.2764   24.0621 F         1 UNK         0.0000 
     33 F33        -4.3006   53.8607   26.0879 F         1 UNK         0.0000 
     34 F34        -5.0128   52.6014   24.4819 F         1 UNK         0.0000 
     35 H35         0.8770   47.2384   17.6257 H         1 UNK         0.0000 
     36 H36         1.4321   48.3577   16.3187 H         1 UNK         0.0000 
     37 H37         2.6277   47.3581   17.1924 H         1 UNK         0.0000 
     38 H38        -0.2022   49.1738   18.7974 H         1 UNK         0.0000 
     39 H39         0.3207   50.2164   17.4471 H         1 UNK         0.0000 
     40 H40        -0.1216   51.5148   19.6136 H         1 UNK         0.0000 
     41 H41         1.4298   51.7470   18.8550 H         1 UNK         0.0000 
     42 H42         0.7598   50.0308   21.2454 H         1 UNK         0.0000 
     43 H43         3.5338   50.0972   20.1494 H         1 UNK         0.0000 
     44 H44         2.9577   49.2167   21.5516 H         1 UNK         0.0000 
     45 H45         1.4251   47.8592   20.0415 H         1 UNK         0.0000 
     46 H46         3.1048   47.7685   19.4853 H         1 UNK         0.0000 
     47 H47         3.0434   52.4239   19.9703 H         1 UNK         0.0000 
     48 H48         2.5148   53.6966   21.0200 H         1 UNK         0.0000 
     49 H49         4.2283   52.8950   22.7415 H         1 UNK         0.0000 
     50 H50         4.7701   51.6896   21.5803 H         1 UNK         0.0000 
     51 H51         5.5544   54.7964   22.8577 H         1 UNK         0.0000 
     52 H52         7.0086   56.4714   21.8078 H         1 UNK         0.0000 
     53 H53         5.0952   52.8126   19.0941 H         1 UNK         0.0000 
     54 H54         6.6443   53.5712   15.9038 H         1 UNK         0.0000 
     55 H55         6.6063   52.4972   17.2963 H         1 UNK         0.0000 
     56 H56         5.1609   53.4267   16.8392 H         1 UNK         0.0000 
     57 H57         7.7193   58.2922   18.1363 H         1 UNK         0.0000 
     58 H58         6.4479   57.1581   17.6966 H         1 UNK         0.0000 
     59 H59         6.2936   58.1516   19.1568 H         1 UNK         0.0000 
     60 H60         0.2575   50.3438   22.7554 H         1 UNK         0.0000 
     61 H61        -1.9266   52.8206   23.1541 H         1 UNK         0.0000 
     62 H62        -3.3375   51.6679   27.0487 H         1 UNK         0.0000 
     63 H63        -1.4367   50.1392   27.2818 H         1 UNK         0.0000 
     64 H64         2.6487   49.5986   17.9391 H         1 UNK         0.0000 
@<TRIPOS>BOND
     1    1    2 1    
     2    1   35 1    
     3    1   36 1    
     4    1   37 1    
     5    2    7 1    
     6    2    3 1    
     7    2   64 1    
     8    3    4 1    
     9    3   38 1    
    10    3   39 1    
    11    4    5 1    
    12    4   40 1    
    13    4   41 1    
    14    5    6 1    
    15    5    8 1    
    16    5   42 1    
    17    6    7 1    
    18    6   43 1    
    19    6   44 1    
    20    7   45 1    
    21    7   46 1    
    22    8    9 1    
    23    8   21 1    
    24    9   10 1    
    25    9   47 1    
    26    9   48 1    
    27   10   11 1    
    28   10   49 1    
    29   10   50 1    
    30   11   16 ar   
    31   11   12 ar   
    32   12   13 ar   
    33   12   51 1    
    34   13   14 ar   
    35   13   52 1    
    36   14   15 ar   
    37   14   19 1    
    38   15   16 ar   
    39   15   17 1    
    40   16   53 1    
    41   17   18 1    
    42   18   54 1    
    43   18   55 1    
    44   18   56 1    
    45   19   20 1    
    46   20   57 1    
    47   20   58 1    
    48   20   59 1    
    49   21   22 2    
    50   21   23 1    
    51   23   24 1    
    52   23   60 1    
    53   24   29 ar   
    54   24   25 ar   
    55   25   26 ar   
    56   25   61 1    
    57   26   27 ar   
    58   26   31 1    
    59   27   28 ar   
    60   27   62 1    
    61   28   29 ar   
    62   28   63 1    
    63   29   30 1    
    64   31   32 1    
    65   31   33 1    
    66   31   34 1    
@<TRIPOS>SUBSTRUCTURE
     1 UNK         1 GROUP             0       ****    0 ROOT    
