@<TRIPOS>MOLECULE
ZINC63573607_808
57   61    1
SMALL
USER_CHARGES


@<TRIPOS>ATOM
      1 C1          9.5003   50.5001   12.8805 C.2       1 UNK         0.0000 
      2 C2         10.4095   49.7930   13.7674 C.2       1 UNK         0.0000 
      3 C3         10.4133   49.9938   15.1096 C.2       1 UNK         0.0000 
      4 C4          9.5179   50.9008   15.6866 C.2       1 UNK         0.0000 
      5 N5          9.3780   51.2424   16.9407 N.pl3     1 UNK         0.0000 
      6 C6          8.2814   52.2097   17.0726 C.3       1 UNK         0.0000 
      7 C7          7.8420   52.4060   15.6387 C.2       1 UNK         0.0000 
      8 C8          8.6058   51.5946   14.8821 C.2       1 UNK         0.0000 
      9 C9          8.6268   51.3680   13.4287 C.2       1 UNK         0.0000 
     10 C10         6.7328   53.3794   15.2583 C.3       1 UNK         0.0000 
     11 C11         5.3719   53.1896   15.9735 C.3       1 UNK         0.0000 
     12 N12         5.4085   53.2969   17.4345 N.am      1 UNK         0.0000 
     13 C13         5.6716   54.4211   18.1292 C.2       1 UNK         0.0000 
     14 O14         5.9264   55.4929   17.5783 O.2       1 UNK         0.0000 
     15 C15         5.6813   54.3094   19.6392 C.ar      1 UNK         0.0000 
     16 C16         6.3145   55.2977   20.4076 C.ar      1 UNK         0.0000 
     17 C17         6.3169   55.2299   21.7999 C.ar      1 UNK         0.0000 
     18 C18         5.6717   54.1695   22.4509 C.ar      1 UNK         0.0000 
     19 C19         5.0566   53.1753   21.6885 C.ar      1 UNK         0.0000 
     20 C20         5.0573   53.2408   20.2987 C.ar      1 UNK         0.0000 
     21 N21         5.5348   54.0403   23.8456 N.am      1 UNK         0.0000 
     22 C22         5.9444   54.8399   24.8576 C.2       1 UNK         0.0000 
     23 O23         6.8168   55.6968   24.7075 O.2       1 UNK         0.0000 
     24 N24         5.3255   54.6343   26.0694 N.am      1 UNK         0.0000 
     25 C25         6.1371   54.9962   27.2555 C.3       1 UNK         0.0000 
     26 C26         6.2872   53.7345   28.1144 C.3       1 UNK         0.0000 
     27 S27         4.7042   53.3146   28.8812 S.3       1 UNK         0.0000 
     28 C28         3.6529   53.4112   27.4639 C.ar      1 UNK         0.0000 
     29 C29         4.0328   54.0270   26.2474 C.ar      1 UNK         0.0000 
     30 C30         3.0252   54.0972   25.2593 C.ar      1 UNK         0.0000 
     31 C31         1.7799   53.5033   25.4534 C.ar      1 UNK         0.0000 
     32 C32         1.5216   52.8942   26.6760 C.ar      1 UNK         0.0000 
     33 N33         2.4304   52.8594   27.6772 N.ar      1 UNK         0.0000 
     34 H34         9.5469   50.3345   11.8128 H         1 UNK         0.0000 
     35 H35        11.1093   49.0940   13.3304 H         1 UNK         0.0000 
     36 H36        11.1179   49.4420   15.7156 H         1 UNK         0.0000 
     37 H37         7.5060   51.7476   17.6818 H         1 UNK         0.0000 
     38 H38         8.6667   53.1111   17.5520 H         1 UNK         0.0000 
     39 H39         7.9589   51.8961   12.7647 H         1 UNK         0.0000 
     40 H40         7.0967   54.3927   15.4297 H         1 UNK         0.0000 
     41 H41         6.5707   53.3094   14.1829 H         1 UNK         0.0000 
     42 H42         4.6374   53.8952   15.5775 H         1 UNK         0.0000 
     43 H43         4.9882   52.1929   15.7472 H         1 UNK         0.0000 
     44 H44         5.2512   52.4265   17.9349 H         1 UNK         0.0000 
     45 H45         6.8070   56.1326   19.9281 H         1 UNK         0.0000 
     46 H46         6.8075   56.0183   22.3478 H         1 UNK         0.0000 
     47 H47         4.5453   52.3513   22.1616 H         1 UNK         0.0000 
     48 H48         4.5499   52.4582   19.7503 H         1 UNK         0.0000 
     49 H49         4.9152   53.2957   24.1272 H         1 UNK         0.0000 
     50 H50         7.1067   55.4445   27.0410 H         1 UNK         0.0000 
     51 H51         5.5727   55.6964   27.8688 H         1 UNK         0.0000 
     52 H52         6.6278   52.8818   27.5251 H         1 UNK         0.0000 
     53 H53         7.0180   53.8889   28.9093 H         1 UNK         0.0000 
     54 H54         3.1766   54.6256   24.3300 H         1 UNK         0.0000 
     55 H55         1.0217   53.5436   24.6847 H         1 UNK         0.0000 
     56 H56         0.5654   52.4323   26.8778 H         1 UNK         0.0000 
     57 H57         9.9268   50.8957   17.7284 H         1 UNK         0.0000 
@<TRIPOS>BOND
     1    1    9 2    
     2    1    2 1    
     3    1   34 1    
     4    2    3 2    
     5    2   35 1    
     6    3    4 1    
     7    3   36 1    
     8    4    8 1    
     9    4    5 2    
    10    5    6 1    
    11    5   57 1    
    12    6    7 1    
    13    6   37 1    
    14    6   38 1    
    15    7    8 2    
    16    7   10 1    
    17    8    9 1    
    18    9   39 1    
    19   10   11 1    
    20   10   40 1    
    21   10   41 1    
    22   11   12 1    
    23   11   42 1    
    24   11   43 1    
    25   12   13 am   BACKBONE|DICT|INTERRES
    26   12   44 1    
    27   13   14 2    
    28   13   15 1    
    29   15   20 ar   
    30   15   16 ar   
    31   16   17 ar   
    32   16   45 1    
    33   17   18 ar   
    34   17   46 1    
    35   18   19 ar   
    36   18   21 1    
    37   19   20 ar   
    38   19   47 1    
    39   20   48 1    
    40   21   22 am   BACKBONE|DICT|INTERRES
    41   21   49 1    
    42   22   23 2    
    43   22   24 am   BACKBONE|DICT|INTERRES
    44   24   29 1    
    45   24   25 1    
    46   25   26 1    
    47   25   50 1    
    48   25   51 1    
    49   26   27 1    
    50   26   52 1    
    51   26   53 1    
    52   27   28 1    
    53   28   33 ar   
    54   28   29 ar   
    55   29   30 ar   
    56   30   31 ar   
    57   30   54 1    
    58   31   32 ar   
    59   31   55 1    
    60   32   33 ar   
    61   32   56 1    
@<TRIPOS>SUBSTRUCTURE
     1 UNK         1 GROUP             0       ****    0 ROOT    
