@<TRIPOS>MOLECULE
ZINC15421790_2041
64   67    1
SMALL
USER_CHARGES


@<TRIPOS>ATOM
      1 C1          3.5474   59.2964   14.8779 C.3       1 UNK         0.0000 
      2 C2          4.7025   58.3786   15.2607 C.2       1 UNK         0.0000 
      3 O3          5.4272   57.9305   14.3729 O.2       1 UNK         0.0000 
      4 N4          4.8181   58.0957   16.5735 N.am      1 UNK         0.0000 
      5 C5          5.7868   57.3015   17.2119 C.ar      1 UNK         0.0000 
      6 C6          7.0825   57.0943   16.7132 C.ar      1 UNK         0.0000 
      7 C7          7.9954   56.3211   17.4308 C.ar      1 UNK         0.0000 
      8 C8          7.6313   55.7602   18.6544 C.ar      1 UNK         0.0000 
      9 C9          6.3444   55.9758   19.1712 C.ar      1 UNK         0.0000 
     10 C10         5.4293   56.7336   18.4372 C.ar      1 UNK         0.0000 
     11 N11         5.9051   55.4485   20.3966 N.am      1 UNK         0.0000 
     12 C12         6.6375   55.2967   21.5208 C.2       1 UNK         0.0000 
     13 O13         7.8243   55.6177   21.5979 O.2       1 UNK         0.0000 
     14 C14         5.9061   54.7792   22.7453 C.ar      1 UNK         0.0000 
     15 C15         6.5103   54.9060   24.0060 C.ar      1 UNK         0.0000 
     16 C16         5.8284   54.5680   25.1718 C.ar      1 UNK         0.0000 
     17 C17         4.5224   54.0966   25.0976 C.ar      1 UNK         0.0000 
     18 C18         3.9095   53.9170   23.8550 C.ar      1 UNK         0.0000 
     19 C19         4.6014   54.2474   22.6836 C.ar      1 UNK         0.0000 
     20 S20         2.2072   53.3557   23.7869 S.o2      1 UNK         0.0000 
     21 O21         1.8882   52.7815   25.0990 O.2       1 UNK         0.0000 
     22 O22         1.4407   54.4966   23.2817 O.2       1 UNK         0.0000 
     23 N23         2.1298   52.0611   22.5786 N.pl3     1 UNK         0.0000 
     24 C24         1.9513   52.3121   21.1231 C.3       1 UNK         0.0000 
     25 C25         1.4826   50.9305   20.6167 C.3       1 UNK         0.0000 
     26 C26         2.2255   49.9968   21.5615 C.3       1 UNK         0.0000 
     27 C27         1.9062   50.6303   22.9113 C.3       1 UNK         0.0000 
     28 H28         2.5952   50.2855   23.6818 H         1 UNK         0.0000 
     29 C29         0.4518   50.3355   23.3343 C.3       1 UNK         0.0000 
     30 C30        -0.6423   50.6323   22.2495 C.3       1 UNK         0.0000 
     31 C31        -0.0596   50.7310   20.7882 C.3       1 UNK         0.0000 
     32 C32        -1.7217   49.5241   22.3004 C.3       1 UNK         0.0000 
     33 C33        -1.2690   52.0046   22.5927 C.3       1 UNK         0.0000 
     34 C34         1.9087   50.7128   19.1485 C.3       1 UNK         0.0000 
     35 H35         2.8702   58.7874   14.1926 H         1 UNK         0.0000 
     36 H36         3.9342   60.1886   14.3850 H         1 UNK         0.0000 
     37 H37         2.9792   59.6226   15.7501 H         1 UNK         0.0000 
     38 H38         4.1070   58.4834   17.1738 H         1 UNK         0.0000 
     39 H39         7.3994   57.5379   15.7813 H         1 UNK         0.0000 
     40 H40         8.9898   56.1604   17.0406 H         1 UNK         0.0000 
     41 H41         8.3542   55.1599   19.1880 H         1 UNK         0.0000 
     42 H42         4.4345   56.8954   18.8262 H         1 UNK         0.0000 
     43 H43         4.9171   55.2644   20.4586 H         1 UNK         0.0000 
     44 H44         7.5043   55.3160   24.0963 H         1 UNK         0.0000 
     45 H45         6.3023   54.6916   26.1345 H         1 UNK         0.0000 
     46 H46         3.9945   53.8571   26.0100 H         1 UNK         0.0000 
     47 H47         4.0889   54.1400   21.7399 H         1 UNK         0.0000 
     48 H48         1.1808   53.0563   20.9221 H         1 UNK         0.0000 
     49 H49         2.8966   52.5890   20.6564 H         1 UNK         0.0000 
     50 H50         3.3007   50.0078   21.3691 H         1 UNK         0.0000 
     51 H51         1.8968   48.9584   21.4911 H         1 UNK         0.0000 
     52 H52         0.4919   49.2521   23.4642 H         1 UNK         0.0000 
     53 H53         0.1865   50.6968   24.3291 H         1 UNK         0.0000 
     54 H54        -0.6688   51.3476   20.1253 H         1 UNK         0.0000 
     55 H55        -0.1768   49.7311   20.3653 H         1 UNK         0.0000 
     56 H56        -2.5243   49.7165   21.5872 H         1 UNK         0.0000 
     57 H57        -1.3057   48.5429   22.0672 H         1 UNK         0.0000 
     58 H58        -2.1756   49.4562   23.2903 H         1 UNK         0.0000 
     59 H59        -2.0475   52.2802   21.8812 H         1 UNK         0.0000 
     60 H60        -1.7311   51.9959   23.5802 H         1 UNK         0.0000 
     61 H61        -0.5331   52.8054   22.5938 H         1 UNK         0.0000 
     62 H62         1.6598   49.7091   18.8020 H         1 UNK         0.0000 
     63 H63         1.4160   51.4221   18.4824 H         1 UNK         0.0000 
     64 H64         2.9850   50.8352   19.0136 H         1 UNK         0.0000 
@<TRIPOS>BOND
     1    1    2 1    
     2    1   35 1    
     3    1   36 1    
     4    1   37 1    
     5    2    3 2    
     6    2    4 am   BACKBONE|DICT|INTERRES
     7    4    5 1    
     8    4   38 1    
     9    5   10 ar   
    10    5    6 ar   
    11    6    7 ar   
    12    6   39 1    
    13    7    8 ar   
    14    7   40 1    
    15    8    9 ar   
    16    8   41 1    
    17    9   10 ar   
    18    9   11 1    
    19   10   42 1    
    20   11   12 am   BACKBONE|DICT|INTERRES
    21   11   43 1    
    22   12   13 2    
    23   12   14 1    
    24   14   19 ar   
    25   14   15 ar   
    26   15   16 ar   
    27   15   44 1    
    28   16   17 ar   
    29   16   45 1    
    30   17   18 ar   
    31   17   46 1    
    32   18   19 ar   
    33   18   20 1    
    34   19   47 1    
    35   20   21 2    
    36   20   22 2    
    37   20   23 1    
    38   23   27 1    
    39   23   24 1    
    40   24   25 1    
    41   24   48 1    
    42   24   49 1    
    43   25   31 1    
    44   25   26 1    
    45   25   34 1    
    46   26   27 1    
    47   26   50 1    
    48   26   51 1    
    49   27   28 1    
    50   27   29 1    
    51   29   30 1    
    52   29   52 1    
    53   29   53 1    
    54   30   31 1    
    55   30   32 1    
    56   30   33 1    
    57   31   54 1    
    58   31   55 1    
    59   32   56 1    
    60   32   57 1    
    61   32   58 1    
    62   33   59 1    
    63   33   60 1    
    64   33   61 1    
    65   34   62 1    
    66   34   63 1    
    67   34   64 1    
@<TRIPOS>SUBSTRUCTURE
     1 UNK         1 GROUP             0       ****    0 ROOT    
