@<TRIPOS>MOLECULE
ZINC35227842_3541
59   61    1
SMALL
USER_CHARGES


@<TRIPOS>ATOM
      1 C1          0.5308   53.2267   31.6416 C.3       1 UNK         0.0000 
      2 C2          1.5276   53.3892   30.4806 C.3       1 UNK         0.0000 
      3 C3          1.4600   52.2318   29.4781 C.3       1 UNK         0.0000 
      4 C4          2.4779   52.4278   28.3361 C.3       1 UNK         0.0000 
      5 N5          2.1920   53.6667   27.5893 N.pl3     1 UNK         0.0000 
      6 C6          2.3120   54.8141   28.5129 C.3       1 UNK         0.0000 
      7 C7          1.3271   54.6985   29.6994 C.3       1 UNK         0.0000 
      8 C8          2.6735   53.7553   26.2837 C.ar      1 UNK         0.0000 
      9 C9          3.9173   54.3656   26.0645 C.ar      1 UNK         0.0000 
     10 C10         4.4496   54.4964   24.7856 C.ar      1 UNK         0.0000 
     11 C11         3.7546   53.9953   23.6776 C.ar      1 UNK         0.0000 
     12 C12         2.5260   53.3688   23.8838 C.ar      1 UNK         0.0000 
     13 C13         1.9647   53.2365   25.1671 C.ar      1 UNK         0.0000 
     14 C14         0.6472   52.4967   25.3032 C.2       1 UNK         0.0000 
     15 O15         0.4288   51.7226   26.2328 O.2       1 UNK         0.0000 
     16 N16        -0.2618   52.7294   24.3370 N.am      1 UNK         0.0000 
     17 C17        -1.5845   52.1069   24.2635 C.3       1 UNK         0.0000 
     18 C18        -2.4987   52.8985   23.3201 C.3       1 UNK         0.0000 
     19 C19        -1.5107   50.6213   23.8609 C.3       1 UNK         0.0000 
     20 N20         4.1883   54.0966   22.3402 N.am      1 UNK         0.0000 
     21 C21         5.3841   54.4967   21.8652 C.2       1 UNK         0.0000 
     22 O22         6.3849   54.6872   22.5553 O.2       1 UNK         0.0000 
     23 N23         5.3008   54.7430   20.5429 N.am      1 UNK         0.0000 
     24 C24         6.2401   55.3779   19.7054 C.ar      1 UNK         0.0000 
     25 C25         7.6180   55.4252   19.9819 C.ar      1 UNK         0.0000 
     26 C26         8.4893   56.0966   19.1263 C.ar      1 UNK         0.0000 
     27 C27         7.9999   56.7320   17.9880 C.ar      1 UNK         0.0000 
     28 C28         6.6378   56.6873   17.6994 C.ar      1 UNK         0.0000 
     29 C29         5.7581   56.0111   18.5462 C.ar      1 UNK         0.0000 
     30 Br30        3.9049   55.9910   18.0827 Br        1 UNK         0.0000 
     31 H31        -0.4958   53.1563   31.2799 H         1 UNK         0.0000 
     32 H32         0.7332   52.3218   32.2157 H         1 UNK         0.0000 
     33 H33         0.5777   54.0674   32.3335 H         1 UNK         0.0000 
     34 H34         2.5440   53.3878   30.8737 H         1 UNK         0.0000 
     35 H35         0.4537   52.1175   29.0698 H         1 UNK         0.0000 
     36 H36         1.6492   51.2969   29.9967 H         1 UNK         0.0000 
     37 H37         2.4279   51.5591   27.6817 H         1 UNK         0.0000 
     38 H38         3.4998   52.4639   28.7182 H         1 UNK         0.0000 
     39 H39         3.3395   54.8967   28.8718 H         1 UNK         0.0000 
     40 H40         2.0888   55.7332   27.9705 H         1 UNK         0.0000 
     41 H41         1.4330   55.5517   30.3712 H         1 UNK         0.0000 
     42 H42         0.3044   54.7727   29.3288 H         1 UNK         0.0000 
     43 H43         4.4864   54.7542   26.8957 H         1 UNK         0.0000 
     44 H44         5.3981   54.9989   24.6847 H         1 UNK         0.0000 
     45 H45         2.0061   52.9654   23.0248 H         1 UNK         0.0000 
     46 H46        -0.0516   53.4316   23.6460 H         1 UNK         0.0000 
     47 H47        -2.0383   52.1607   25.2575 H         1 UNK         0.0000 
     48 H48        -3.4901   52.4459   23.2819 H         1 UNK         0.0000 
     49 H49        -2.1159   52.8967   22.2990 H         1 UNK         0.0000 
     50 H50        -2.6304   53.9280   23.6564 H         1 UNK         0.0000 
     51 H51        -2.5099   50.1956   23.7648 H         1 UNK         0.0000 
     52 H52        -1.0178   50.4901   22.8971 H         1 UNK         0.0000 
     53 H53        -0.9877   50.0245   24.6093 H         1 UNK         0.0000 
     54 H54         3.4931   53.8491   21.6527 H         1 UNK         0.0000 
     55 H55         4.4091   54.5735   20.1021 H         1 UNK         0.0000 
     56 H56         8.0397   54.9361   20.8463 H         1 UNK         0.0000 
     57 H57         9.5458   56.1228   19.3467 H         1 UNK         0.0000 
     58 H58         8.6756   57.2550   17.3270 H         1 UNK         0.0000 
     59 H59         6.2612   57.1798   16.8144 H         1 UNK         0.0000 
@<TRIPOS>BOND
     1    1    2 1    
     2    1   31 1    
     3    1   32 1    
     4    1   33 1    
     5    2    7 1    
     6    2    3 1    
     7    2   34 1    
     8    3    4 1    
     9    3   35 1    
    10    3   36 1    
    11    4    5 1    
    12    4   37 1    
    13    4   38 1    
    14    5    6 1    
    15    5    8 1    
    16    6    7 1    
    17    6   39 1    
    18    6   40 1    
    19    7   41 1    
    20    7   42 1    
    21    8   13 ar   
    22    8    9 ar   
    23    9   10 ar   
    24    9   43 1    
    25   10   11 ar   
    26   10   44 1    
    27   11   12 ar   
    28   11   20 1    
    29   12   13 ar   
    30   12   45 1    
    31   13   14 1    
    32   14   15 2    
    33   14   16 am   BACKBONE|DICT|INTERRES
    34   16   17 1    
    35   16   46 1    
    36   17   18 1    
    37   17   19 1    
    38   17   47 1    
    39   18   48 1    
    40   18   49 1    
    41   18   50 1    
    42   19   51 1    
    43   19   52 1    
    44   19   53 1    
    45   20   21 am   BACKBONE|DICT|INTERRES
    46   20   54 1    
    47   21   22 2    
    48   21   23 am   BACKBONE|DICT|INTERRES
    49   23   24 1    
    50   23   55 1    
    51   24   29 ar   
    52   24   25 ar   
    53   25   26 ar   
    54   25   56 1    
    55   26   27 ar   
    56   26   57 1    
    57   27   28 ar   
    58   27   58 1    
    59   28   29 ar   
    60   28   59 1    
    61   29   30 1    
@<TRIPOS>SUBSTRUCTURE
     1 UNK         1 GROUP             0       ****    0 ROOT    
