ZINC18196881_4200
                    3D
 Schrodinger Suite 2024-2.
 55 60  0  0  1  0            999 V2000
    8.8222   57.4817   17.8176 C   0  0  0  0  0  0
    9.2992   56.2860   18.3520 C   0  0  0  0  0  0
    8.5378   55.5906   19.2875 C   0  0  0  0  0  0
    7.3010   56.1033   19.6907 C   0  0  0  0  0  0
    6.8231   57.3011   19.1441 C   0  0  0  0  0  0
    7.5850   57.9911   18.2057 C   0  0  0  0  0  0
    6.5243   55.4204   20.6364 N   0  0  0  0  0  0
    5.2992   54.8870   20.4263 C   0  0  0  0  0  0
    4.6750   54.8369   19.3678 O   0  0  0  0  0  0
    4.9005   54.3896   21.7243 C   0  0  0  0  0  0
    5.9245   54.5875   22.5580 C   0  0  0  0  0  0
    6.9830   55.1844   21.9250 N   0  0  0  0  0  0
    7.4060   56.0511   22.2233 H   0  0  0  0  0  0
    5.8495   54.4213   23.9130 N   0  0  0  0  0  0
    4.6622   54.0919   24.5412 C   0  0  0  0  0  0
    3.5127   53.9231   23.8100 C   0  0  0  0  0  0
    3.5041   53.9710   22.2389 C   0  0  2  0  0  0
    2.7972   54.7450   21.9349 H   0  0  0  0  0  0
    2.9225   52.7157   21.5305 C   0  0  0  0  0  0
    3.7583   51.7895   20.8937 C   0  0  0  0  0  0
    3.2227   50.7051   20.2034 C   0  0  0  0  0  0
    1.8492   50.5039   20.1498 C   0  0  0  0  0  0
    0.9792   51.4048   20.7727 C   0  0  0  0  0  0
    1.5352   52.5040   21.4443 C   0  0  0  0  0  0
   -0.4908   51.2160   20.6976 N   0  3  0  0  0  0
   -0.9268   50.2514   20.0763 O   0  0  0  0  0  0
   -1.2222   52.0283   21.2582 O   0  5  0  0  0  0
    2.2230   53.7587   24.5000 C   0  0  0  0  0  0
    1.1548   54.0971   23.9975 O   0  0  0  0  0  0
    2.2720   53.3619   25.9713 C   0  0  0  0  0  0
    3.3656   54.0972   26.7712 C   0  0  2  0  0  0
    3.1059   55.1570   26.7725 H   0  0  0  0  0  0
    4.7482   53.9894   26.0727 C   0  0  0  0  0  0
    3.3461   53.6029   28.2135 C   0  0  0  0  0  0
    4.3230   52.9339   28.9575 C   0  0  0  0  0  0
    3.9020   52.4984   30.2173 C   0  0  0  0  0  0
    2.5889   52.8354   30.4815 C   0  0  0  0  0  0
    1.8987   53.7500   29.1864 S   0  0  0  0  0  0
    9.4150   58.0164   17.0902 H   0  0  0  0  0  0
   10.2593   55.8982   18.0447 H   0  0  0  0  0  0
    8.9096   54.6569   19.6849 H   0  0  0  0  0  0
    5.8599   57.6960   19.4330 H   0  0  0  0  0  0
    7.2153   58.9144   17.7807 H   0  0  0  0  0  0
    6.6754   54.5682   24.4729 H   0  0  0  0  0  0
    4.8309   51.9130   20.9036 H   0  0  0  0  0  0
    3.8808   50.0278   19.6821 H   0  0  0  0  0  0
    1.4690   49.6566   19.5969 H   0  0  0  0  0  0
    0.8644   53.2392   21.8543 H   0  0  0  0  0  0
    1.2813   53.5039   26.4026 H   0  0  0  0  0  0
    2.4502   52.2899   25.9995 H   0  0  0  0  0  0
    5.2827   53.0706   26.3154 H   0  0  0  0  0  0
    5.3434   54.8225   26.4499 H   0  0  0  0  0  0
    5.3133   52.7266   28.5808 H   0  0  0  0  0  0
    4.5312   51.9470   30.9013 H   0  0  0  0  0  0
    2.0049   52.6105   31.3641 H   0  0  0  0  0  0
  1  6  2  0  0  0
  1  2  1  0  0  0
  1 39  1  0  0  0
  2  3  2  0  0  0
  2 40  1  0  0  0
  3  4  1  0  0  0
  3 41  1  0  0  0
  4  5  2  0  0  0
  4  7  1  0  0  0
  5  6  1  0  0  0
  5 42  1  0  0  0
  6 43  1  0  0  0
  7 12  1  0  0  0
  7  8  1  0  0  0
  8  9  2  0  0  0
  8 10  1  0  0  0
 10 17  1  0  0  0
 10 11  2  0  0  0
 11 12  1  0  0  0
 11 14  1  0  0  0
 12 13  1  0  0  0
 14 15  1  0  0  0
 14 44  1  0  0  0
 15 33  1  0  0  0
 15 16  2  0  0  0
 16 17  1  0  0  0
 16 28  1  0  0  0
 17 18  1  0  0  0
 17 19  1  0  0  0
 19 24  2  0  0  0
 19 20  1  0  0  0
 20 21  2  0  0  0
 20 45  1  0  0  0
 21 22  1  0  0  0
 21 46  1  0  0  0
 22 23  2  0  0  0
 22 47  1  0  0  0
 23 24  1  0  0  0
 23 25  1  0  0  0
 24 48  1  0  0  0
 25 26  2  0  0  0
 25 27  1  0  0  0
 28 29  2  0  0  0
 28 30  1  0  0  0
 30 31  1  0  0  0
 30 49  1  0  0  0
 30 50  1  0  0  0
 31 32  1  0  0  0
 31 33  1  0  0  0
 31 34  1  0  0  0
 33 51  1  0  0  0
 33 52  1  0  0  0
 34 38  1  0  0  0
 34 35  2  0  0  0
 35 36  1  0  0  0
 35 53  1  0  0  0
 36 37  2  0  0  0
 36 54  1  0  0  0
 37 38  1  0  0  0
 37 55  1  0  0  0
M  CHG  2  25   1  27  -1
M  END
> <i_i_glide_confnum>
27

> <i_i_glide_lignum>
4201

> <i_i_glide_posenum>
116

> <i_i_glide_rotatable_bonds>
4

> <i_m_Source_File_Index>
1534

> <b_m_subgroup_collapsed>
0

> <r_i_docking_score>
-5.98291

> <r_i_glide_ecoul>
-1.53599

> <r_i_glide_eff_state_penalty>
0

> <r_i_glide_einternal>
6.91454

> <r_i_glide_emodel>
-64.3122

> <r_i_glide_energy>
-51.5284

> <r_i_glide_erotb>
0.259516

> <r_i_glide_esite>
-0.0220648

> <r_i_glide_evdw>
-49.9924

> <r_i_glide_gscore>
-5.98291

> <r_i_glide_hbond>
0

> <r_i_glide_ligand_efficiency>
-0.17094

> <r_i_glide_ligand_efficiency_ln>
-1.31338

> <r_i_glide_ligand_efficiency_sa>
-0.559157

> <r_i_glide_lipo>
-2.70579

> <r_i_glide_metal>
0

> <r_i_glide_rewards>
-0.784559

> <s_i_glide_gridfile>
wee1_glide-grid

> <s_m_Source_File>
wee1_decoys_glide_SP.sdf

> <s_m_Source_Path>
/Users/zhangxujun/Desktop

> <s_m_entry_id>
1809

> <s_m_entry_name>
wee1_decoys_glide_SP.1534

> <s_m_subgroup_title>
wee1_decoys_glide_SP

> <s_m_subgroupid>
wee1_decoys_glide_SP


$$$$
