@<TRIPOS>MOLECULE
ZINC13347200_5888
48   50    1
SMALL
USER_CHARGES


@<TRIPOS>ATOM
      1 C1          1.1729   53.0140   24.9379 C.3       1 UNK         0.0000 
      2 C2          1.6589   52.8967   26.3792 C.ar      1 UNK         0.0000 
      3 C3          0.8636   52.2132   27.3041 C.ar      1 UNK         0.0000 
      4 C4          1.2760   52.0715   28.6274 C.ar      1 UNK         0.0000 
      5 C5          2.4871   52.6273   29.0600 C.ar      1 UNK         0.0000 
      6 C6          3.2777   53.3178   28.1324 C.ar      1 UNK         0.0000 
      7 C7          2.8889   53.4412   26.7912 C.ar      1 UNK         0.0000 
      8 N8          3.6789   54.0977   25.8302 N.am      1 UNK         0.0000 
      9 C9          4.9995   54.3866   25.8430 C.2       1 UNK         0.0000 
     10 O10         5.7867   54.1236   26.7510 O.2       1 UNK         0.0000 
     11 C11         5.5183   55.0917   24.5948 C.3       1 UNK         0.0000 
     12 S12         6.7042   54.0967   23.6518 S.3       1 UNK         0.0000 
     13 C13         6.5326   54.8967   22.0879 C.ar      1 UNK         0.0000 
     14 N14         7.4466   55.6966   21.6018 N.2       1 UNK         0.0000 
     15 N15         7.0324   56.0926   20.3380 N.2       1 UNK         0.0000 
     16 C16         5.9042   55.4750   20.0792 C.ar      1 UNK         0.0000 
     17 N17         5.5047   54.7247   21.1752 N.pl3     1 UNK         0.0000 
     18 C18         4.2710   53.9508   21.3499 C.3       1 UNK         0.0000 
     19 C19         4.4758   52.4494   21.2816 C.2       1 UNK         0.0000 
     20 C20         3.7646   51.6254   20.4972 C.2       1 UNK         0.0000 
     21 C21         5.1754   55.6103   18.7758 C.ar      1 UNK         0.0000 
     22 C22         5.1048   56.8585   18.1453 C.ar      1 UNK         0.0000 
     23 C23         4.3966   57.0090   16.9563 C.ar      1 UNK         0.0000 
     24 C24         3.7773   55.9033   16.3793 C.ar      1 UNK         0.0000 
     25 C25         3.8758   54.6475   16.9741 C.ar      1 UNK         0.0000 
     26 C26         4.5798   54.5007   18.1658 C.ar      1 UNK         0.0000 
     27 Br27        2.7925   56.1091   14.7648 Br        1 UNK         0.0000 
     28 C28         2.9376   52.4967   30.4800 C.2       1 UNK         0.0000 
     29 O29         3.9044   53.1957   30.8490 O.co2     1 UNK         0.0000 
     30 H30         0.1923   52.5593   24.7920 H         1 UNK         0.0000 
     31 H31         1.1046   54.0623   24.6440 H         1 UNK         0.0000 
     32 H32         1.8777   52.5276   24.2628 H         1 UNK         0.0000 
     33 H33        -0.0767   51.7763   26.9999 H         1 UNK         0.0000 
     34 H34         0.6406   51.5301   29.3166 H         1 UNK         0.0000 
     35 H35         4.2040   53.7552   28.4731 H         1 UNK         0.0000 
     36 H36         3.1826   54.3088   24.9792 H         1 UNK         0.0000 
     37 H37         5.9721   56.0434   24.8714 H         1 UNK         0.0000 
     38 H38         4.6672   55.2967   23.9579 H         1 UNK         0.0000 
     39 H39         3.8355   54.1985   22.3140 H         1 UNK         0.0000 
     40 H40         3.5263   54.2743   20.6194 H         1 UNK         0.0000 
     41 H41         5.2440   52.0368   21.9210 H         1 UNK         0.0000 
     42 H42         3.9475   50.5611   20.4906 H         1 UNK         0.0000 
     43 H43         2.9877   51.9965   19.8443 H         1 UNK         0.0000 
     44 H44         5.5772   57.7224   18.5894 H         1 UNK         0.0000 
     45 H45         4.3256   57.9813   16.4885 H         1 UNK         0.0000 
     46 H46         3.4099   53.7889   16.5129 H         1 UNK         0.0000 
     47 H47         4.6642   53.5178   18.6056 H         1 UNK         0.0000 
     48 O48         2.3269   51.7104   31.2330 O.co2     1 UNK         0.0000 
@<TRIPOS>BOND
     1    1    2 1    
     2    1   30 1    
     3    1   31 1    
     4    1   32 1    
     5    2    7 ar   
     6    2    3 ar   
     7    3    4 ar   
     8    3   33 1    
     9    4    5 ar   
    10    4   34 1    
    11    5    6 ar   
    12    5   28 1    
    13    6    7 ar   
    14    6   35 1    
    15    7    8 1    
    16    8    9 am   BACKBONE|DICT|INTERRES
    17    8   36 1    
    18    9   10 2    
    19    9   11 1    
    20   11   12 1    
    21   11   37 1    
    22   11   38 1    
    23   12   13 1    
    24   13   17 ar   
    25   13   14 ar   
    26   14   15 ar   
    27   15   16 ar   
    28   16   17 ar   
    29   16   21 1    
    30   17   18 1    
    31   18   19 1    
    32   18   39 1    
    33   18   40 1    
    34   19   20 2    
    35   19   41 1    
    36   20   42 1    
    37   20   43 1    
    38   21   26 ar   
    39   21   22 ar   
    40   22   23 ar   
    41   22   44 1    
    42   23   24 ar   
    43   23   45 1    
    44   24   25 ar   
    45   24   27 1    
    46   25   26 ar   
    47   25   46 1    
    48   26   47 1    
    49   28   29 2    
    50   28   48 1    
@<TRIPOS>SUBSTRUCTURE
     1 UNK         1 GROUP             0       ****    0 ROOT    
