@<TRIPOS>MOLECULE
ZINC18210644_1528
49   53    1
SMALL
USER_CHARGES


@<TRIPOS>ATOM
      1 C1          1.8625   52.2172   20.9778 C.3       1 UNK         0.0000 
      2 N2          1.8845   51.8913   22.4874 N.4       1 UNK         0.0000 
      3 C3          2.2975   50.4364   22.7711 C.3       1 UNK         0.0000 
      4 C4          1.2633   49.4680   22.1958 C.3       1 UNK         0.0000 
      5 C5         -0.1834   49.9052   22.4069 C.ar      1 UNK         0.0000 
      6 C6         -1.1997   48.9817   22.1266 C.ar      1 UNK         0.0000 
      7 C7         -2.5199   49.3752   22.2576 C.ar      1 UNK         0.0000 
      8 C8         -2.8558   50.6394   22.6318 C.ar      1 UNK         0.0000 
      9 C9         -1.8797   51.5995   22.9240 C.ar      1 UNK         0.0000 
     10 C10        -0.5185   51.2270   22.8329 C.ar      1 UNK         0.0000 
     11 C11         0.5755   52.2459   23.2362 C.3       1 UNK         0.0000 
     12 H12         0.3066   53.2209   22.8272 H         1 UNK         0.0000 
     13 C13         0.9021   52.4221   24.7460 C.ar      1 UNK         0.0000 
     14 C14         0.3290   51.7646   25.7866 C.ar      1 UNK         0.0000 
     15 O15        -0.5923   50.8729   25.7176 O.co2     1 UNK         0.0000 
     16 N16         0.6791   51.9385   27.0766 N.pl3     1 UNK         0.0000 
     17 C17         1.6762   52.7869   27.4633 C.ar      1 UNK         0.0000 
     18 S18         1.9476   52.9122   29.1097 S.2       1 UNK         0.0000 
     19 N19         2.3397   53.4571   26.4259 N.pl3     1 UNK         0.0000 
     20 C20         1.9540   53.3995   25.0867 C.ar      1 UNK         0.0000 
     21 O21         2.4352   54.1161   24.2041 O.2       1 UNK         0.0000 
     22 C22         3.4580   54.3844   26.7721 C.3       1 UNK         0.0000 
     23 C23         4.7651   53.8170   27.3190 C.3       1 UNK         0.0000 
     24 C24         4.7506   54.4378   25.9569 C.3       1 UNK         0.0000 
     25 O25        -2.2089   52.8950   23.2761 O.3       1 UNK         0.0000 
     26 C26        -3.2946   53.0701   24.1826 C.3       1 UNK         0.0000 
     27 O27        -4.2138   50.7433   22.6209 O.3       1 UNK         0.0000 
     28 C28        -4.7090   49.4505   22.4110 C.3       1 UNK         0.0000 
     29 O29        -3.6386   48.6504   21.9994 O.3       1 UNK         0.0000 
     30 H30         1.0442   51.6791   20.5041 H         1 UNK         0.0000 
     31 H31         1.7245   53.2941   20.8968 H         1 UNK         0.0000 
     32 H32         2.8287   51.9263   20.5650 H         1 UNK         0.0000 
     33 H33         3.3064   50.2871   22.3796 H         1 UNK         0.0000 
     34 H34         2.3625   50.3394   23.8552 H         1 UNK         0.0000 
     35 H35         1.4299   48.4977   22.6571 H         1 UNK         0.0000 
     36 H36         1.4422   49.3331   21.1291 H         1 UNK         0.0000 
     37 H37        -0.9585   47.9805   21.7999 H         1 UNK         0.0000 
     38 H38         3.1033   55.3115   27.2178 H         1 UNK         0.0000 
     39 H39         5.2484   54.3453   28.1413 H         1 UNK         0.0000 
     40 H40         4.8790   52.7356   27.4040 H         1 UNK         0.0000 
     41 H41         4.8795   53.7876   25.0894 H         1 UNK         0.0000 
     42 H42         5.2218   55.4099   25.8086 H         1 UNK         0.0000 
     43 H43        -3.2950   54.0943   24.5478 H         1 UNK         0.0000 
     44 H44        -4.2580   52.9153   23.6971 H         1 UNK         0.0000 
     45 H45        -3.2175   52.4066   25.0463 H         1 UNK         0.0000 
     46 H46        -5.1119   49.0664   23.3517 H         1 UNK         0.0000 
     47 H47        -5.4859   49.4642   21.6435 H         1 UNK         0.0000 
     48 H48         2.5748   52.5023   22.9125 H         1 UNK         0.0000 
     49 H49         0.2175   51.4398   27.8223 H         1 UNK         0.0000 
@<TRIPOS>BOND
     1    1    2 1    
     2    1   30 1    
     3    1   31 1    
     4    1   32 1    
     5    2   11 1    
     6    2    3 1    
     7    2   48 1    
     8    3    4 1    
     9    3   33 1    
    10    3   34 1    
    11    4    5 1    
    12    4   35 1    
    13    4   36 1    
    14    5   10 ar   
    15    5    6 ar   
    16    6    7 ar   
    17    6   37 1    
    18    7   29 1    
    19    7    8 ar   
    20    8    9 ar   
    21    8   27 1    
    22    9   10 ar   
    23    9   25 1    
    24   10   11 1    
    25   11   12 1    
    26   11   13 1    
    27   13   14 ar   
    28   13   20 ar   
    29   14   15 1    
    30   14   16 ar   
    31   16   17 ar   
    32   16   49 1    
    33   17   19 ar   
    34   17   18 2    
    35   19   20 ar   
    36   19   22 1    
    37   20   21 2    
    38   22   24 1    
    39   22   23 1    
    40   22   38 1    
    41   23   24 1    
    42   23   39 1    
    43   23   40 1    
    44   24   41 1    
    45   24   42 1    
    46   25   26 1    
    47   26   43 1    
    48   26   44 1    
    49   26   45 1    
    50   27   28 1    
    51   28   29 1    
    52   28   46 1    
    53   28   47 1    
@<TRIPOS>SUBSTRUCTURE
     1 UNK         1 GROUP             0       ****    0 ROOT    
