ZINC39328010_5409
                    3D
 Schrodinger Suite 2024-2.
 69 72  0  0  1  0            999 V2000
    6.4170   55.0458   24.7011 C   0  0  0  0  0  0
    7.0835   54.9752   23.3256 C   0  0  0  0  0  0
    6.1465   54.4941   22.3766 O   0  0  0  0  0  0
    5.9044   55.1058   21.2018 C   0  0  0  0  0  0
    6.4208   56.1821   20.8872 O   0  0  0  0  0  0
    5.0001   54.3494   20.2979 C   0  0  0  0  0  0
    4.0856   53.4304   20.7415 C   0  0  0  0  0  0
    3.2759   52.7377   19.8959 O   0  0  0  0  0  0
    3.3077   52.9550   18.5643 C   0  0  0  0  0  0
    4.1082   53.8580   17.9703 C   0  0  0  0  0  0
    5.1266   54.6792   18.7781 C   0  0  2  0  0  0
    4.8302   55.7220   18.6429 H   0  0  0  0  0  0
    6.5458   54.6037   18.1834 C   0  0  0  0  0  0
    7.3093   55.7650   18.0118 C   0  0  0  0  0  0
    8.5686   55.6966   17.4242 C   0  0  0  0  0  0
    9.0763   54.4698   16.9886 C   0  0  0  0  0  0
    8.3179   53.3079   17.1574 C   0  0  0  0  0  0
    7.0588   53.3781   17.7444 C   0  0  0  0  0  0
   10.4510   54.4080   16.3201 C   0  0  0  0  0  0
   11.4729   53.6682   17.1978 C   0  0  0  0  0  0
   10.3834   53.8197   14.8973 C   0  0  0  0  0  0
    4.0740   54.0113   16.5518 C   0  0  0  0  0  0
    4.0208   54.1302   15.4023 N   0  0  0  0  0  0
    2.4304   52.0945   17.9658 N   0  0  0  0  0  0
    3.6943   53.0073   22.1605 C   0  0  0  0  0  0
    2.4415   54.0967   22.8978 S   0  0  0  0  0  0
    2.2728   53.6191   24.5979 C   0  0  0  0  0  0
    1.1665   52.8864   25.0613 C   0  0  0  0  0  0
    1.1384   52.5291   26.4133 C   0  0  0  0  0  0
    2.1818   52.8966   27.2702 C   0  0  0  0  0  0
    3.2492   53.6368   26.7291 C   0  0  0  0  0  0
    3.2793   54.0062   25.4207 N   0  0  0  0  0  0
    4.4094   54.0617   27.6278 C   0  0  0  0  0  0
    4.0522   53.9836   29.1302 C   0  0  0  0  0  0
    3.4732   52.6649   29.4056 N   0  0  0  0  0  0
    2.1554   52.5570   28.7622 C   0  0  0  0  0  0
    3.3821   52.3754   30.8335 C   0  0  0  0  0  0
    0.0510   52.4980   24.2038 C   0  0  0  0  0  0
   -0.8361   52.1929   23.5255 N   0  0  0  0  0  0
    7.1049   55.4290   25.4496 H   0  0  0  0  0  0
    5.5462   55.6974   24.6829 H   0  0  0  0  0  0
    6.0918   54.0571   25.0243 H   0  0  0  0  0  0
    7.8996   54.2528   23.3515 H   0  0  0  0  0  0
    7.5035   55.9487   23.0626 H   0  0  0  0  0  0
    6.9262   56.7243   18.3282 H   0  0  0  0  0  0
    9.1421   56.6037   17.3006 H   0  0  0  0  0  0
    8.6963   52.3514   16.8272 H   0  0  0  0  0  0
    6.4757   52.4754   17.8562 H   0  0  0  0  0  0
   10.8150   55.4312   16.2097 H   0  0  0  0  0  0
   11.5045   54.0966   18.1991 H   0  0  0  0  0  0
   11.2271   52.6097   17.2927 H   0  0  0  0  0  0
   12.4779   53.7330   16.7789 H   0  0  0  0  0  0
    9.6566   54.3531   14.2826 H   0  0  0  0  0  0
   11.3491   53.8935   14.3934 H   0  0  0  0  0  0
   10.0986   52.7667   14.9061 H   0  0  0  0  0  0
    2.4021   52.0560   16.9572 H   0  0  0  0  0  0
    2.2050   51.2342   18.4456 H   0  0  0  0  0  0
    4.5352   52.8969   22.8385 H   0  0  0  0  0  0
    3.2636   52.0066   22.1118 H   0  0  0  0  0  0
    0.3042   51.9673   26.8150 H   0  0  0  0  0  0
    4.7575   55.0608   27.3665 H   0  0  0  0  0  0
    5.2473   53.3899   27.4365 H   0  0  0  0  0  0
    3.4212   54.8072   29.4712 H   0  0  0  0  0  0
    4.9892   54.0862   29.6813 H   0  0  0  0  0  0
    1.8076   51.5280   28.8856 H   0  0  0  0  0  0
    1.4229   53.1986   29.2587 H   0  0  0  0  0  0
    4.3048   52.6297   31.3557 H   0  0  0  0  0  0
    3.2168   51.3132   30.9911 H   0  0  0  0  0  0
    2.5567   52.9081   31.3035 H   0  0  0  0  0  0
  1  2  1  0  0  0
  1 40  1  0  0  0
  1 41  1  0  0  0
  1 42  1  0  0  0
  2  3  1  0  0  0
  2 43  1  0  0  0
  2 44  1  0  0  0
  3  4  1  0  0  0
  4  5  2  0  0  0
  4  6  1  0  0  0
  6 11  1  0  0  0
  6  7  2  0  0  0
  7  8  1  0  0  0
  7 25  1  0  0  0
  8  9  1  0  0  0
  9 10  2  0  0  0
  9 24  1  0  0  0
 10 11  1  0  0  0
 10 22  1  0  0  0
 11 12  1  0  0  0
 11 13  1  0  0  0
 13 18  2  0  0  0
 13 14  1  0  0  0
 14 15  2  0  0  0
 14 45  1  0  0  0
 15 16  1  0  0  0
 15 46  1  0  0  0
 16 17  2  0  0  0
 16 19  1  0  0  0
 17 18  1  0  0  0
 17 47  1  0  0  0
 18 48  1  0  0  0
 19 20  1  0  0  0
 19 21  1  0  0  0
 19 49  1  0  0  0
 20 50  1  0  0  0
 20 51  1  0  0  0
 20 52  1  0  0  0
 21 53  1  0  0  0
 21 54  1  0  0  0
 21 55  1  0  0  0
 22 23  3  0  0  0
 24 56  1  0  0  0
 24 57  1  0  0  0
 25 26  1  0  0  0
 25 58  1  0  0  0
 25 59  1  0  0  0
 26 27  1  0  0  0
 27 32  2  0  0  0
 27 28  1  0  0  0
 28 29  2  0  0  0
 28 38  1  0  0  0
 29 30  1  0  0  0
 29 60  1  0  0  0
 30 36  1  0  0  0
 30 31  2  0  0  0
 31 32  1  0  0  0
 31 33  1  0  0  0
 33 34  1  0  0  0
 33 61  1  0  0  0
 33 62  1  0  0  0
 34 35  1  0  0  0
 34 63  1  0  0  0
 34 64  1  0  0  0
 35 36  1  0  0  0
 35 37  1  0  0  0
 36 65  1  0  0  0
 36 66  1  0  0  0
 37 67  1  0  0  0
 37 68  1  0  0  0
 37 69  1  0  0  0
 38 39  3  0  0  0
M  END
> <i_i_glide_confnum>
132

> <i_i_glide_lignum>
5410

> <i_i_glide_posenum>
70

> <i_i_glide_rotatable_bonds>
10

> <i_m_Source_File_Index>
2648

> <b_m_subgroup_collapsed>
0

> <r_i_docking_score>
-5.03713

> <r_i_glide_ecoul>
-1.36663

> <r_i_glide_eff_state_penalty>
0

> <r_i_glide_einternal>
12.2598

> <r_i_glide_emodel>
-57.9317

> <r_i_glide_energy>
-48.2784

> <r_i_glide_erotb>
0.440781

> <r_i_glide_esite>
-0.0583333

> <r_i_glide_evdw>
-46.9118

> <r_i_glide_gscore>
-5.03713

> <r_i_glide_hbond>
0

> <r_i_glide_ligand_efficiency>
-0.132556

> <r_i_glide_ligand_efficiency_ln>
-1.08615

> <r_i_glide_ligand_efficiency_sa>
-0.44565

> <r_i_glide_lipo>
-2.47702

> <r_i_glide_metal>
0

> <r_i_glide_rewards>
-0.391976

> <s_i_glide_gridfile>
wee1_glide-grid

> <s_m_Source_File>
wee1_decoys_glide_SP.sdf

> <s_m_Source_Path>
/Users/zhangxujun/Desktop

> <s_m_entry_id>
2923

> <s_m_entry_name>
wee1_decoys_glide_SP.2648

> <s_m_subgroup_title>
wee1_decoys_glide_SP

> <s_m_subgroupid>
wee1_decoys_glide_SP


$$$$
