@<TRIPOS>MOLECULE
ZINC63472725_1257
64   70    1
SMALL
USER_CHARGES


@<TRIPOS>ATOM
      1 C1          4.2612   52.4931   29.6203 C.2       1 UNK         0.0000 
      2 C2          3.6167   52.2726   30.9072 C.2       1 UNK         0.0000 
      3 C3          2.2634   52.2640   31.0453 C.2       1 UNK         0.0000 
      4 C4          1.4398   52.4552   29.9273 C.2       1 UNK         0.0000 
      5 N5          0.1316   52.4610   29.8431 N.pl3     1 UNK         0.0000 
      6 C6         -0.2741   52.6444   28.4336 C.3       1 UNK         0.0000 
      7 C7          1.0676   52.7640   27.7276 C.2       1 UNK         0.0000 
      8 C8          2.0150   52.6509   28.6701 C.2       1 UNK         0.0000 
      9 C9          3.4774   52.6817   28.5444 C.2       1 UNK         0.0000 
     10 C10         1.2284   52.9125   26.2216 C.3       1 UNK         0.0000 
     11 C11         0.1271   52.2693   25.3565 C.3       1 UNK         0.0000 
     12 H12        -0.7850   52.7699   25.6790 H         1 UNK         0.0000 
     13 C13         0.1909   52.4171   23.8152 C.3       1 UNK         0.0000 
     14 H14        -0.2245   53.3730   23.4943 H         1 UNK         0.0000 
     15 C15        -0.5623   51.2296   23.2746 C.3       1 UNK         0.0000 
     16 H16        -1.4050   51.5580   22.6635 H         1 UNK         0.0000 
     17 C17         0.4451   50.5562   22.3347 C.2       1 UNK         0.0000 
     18 O18         0.1597   49.5598   21.6736 O.2       1 UNK         0.0000 
     19 N19         1.6129   51.2694   22.3284 N.am      1 UNK         0.0000 
     20 C20         1.5873   52.3122   23.2080 C.2       1 UNK         0.0000 
     21 O21         2.4820   53.1135   23.4768 O.2       1 UNK         0.0000 
     22 C22         2.8293   50.8380   21.5459 C.3       1 UNK         0.0000 
     23 C23         2.5679   50.2605   20.1174 C.3       1 UNK         0.0000 
     24 C24         1.9627   51.3214   19.1717 C.3       1 UNK         0.0000 
     25 C25         2.9334   52.5112   19.0035 C.3       1 UNK         0.0000 
     26 C26         3.4709   53.0525   20.3484 C.3       1 UNK         0.0000 
     27 C27         3.9461   51.9044   21.2696 C.3       1 UNK         0.0000 
     28 C28        -1.0520   50.4470   24.5586 C.3       1 UNK         0.0000 
     29 N29        -0.0768   50.8488   25.5708 N.3       1 UNK         0.0000 
     30 C30        -2.4963   50.7247   24.9264 C.ar      1 UNK         0.0000 
     31 C31        -3.2124   51.9207   25.0664 C.ar      1 UNK         0.0000 
     32 C32        -4.5517   51.8851   25.4604 C.ar      1 UNK         0.0000 
     33 C33        -5.1827   50.6606   25.6958 C.ar      1 UNK         0.0000 
     34 C34        -4.4774   49.4653   25.5310 C.ar      1 UNK         0.0000 
     35 C35        -3.1389   49.5192   25.1407 C.ar      1 UNK         0.0000 
     36 N36        -2.2608   48.4790   24.9051 N.am      1 UNK         0.0000 
     37 C37        -1.0382   48.8850   24.5238 C.2       1 UNK         0.0000 
     38 O38        -0.0950   48.1451   24.2463 O.2       1 UNK         0.0000 
     39 F39        -5.2383   53.0420   25.6133 F         1 UNK         0.0000 
     40 H40         5.3347   52.4972   29.5201 H         1 UNK         0.0000 
     41 H41         4.2361   52.1185   31.7806 H         1 UNK         0.0000 
     42 H42         1.8392   52.1022   32.0271 H         1 UNK         0.0000 
     43 H43        -0.8600   51.7711   28.1442 H         1 UNK         0.0000 
     44 H44        -0.8888   53.5419   28.3603 H         1 UNK         0.0000 
     45 H45         3.9639   52.8381   27.5923 H         1 UNK         0.0000 
     46 H46         1.2993   53.9726   25.9885 H         1 UNK         0.0000 
     47 H47         2.1988   52.4993   25.9550 H         1 UNK         0.0000 
     48 H48         3.2675   50.0479   22.1578 H         1 UNK         0.0000 
     49 H49         3.5042   49.9097   19.6782 H         1 UNK         0.0000 
     50 H50         1.9636   49.3547   20.1327 H         1 UNK         0.0000 
     51 H51         1.7549   50.8776   18.1975 H         1 UNK         0.0000 
     52 H52         1.0066   51.6702   19.5603 H         1 UNK         0.0000 
     53 H53         3.7803   52.1830   18.3955 H         1 UNK         0.0000 
     54 H54         2.4528   53.3135   18.4428 H         1 UNK         0.0000 
     55 H55         4.2967   53.7390   20.1597 H         1 UNK         0.0000 
     56 H56         2.7070   53.6522   20.8494 H         1 UNK         0.0000 
     57 H57         4.3732   52.3039   22.1863 H         1 UNK         0.0000 
     58 H58         4.8014   51.4176   20.7960 H         1 UNK         0.0000 
     59 H59        -0.4296   50.6350   26.4941 H         1 UNK         0.0000 
     60 H60        -2.7582   52.8803   24.8782 H         1 UNK         0.0000 
     61 H61        -6.2197   50.6394   25.9962 H         1 UNK         0.0000 
     62 H62        -4.9760   48.5212   25.7015 H         1 UNK         0.0000 
     63 H63        -2.4803   47.5063   25.0423 H         1 UNK         0.0000 
     64 H64        -0.5104   52.3096   30.6223 H         1 UNK         0.0000 
@<TRIPOS>BOND
     1    1    9 2    
     2    1    2 1    
     3    1   40 1    
     4    2    3 2    
     5    2   41 1    
     6    3    4 1    
     7    3   42 1    
     8    4    8 1    
     9    4    5 2    
    10    5    6 1    
    11    5   64 1    
    12    6    7 1    
    13    6   43 1    
    14    6   44 1    
    15    7    8 2    
    16    7   10 1    
    17    8    9 1    
    18    9   45 1    
    19   10   11 1    
    20   10   46 1    
    21   10   47 1    
    22   11   12 1    
    23   11   29 1    
    24   11   13 1    
    25   13   14 1    
    26   13   20 1    
    27   13   15 1    
    28   15   16 1    
    29   15   17 1    
    30   15   28 1    
    31   17   18 2    
    32   17   19 am   BACKBONE|DICT|INTERRES
    33   19   20 am   BACKBONE|DICT|INTERRES
    34   19   22 1    
    35   20   21 2    
    36   22   27 1    
    37   22   23 1    
    38   22   48 1    
    39   23   24 1    
    40   23   49 1    
    41   23   50 1    
    42   24   25 1    
    43   24   51 1    
    44   24   52 1    
    45   25   26 1    
    46   25   53 1    
    47   25   54 1    
    48   26   27 1    
    49   26   55 1    
    50   26   56 1    
    51   27   57 1    
    52   27   58 1    
    53   28   37 1    
    54   28   29 1    
    55   28   30 1    
    56   29   59 1    
    57   30   35 ar   
    58   30   31 ar   
    59   31   32 ar   
    60   31   60 1    
    61   32   33 ar   
    62   32   39 1    
    63   33   34 ar   
    64   33   61 1    
    65   34   35 ar   
    66   34   62 1    
    67   35   36 1    
    68   36   37 am   BACKBONE|DICT|INTERRES
    69   36   63 1    
    70   37   38 2    
@<TRIPOS>SUBSTRUCTURE
     1 UNK         1 GROUP             0       ****    0 ROOT    
