@<TRIPOS>MOLECULE
ZINC39448905_4997
56   60    1
SMALL
USER_CHARGES


@<TRIPOS>ATOM
      1 C1         -0.5416   52.0643   29.1295 C.ar      1 UNK         0.0000 
      2 C2          0.0190   51.2964   28.1189 C.ar      1 UNK         0.0000 
      3 C3          1.0589   51.8009   27.3496 C.ar      1 UNK         0.0000 
      4 C4          1.5122   53.1155   27.5067 C.ar      1 UNK         0.0000 
      5 C5          0.9025   53.9044   28.5064 C.ar      1 UNK         0.0000 
      6 C6         -0.0952   53.3634   29.3219 C.ar      1 UNK         0.0000 
      7 C7          1.3976   55.3137   28.7436 C.3       1 UNK         0.0000 
      8 C8          2.8303   55.3789   29.2694 C.3       1 UNK         0.0000 
      9 C9          3.9534   54.6179   28.5534 C.ar      1 UNK         0.0000 
     10 C10         5.2175   54.6806   29.1438 C.ar      1 UNK         0.0000 
     11 C11         6.3345   54.0964   28.5557 C.ar      1 UNK         0.0000 
     12 C12         6.2283   53.4750   27.3361 C.ar      1 UNK         0.0000 
     13 C13         4.9833   53.3866   26.7478 C.ar      1 UNK         0.0000 
     14 C14         3.8137   53.9057   27.3315 C.ar      1 UNK         0.0000 
     15 N15         2.5444   53.6971   26.7253 N.am      1 UNK         0.0000 
     16 C16         2.4180   53.8595   25.3651 C.2       1 UNK         0.0000 
     17 O17         3.2480   54.4961   24.7061 O.2       1 UNK         0.0000 
     18 C18         1.2170   53.2601   24.6103 C.3       1 UNK         0.0000 
     19 S19         1.1062   53.8035   22.8815 S.3       1 UNK         0.0000 
     20 C20         1.9482   52.4919   21.9897 C.2       1 UNK         0.0000 
     21 N21         2.4442   52.8966   20.7723 N.pl3     1 UNK         0.0000 
     22 C22         2.7982   52.0175   19.6469 C.3       1 UNK         0.0000 
     23 H23         3.7793   52.3151   19.2698 H         1 UNK         0.0000 
     24 N24         2.9699   50.6930   20.2646 N.pl3     1 UNK         0.0000 
     25 C25         2.5696   50.4266   21.5211 C.cat     1 UNK         0.0000 
     26 N26         2.0249   51.2900   22.3804 N.2       1 UNK         0.0000 
     27 N27         2.7023   49.1986   21.9777 N.pl3     1 UNK         0.0000 
     28 C28         1.8288   52.0194   18.4699 C.ar      1 UNK         0.0000 
     29 C29         0.4703   52.3254   18.6332 C.ar      1 UNK         0.0000 
     30 C30        -0.3919   52.3191   17.5355 C.ar      1 UNK         0.0000 
     31 C31         0.0958   52.0011   16.2689 C.ar      1 UNK         0.0000 
     32 C32         1.4426   51.6865   16.0982 C.ar      1 UNK         0.0000 
     33 C33         2.3046   51.6961   17.1943 C.ar      1 UNK         0.0000 
     34 Br34        2.1035   51.2351   14.3726 Br        1 UNK         0.0000 
     35 H35        -1.3101   51.6459   29.7625 H         1 UNK         0.0000 
     36 H36        -0.3320   50.2915   27.9471 H         1 UNK         0.0000 
     37 H37         1.5028   51.1616   26.6089 H         1 UNK         0.0000 
     38 H38        -0.5233   53.9560   30.1178 H         1 UNK         0.0000 
     39 H39         0.7454   55.8234   29.4548 H         1 UNK         0.0000 
     40 H40         1.3001   55.8663   27.8176 H         1 UNK         0.0000 
     41 H41         2.8143   55.0280   30.2999 H         1 UNK         0.0000 
     42 H42         3.1039   56.4341   29.2992 H         1 UNK         0.0000 
     43 H43         5.3568   55.2012   30.0799 H         1 UNK         0.0000 
     44 H44         7.2930   54.1001   29.0525 H         1 UNK         0.0000 
     45 H45         7.0932   53.0319   26.8656 H         1 UNK         0.0000 
     46 H46         4.9301   52.8968   25.7932 H         1 UNK         0.0000 
     47 H47         1.2256   52.1737   24.6696 H         1 UNK         0.0000 
     48 H48         0.3090   53.6116   25.0812 H         1 UNK         0.0000 
     49 H49         3.2313   48.5119   21.4544 H         1 UNK         0.0000 
     50 H50         2.4206   49.0139   22.9311 H         1 UNK         0.0000 
     51 H51         0.0771   52.5648   19.6097 H         1 UNK         0.0000 
     52 H52        -1.4366   52.5560   17.6639 H         1 UNK         0.0000 
     53 H53        -0.5706   51.9893   15.4192 H         1 UNK         0.0000 
     54 H54         3.3453   51.4381   17.0490 H         1 UNK         0.0000 
     55 H55         2.2384   53.8521   20.4818 H         1 UNK         0.0000 
     56 H56         3.3485   49.9512   19.6935 H         1 UNK         0.0000 
@<TRIPOS>BOND
     1    1    6 ar   
     2    1    2 ar   
     3    1   35 1    
     4    2    3 ar   
     5    2   36 1    
     6    3    4 ar   
     7    3   37 1    
     8    4   15 1    
     9    4    5 ar   
    10    5    6 ar   
    11    5    7 1    
    12    6   38 1    
    13    7    8 1    
    14    7   39 1    
    15    7   40 1    
    16    8    9 1    
    17    8   41 1    
    18    8   42 1    
    19    9   14 ar   
    20    9   10 ar   
    21   10   11 ar   
    22   10   43 1    
    23   11   12 ar   
    24   11   44 1    
    25   12   13 ar   
    26   12   45 1    
    27   13   14 ar   
    28   13   46 1    
    29   14   15 1    
    30   15   16 am   BACKBONE|DICT|INTERRES
    31   16   17 2    
    32   16   18 1    
    33   18   19 1    
    34   18   47 1    
    35   18   48 1    
    36   19   20 1    
    37   20   26 2    
    38   20   21 1    
    39   21   22 1    
    40   21   55 1    
    41   22   23 1    
    42   22   24 1    
    43   22   28 1    
    44   24   25 ar   
    45   24   56 1    
    46   25   26 1    
    47   25   27 ar   
    48   27   49 1    
    49   27   50 1    
    50   28   33 ar   
    51   28   29 ar   
    52   29   30 ar   
    53   29   51 1    
    54   30   31 ar   
    55   30   52 1    
    56   31   32 ar   
    57   31   53 1    
    58   32   33 ar   
    59   32   34 1    
    60   33   54 1    
@<TRIPOS>SUBSTRUCTURE
     1 UNK         1 GROUP             0       ****    0 ROOT    
