@<TRIPOS>MOLECULE
ZINC11667229_6034
53   56    1
SMALL
USER_CHARGES


@<TRIPOS>ATOM
      1 C1         -0.6131   49.1744   25.6135 C.3       1 UNK         0.0000 
      2 C2          0.6240   49.1359   24.7138 C.3       1 UNK         0.0000 
      3 O3          0.8098   50.3989   24.0817 O.3       1 UNK         0.0000 
      4 C4          1.7995   50.5672   23.1881 C.2       1 UNK         0.0000 
      5 O5          2.5836   49.6974   22.8107 O.2       1 UNK         0.0000 
      6 C6          1.8926   52.0139   22.6953 C.3       1 UNK         0.0000 
      7 C7          3.6095   53.7048   21.7434 C.3       1 UNK         0.0000 
      8 H8          2.7528   54.3788   21.6813 H         1 UNK         0.0000 
      9 C9          4.5283   53.9953   20.5288 C.ar      1 UNK         0.0000 
     10 C10         5.5045   55.0063   20.5603 C.ar      1 UNK         0.0000 
     11 C11         6.4012   55.2030   19.5132 C.ar      1 UNK         0.0000 
     12 C12         6.3085   54.4249   18.3671 C.ar      1 UNK         0.0000 
     13 C13         5.3282   53.4439   18.2828 C.ar      1 UNK         0.0000 
     14 C14         4.4613   53.2220   19.3552 C.ar      1 UNK         0.0000 
     15 N15         3.5045   52.2166   19.1956 N.pl3     1 UNK         0.0000 
     16 C16         2.4337   52.0696   20.1698 C.3       1 UNK         0.0000 
     17 H17         1.7361   52.8966   20.0236 H         1 UNK         0.0000 
     18 C18         1.6449   50.7661   19.9867 C.ar      1 UNK         0.0000 
     19 C19         2.3020   49.5734   19.6443 C.ar      1 UNK         0.0000 
     20 C20         1.5823   48.3953   19.4557 C.ar      1 UNK         0.0000 
     21 C21         0.1965   48.3917   19.6030 C.ar      1 UNK         0.0000 
     22 C22        -0.4692   49.5730   19.9292 C.ar      1 UNK         0.0000 
     23 C23         0.2468   50.7550   20.1133 C.ar      1 UNK         0.0000 
     24 F24        -0.4266   51.8890   20.4187 F         1 UNK         0.0000 
     25 Br25        7.7818   56.4973   19.6775 Br        1 UNK         0.0000 
     26 C26         4.2794   53.9294   23.1219 C.ar      1 UNK         0.0000 
     27 C27         3.5433   54.4966   24.1705 C.ar      1 UNK         0.0000 
     28 C28         4.1568   54.8184   25.3785 C.ar      1 UNK         0.0000 
     29 C29         5.5273   54.6292   25.5295 C.ar      1 UNK         0.0000 
     30 C30         6.2820   54.0956   24.4907 C.ar      1 UNK         0.0000 
     31 C31         5.6543   53.7086   23.3077 C.ar      1 UNK         0.0000 
     32 H32        -0.7798   48.2032   26.0800 H         1 UNK         0.0000 
     33 H33        -0.4983   49.9018   26.4167 H         1 UNK         0.0000 
     34 H34        -1.5120   49.4321   25.0528 H         1 UNK         0.0000 
     35 H35         0.5160   48.3504   23.9619 H         1 UNK         0.0000 
     36 H36         1.5043   48.8954   25.3144 H         1 UNK         0.0000 
     37 H37         2.1347   52.6033   23.5714 H         1 UNK         0.0000 
     38 H38         0.9475   52.3798   22.2970 H         1 UNK         0.0000 
     39 H39         5.6016   55.6357   21.4317 H         1 UNK         0.0000 
     40 H40         6.9965   54.5729   17.5468 H         1 UNK         0.0000 
     41 H41         5.2571   52.8324   17.3968 H         1 UNK         0.0000 
     42 H42         3.7337   51.3972   18.6342 H         1 UNK         0.0000 
     43 H43         3.3722   49.5549   19.5066 H         1 UNK         0.0000 
     44 H44         2.1018   47.4885   19.1829 H         1 UNK         0.0000 
     45 H45        -0.3621   47.4802   19.4504 H         1 UNK         0.0000 
     46 H46        -1.5441   49.5760   20.0301 H         1 UNK         0.0000 
     47 H47         2.4941   54.7172   24.0491 H         1 UNK         0.0000 
     48 H48         3.5801   55.2469   26.1847 H         1 UNK         0.0000 
     49 H49         6.0067   54.8985   26.4591 H         1 UNK         0.0000 
     50 H50         7.3462   53.9484   24.6083 H         1 UNK         0.0000 
     51 H51         6.2559   53.2747   22.5226 H         1 UNK         0.0000 
     52 N52         2.9875   52.2726   21.6141 N.4       1 UNK         0.0000 
     53 H53         3.7357   51.6076   21.7483 H         1 UNK         0.0000 
@<TRIPOS>BOND
     1    1    2 1    
     2    1   32 1    
     3    1   33 1    
     4    1   34 1    
     5    2    3 1    
     6    2   35 1    
     7    2   36 1    
     8    3    4 1    
     9    4    5 2    
    10    4    6 1    
    11    6   37 1    
    12    6   38 1    
    13    6   52 1    
    14    7    8 1    
    15    7    9 1    
    16    7   26 1    
    17    7   52 1    
    18    9   14 ar   
    19    9   10 ar   
    20   10   11 ar   
    21   10   39 1    
    22   11   12 ar   
    23   11   25 1    
    24   12   13 ar   
    25   12   40 1    
    26   13   14 ar   
    27   13   41 1    
    28   14   15 1    
    29   15   16 1    
    30   15   42 1    
    31   16   17 1    
    32   16   18 1    
    33   16   52 1    
    34   18   23 ar   
    35   18   19 ar   
    36   19   20 ar   
    37   19   43 1    
    38   20   21 ar   
    39   20   44 1    
    40   21   22 ar   
    41   21   45 1    
    42   22   23 ar   
    43   22   46 1    
    44   23   24 1    
    45   26   31 ar   
    46   26   27 ar   
    47   27   28 ar   
    48   27   47 1    
    49   28   29 ar   
    50   28   48 1    
    51   29   30 ar   
    52   29   49 1    
    53   30   31 ar   
    54   30   50 1    
    55   31   51 1    
    56   52   53 1    
@<TRIPOS>SUBSTRUCTURE
     1 UNK         1 GROUP             0       ****    0 ROOT    
