@<TRIPOS>MOLECULE
ZINC11096072_5382
65   68    1
SMALL
USER_CHARGES


@<TRIPOS>ATOM
      1 C1          7.7498   56.6242   19.6537 C.3       1 UNK         0.0000 
      2 O2          6.9737   55.6257   19.0176 O.3       1 UNK         0.0000 
      3 C3          6.1666   54.8010   19.7793 C.ar      1 UNK         0.0000 
      4 C4          5.9047   55.0200   21.1431 C.ar      1 UNK         0.0000 
      5 C5          5.0287   54.1904   21.8508 C.ar      1 UNK         0.0000 
      6 C6          4.3781   53.1298   21.2054 C.ar      1 UNK         0.0000 
      7 C7          4.6609   52.8958   19.8497 C.ar      1 UNK         0.0000 
      8 C8          5.5553   53.7022   19.1453 C.ar      1 UNK         0.0000 
      9 N9          5.7591   53.3664   17.7943 N.am      1 UNK         0.0000 
     10 C10         6.9434   53.2184   17.1584 C.2       1 UNK         0.0000 
     11 O11         8.0388   53.4334   17.6813 O.2       1 UNK         0.0000 
     12 C12         6.8719   52.7708   15.7129 C.ar      1 UNK         0.0000 
     13 C13         5.7420   52.1132   15.1976 C.ar      1 UNK         0.0000 
     14 C14         5.7110   51.6908   13.8707 C.ar      1 UNK         0.0000 
     15 C15         6.8088   51.9235   13.0483 C.ar      1 UNK         0.0000 
     16 C16         7.9366   52.5720   13.5393 C.ar      1 UNK         0.0000 
     17 C17         7.9699   52.9905   14.8667 C.ar      1 UNK         0.0000 
     18 O18         3.4925   52.3652   21.9454 O.3       1 UNK         0.0000 
     19 C19         2.8711   51.2325   21.3448 C.3       1 UNK         0.0000 
     20 N20         4.7218   54.4669   23.1902 N.am      1 UNK         0.0000 
     21 C21         5.5759   54.4062   24.2352 C.2       1 UNK         0.0000 
     22 O22         6.7802   54.1750   24.1015 O.2       1 UNK         0.0000 
     23 C23         4.9960   54.6947   25.6474 C.3       1 UNK         0.0000 
     24 C24         3.5030   54.2828   25.7694 C.3       1 UNK         0.0000 
     25 C25         2.9763   54.5365   27.2001 C.3       1 UNK         0.0000 
     26 N26         3.8149   53.7630   28.1352 N.am      1 UNK         0.0000 
     27 C27         5.2379   54.1732   28.1664 C.3       1 UNK         0.0000 
     28 C28         5.8260   53.9734   26.7470 C.3       1 UNK         0.0000 
     29 C29         3.3165   52.8830   29.0522 C.2       1 UNK         0.0000 
     30 O30         3.9984   52.4124   29.9674 O.2       1 UNK         0.0000 
     31 C31         1.8657   52.4623   28.9753 C.ar      1 UNK         0.0000 
     32 C32         1.3059   51.9890   27.7792 C.ar      1 UNK         0.0000 
     33 C33        -0.0345   51.6173   27.7262 C.ar      1 UNK         0.0000 
     34 C34        -0.8184   51.6991   28.8723 C.ar      1 UNK         0.0000 
     35 C35        -0.2649   52.1205   30.0790 C.ar      1 UNK         0.0000 
     36 C36         1.0744   52.4969   30.1334 C.ar      1 UNK         0.0000 
     37 Cl37       -2.4921   51.2949   28.7988 Cl        1 UNK         0.0000 
     38 H38         8.3930   57.1059   18.9150 H         1 UNK         0.0000 
     39 H39         7.1046   57.3916   20.0811 H         1 UNK         0.0000 
     40 H40         8.3933   56.2037   20.4294 H         1 UNK         0.0000 
     41 H41         6.3585   55.8485   21.6656 H         1 UNK         0.0000 
     42 H42         4.1939   52.0742   19.3259 H         1 UNK         0.0000 
     43 H43         4.9474   53.0286   17.3013 H         1 UNK         0.0000 
     44 H44         4.8821   51.8938   15.8171 H         1 UNK         0.0000 
     45 H45         4.8439   51.1743   13.4886 H         1 UNK         0.0000 
     46 H46         6.7873   51.5889   12.0203 H         1 UNK         0.0000 
     47 H47         8.7873   52.7464   12.8952 H         1 UNK         0.0000 
     48 H48         8.8561   53.4893   15.2336 H         1 UNK         0.0000 
     49 H49         2.2319   50.7429   22.0782 H         1 UNK         0.0000 
     50 H50         2.2445   51.5189   20.4988 H         1 UNK         0.0000 
     51 H51         3.6107   50.5024   21.0109 H         1 UNK         0.0000 
     52 H52         3.7380   54.5679   23.3929 H         1 UNK         0.0000 
     53 H53         5.1074   55.7708   25.7705 H         1 UNK         0.0000 
     54 H54         2.8745   54.8841   25.1128 H         1 UNK         0.0000 
     55 H55         3.3616   53.2176   25.5666 H         1 UNK         0.0000 
     56 H56         3.1035   55.5877   27.4550 H         1 UNK         0.0000 
     57 H57         1.9050   54.3606   27.2917 H         1 UNK         0.0000 
     58 H58         5.2887   55.2263   28.4490 H         1 UNK         0.0000 
     59 H59         5.8275   53.5992   28.8838 H         1 UNK         0.0000 
     60 H60         5.8289   52.8965   26.5836 H         1 UNK         0.0000 
     61 H61         6.8472   54.3562   26.7854 H         1 UNK         0.0000 
     62 H62         1.9046   51.9138   26.8819 H         1 UNK         0.0000 
     63 H63        -0.4668   51.2595   26.8030 H         1 UNK         0.0000 
     64 H64        -0.8729   52.1516   30.9714 H         1 UNK         0.0000 
     65 H65         1.4881   52.8232   31.0757 H         1 UNK         0.0000 
@<TRIPOS>BOND
     1    1    2 1    
     2    1   38 1    
     3    1   39 1    
     4    1   40 1    
     5    2    3 1    
     6    3    8 ar   
     7    3    4 ar   
     8    4    5 ar   
     9    4   41 1    
    10    5    6 ar   
    11    5   20 1    
    12    6    7 ar   
    13    6   18 1    
    14    7    8 ar   
    15    7   42 1    
    16    8    9 1    
    17    9   10 am   BACKBONE|DICT|INTERRES
    18    9   43 1    
    19   10   11 2    
    20   10   12 1    
    21   12   17 ar   
    22   12   13 ar   
    23   13   14 ar   
    24   13   44 1    
    25   14   15 ar   
    26   14   45 1    
    27   15   16 ar   
    28   15   46 1    
    29   16   17 ar   
    30   16   47 1    
    31   17   48 1    
    32   18   19 1    
    33   19   49 1    
    34   19   50 1    
    35   19   51 1    
    36   20   21 am   BACKBONE|DICT|INTERRES
    37   20   52 1    
    38   21   22 2    
    39   21   23 1    
    40   23   28 1    
    41   23   24 1    
    42   23   53 1    
    43   24   25 1    
    44   24   54 1    
    45   24   55 1    
    46   25   26 1    
    47   25   56 1    
    48   25   57 1    
    49   26   27 1    
    50   26   29 am   BACKBONE|DICT|INTERRES
    51   27   28 1    
    52   27   58 1    
    53   27   59 1    
    54   28   60 1    
    55   28   61 1    
    56   29   30 2    
    57   29   31 1    
    58   31   36 ar   
    59   31   32 ar   
    60   32   33 ar   
    61   32   62 1    
    62   33   34 ar   
    63   33   63 1    
    64   34   35 ar   
    65   34   37 1    
    66   35   36 ar   
    67   35   64 1    
    68   36   65 1    
@<TRIPOS>SUBSTRUCTURE
     1 UNK         1 GROUP             0       ****    0 ROOT    
