@<TRIPOS>MOLECULE
ZINC39836232_4143
69   72    1
SMALL
USER_CHARGES


@<TRIPOS>ATOM
      1 C1          7.5578   56.4428   16.4384 C.3       1 UNK         0.0000 
      2 C2          6.7145   55.9109   17.6120 C.3       1 UNK         0.0000 
      3 H3          5.8442   56.5643   17.6898 H         1 UNK         0.0000 
      4 C4          6.2789   54.4550   17.3766 C.3       1 UNK         0.0000 
      5 C5          5.2440   53.9788   18.4198 C.3       1 UNK         0.0000 
      6 C6          5.6671   54.3925   19.8451 C.2       1 UNK         0.0000 
      7 C7          6.7222   55.3068   20.0302 C.2       1 UNK         0.0000 
      8 S8          7.1016   55.5707   21.6836 S.3       1 UNK         0.0000 
      9 C9          5.8218   54.5066   22.1887 C.2       1 UNK         0.0000 
     10 C10         5.1224   53.9359   21.0929 C.2       1 UNK         0.0000 
     11 C11         3.9643   53.0468   21.2724 C.2       1 UNK         0.0000 
     12 O12         3.4384   52.8966   22.3775 O.2       1 UNK         0.0000 
     13 N13         3.5218   52.4135   20.1695 N.am      1 UNK         0.0000 
     14 C14         2.4020   51.4755   20.0165 C.3       1 UNK         0.0000 
     15 H15         2.2980   51.2150   18.9596 H         1 UNK         0.0000 
     16 C16         1.0442   52.1076   20.4194 C.3       1 UNK         0.0000 
     17 C17        -0.0203   51.0111   20.4840 C.3       1 UNK         0.0000 
     18 S18         0.8815   49.5617   21.2443 S.o2      1 UNK         0.0000 
     19 O19         0.7277   49.5859   22.7019 O.2       1 UNK         0.0000 
     20 O20         0.5559   48.3494   20.4826 O.2       1 UNK         0.0000 
     21 C21         2.6002   50.1596   20.7990 C.3       1 UNK         0.0000 
     22 N22         5.5433   54.2844   23.5376 N.am      1 UNK         0.0000 
     23 C23         6.0499   54.8610   24.6529 C.2       1 UNK         0.0000 
     24 O24         6.9613   55.6864   24.6916 O.2       1 UNK         0.0000 
     25 C25         5.3932   54.4499   25.8694 C.2       1 UNK         0.0000 
     26 C26         4.0553   54.2806   25.9547 C.2       1 UNK         0.0000 
     27 C27         3.2717   53.8922   27.1378 C.ar      1 UNK         0.0000 
     28 C28         3.8315   53.7319   28.4109 C.ar      1 UNK         0.0000 
     29 C29         3.0203   53.3875   29.4911 C.ar      1 UNK         0.0000 
     30 C30         1.6364   53.2122   29.3270 C.ar      1 UNK         0.0000 
     31 C31         1.0974   53.3664   28.0439 C.ar      1 UNK         0.0000 
     32 C32         1.9042   53.6913   26.9642 C.ar      1 UNK         0.0000 
     33 C33         0.7130   52.8365   30.5129 C.3       1 UNK         0.0000 
     34 C34         1.4702   52.1011   31.6424 C.3       1 UNK         0.0000 
     35 C35        -0.4394   51.8995   30.0490 C.3       1 UNK         0.0000 
     36 C36         0.1197   54.1301   31.1071 C.3       1 UNK         0.0000 
     37 C37         7.5229   55.9861   18.9225 C.3       1 UNK         0.0000 
     38 H38         8.4645   55.8549   16.2934 H         1 UNK         0.0000 
     39 H39         6.9944   56.4148   15.5067 H         1 UNK         0.0000 
     40 H40         7.8584   57.4774   16.6044 H         1 UNK         0.0000 
     41 H41         5.8362   54.3609   16.3839 H         1 UNK         0.0000 
     42 H42         7.1504   53.7990   17.3411 H         1 UNK         0.0000 
     43 H43         5.1722   52.8972   18.3140 H         1 UNK         0.0000 
     44 H44         4.2619   54.3943   18.1854 H         1 UNK         0.0000 
     45 H45         4.0584   52.5623   19.3285 H         1 UNK         0.0000 
     46 H46         1.1133   52.5969   21.3925 H         1 UNK         0.0000 
     47 H47         0.7655   52.9007   19.7235 H         1 UNK         0.0000 
     48 H48        -0.9470   51.2120   21.0192 H         1 UNK         0.0000 
     49 H49        -0.2704   50.7281   19.4621 H         1 UNK         0.0000 
     50 H50         3.1047   49.3758   20.2395 H         1 UNK         0.0000 
     51 H51         3.0867   50.3262   21.7597 H         1 UNK         0.0000 
     52 H52         4.7929   53.6248   23.6846 H         1 UNK         0.0000 
     53 H53         6.0448   54.3111   26.7196 H         1 UNK         0.0000 
     54 H54         3.4582   54.4575   25.0668 H         1 UNK         0.0000 
     55 H55         4.8885   53.8743   28.5757 H         1 UNK         0.0000 
     56 H56         3.4875   53.2764   30.4550 H         1 UNK         0.0000 
     57 H57         0.0428   53.2386   27.8610 H         1 UNK         0.0000 
     58 H58         1.4552   53.7961   25.9869 H         1 UNK         0.0000 
     59 H59         0.7877   51.6960   32.3929 H         1 UNK         0.0000 
     60 H60         2.1448   52.7559   32.1785 H         1 UNK         0.0000 
     61 H61         2.0752   51.2969   31.2456 H         1 UNK         0.0000 
     62 H62        -1.1802   52.4184   29.4431 H         1 UNK         0.0000 
     63 H63        -0.0648   51.0646   29.4557 H         1 UNK         0.0000 
     64 H64        -0.9931   51.4678   30.8815 H         1 UNK         0.0000 
     65 H65        -0.4963   54.6509   30.3770 H         1 UNK         0.0000 
     66 H66        -0.4961   53.9206   31.9834 H         1 UNK         0.0000 
     67 H67         0.8972   54.8286   31.4146 H         1 UNK         0.0000 
     68 H68         7.7401   57.0240   19.1753 H         1 UNK         0.0000 
     69 H69         8.4825   55.4804   18.8104 H         1 UNK         0.0000 
@<TRIPOS>BOND
     1    1    2 1    
     2    1   38 1    
     3    1   39 1    
     4    1   40 1    
     5    2    3 1    
     6    2   37 1    
     7    2    4 1    
     8    4    5 1    
     9    4   41 1    
    10    4   42 1    
    11    5    6 1    
    12    5   43 1    
    13    5   44 1    
    14    6   10 1    
    15    6    7 2    
    16    7    8 1    
    17    7   37 1    
    18    8    9 1    
    19    9   10 2    
    20    9   22 am   BACKBONE|DICT|INTERRES
    21   10   11 1    
    22   11   12 2    
    23   11   13 am   BACKBONE|DICT|INTERRES
    24   13   14 1    
    25   13   45 1    
    26   14   15 1    
    27   14   21 1    
    28   14   16 1    
    29   16   17 1    
    30   16   46 1    
    31   16   47 1    
    32   17   18 1    
    33   17   48 1    
    34   17   49 1    
    35   18   19 2    
    36   18   20 2    
    37   18   21 1    
    38   21   50 1    
    39   21   51 1    
    40   22   23 am   BACKBONE|DICT|INTERRES
    41   22   52 1    
    42   23   24 2    
    43   23   25 1    
    44   25   26 2    
    45   25   53 1    
    46   26   27 1    
    47   26   54 1    
    48   27   32 ar   
    49   27   28 ar   
    50   28   29 ar   
    51   28   55 1    
    52   29   30 ar   
    53   29   56 1    
    54   30   31 ar   
    55   30   33 1    
    56   31   32 ar   
    57   31   57 1    
    58   32   58 1    
    59   33   34 1    
    60   33   35 1    
    61   33   36 1    
    62   34   59 1    
    63   34   60 1    
    64   34   61 1    
    65   35   62 1    
    66   35   63 1    
    67   35   64 1    
    68   36   65 1    
    69   36   66 1    
    70   36   67 1    
    71   37   68 1    
    72   37   69 1    
@<TRIPOS>SUBSTRUCTURE
     1 UNK         1 GROUP             0       ****    0 ROOT    
