@<TRIPOS>MOLECULE
ZINC39665628_381
75   78    1
SMALL
USER_CHARGES


@<TRIPOS>ATOM
      1 C1          1.9488   52.8608   18.7869 C.3       1 UNK         0.0000 
      2 C2          2.8888   51.8297   19.4557 C.3       1 UNK         0.0000 
      3 H3          3.5043   51.3725   18.6819 H         1 UNK         0.0000 
      4 C4          2.0864   50.7001   20.1497 C.3       1 UNK         0.0000 
      5 N5          1.5503   51.1238   21.4478 N.am      1 UNK         0.0000 
      6 C6          0.3229   51.6073   21.7041 C.2       1 UNK         0.0000 
      7 O7         -0.5893   51.5817   20.8786 O.2       1 UNK         0.0000 
      8 C8          0.0431   52.1882   23.1129 C.3       1 UNK         0.0000 
      9 H9         -0.7830   52.8886   22.9874 H         1 UNK         0.0000 
     10 C10         1.2366   53.0516   23.5870 C.3       1 UNK         0.0000 
     11 N11         1.1808   52.9512   25.0488 N.am      1 UNK         0.0000 
     12 C12         0.0967   52.0610   25.4759 C.3       1 UNK         0.0000 
     13 C13        -0.2400   51.1758   24.2514 C.3       1 UNK         0.0000 
     14 C14        -1.6916   50.6423   24.2385 C.3       1 UNK         0.0000 
     15 C15        -2.0127   49.8725   25.5363 C.3       1 UNK         0.0000 
     16 N16        -1.0266   48.6907   25.6817 N.4       1 UNK         0.0000 
     17 C17         0.4720   49.0401   25.4991 C.3       1 UNK         0.0000 
     18 C18         0.6439   49.8922   24.2215 C.3       1 UNK         0.0000 
     19 C19         2.1628   53.4910   25.8300 C.2       1 UNK         0.0000 
     20 O20         3.0925   54.1198   25.3152 O.2       1 UNK         0.0000 
     21 C21         2.1459   53.2921   27.3427 C.ar      1 UNK         0.0000 
     22 C22         0.9373   53.2748   28.0592 C.ar      1 UNK         0.0000 
     23 C23         0.8966   52.9677   29.4124 C.ar      1 UNK         0.0000 
     24 C24         2.0755   52.6788   30.1022 C.ar      1 UNK         0.0000 
     25 C25         3.2895   52.8175   29.4364 C.ar      1 UNK         0.0000 
     26 C26         3.3485   53.1526   28.0729 C.ar      1 UNK         0.0000 
     27 O27         4.5583   53.2968   27.4175 O.3       1 UNK         0.0000 
     28 C28         5.7098   53.6919   28.1572 C.3       1 UNK         0.0000 
     29 O29         2.1288   52.2461   31.4109 O.3       1 UNK         0.0000 
     30 C30         0.9252   52.1719   32.1745 C.3       1 UNK         0.0000 
     31 O31         3.7404   52.3736   20.4796 O.3       1 UNK         0.0000 
     32 C32         4.6051   53.4235   20.2531 C.ar      1 UNK         0.0000 
     33 C33         5.0697   54.0891   21.3874 C.ar      1 UNK         0.0000 
     34 C34         5.9248   55.1800   21.2641 C.ar      1 UNK         0.0000 
     35 C35         6.3123   55.6341   20.0064 C.ar      1 UNK         0.0000 
     36 C36         5.8828   54.9377   18.8652 C.ar      1 UNK         0.0000 
     37 C37         5.0466   53.8301   18.9895 C.ar      1 UNK         0.0000 
     38 O38         7.1044   56.7652   19.9816 O.3       1 UNK         0.0000 
     39 C39         7.4624   57.3288   18.7213 C.3       1 UNK         0.0000 
     40 H40         1.3500   52.3820   18.0100 H         1 UNK         0.0000 
     41 H41         1.2548   53.2952   19.5016 H         1 UNK         0.0000 
     42 H42         2.4800   53.6869   18.3178 H         1 UNK         0.0000 
     43 H43         1.3023   50.3180   19.4933 H         1 UNK         0.0000 
     44 H44         2.7550   49.8582   20.3359 H         1 UNK         0.0000 
     45 H45         2.2310   51.1552   22.1909 H         1 UNK         0.0000 
     46 H46         2.1929   52.6095   23.3029 H         1 UNK         0.0000 
     47 H47         1.1622   54.0825   23.2339 H         1 UNK         0.0000 
     48 H48        -0.7805   52.6897   25.6332 H         1 UNK         0.0000 
     49 H49         0.2601   51.4915   26.3868 H         1 UNK         0.0000 
     50 H50        -2.3826   51.4863   24.1984 H         1 UNK         0.0000 
     51 H51        -1.9003   50.0572   23.3405 H         1 UNK         0.0000 
     52 H52        -1.8989   50.4703   26.4421 H         1 UNK         0.0000 
     53 H53        -3.0132   49.4374   25.5362 H         1 UNK         0.0000 
     54 H54        -1.1610   48.3111   26.6239 H         1 UNK         0.0000 
     55 H55         0.7919   49.5271   26.4195 H         1 UNK         0.0000 
     56 H56         1.0094   48.0963   25.4347 H         1 UNK         0.0000 
     57 H57         0.4644   49.2897   23.3284 H         1 UNK         0.0000 
     58 H58         1.6945   50.1752   24.1625 H         1 UNK         0.0000 
     59 H59        -0.0080   53.4806   27.5863 H         1 UNK         0.0000 
     60 H60        -0.0674   52.9294   29.8956 H         1 UNK         0.0000 
     61 H61         4.1925   52.6279   29.9946 H         1 UNK         0.0000 
     62 H62         6.5202   53.9272   27.4654 H         1 UNK         0.0000 
     63 H63         5.5176   54.5858   28.7546 H         1 UNK         0.0000 
     64 H64         6.0611   52.8967   28.8114 H         1 UNK         0.0000 
     65 H65         1.0944   51.5614   33.0596 H         1 UNK         0.0000 
     66 H66         0.6046   53.1634   32.4969 H         1 UNK         0.0000 
     67 H67         0.0975   51.6964   31.6543 H         1 UNK         0.0000 
     68 H68         4.7523   53.7641   22.3674 H         1 UNK         0.0000 
     69 H69         6.2709   55.6947   22.1488 H         1 UNK         0.0000 
     70 H70         6.1851   55.2413   17.8760 H         1 UNK         0.0000 
     71 H71         4.7419   53.3006   18.0999 H         1 UNK         0.0000 
     72 H72         8.0564   58.2288   18.8804 H         1 UNK         0.0000 
     73 H73         6.5784   57.6191   18.1465 H         1 UNK         0.0000 
     74 H74         8.0674   56.6383   18.1299 H         1 UNK         0.0000 
     75 H75        -1.2800   47.9583   25.0348 H         1 UNK         0.0000 
@<TRIPOS>BOND
     1    1    2 1    
     2    1   40 1    
     3    1   41 1    
     4    1   42 1    
     5    2    3 1    
     6    2    4 1    
     7    2   31 1    
     8    4    5 1    
     9    4   43 1    
    10    4   44 1    
    11    5    6 am   BACKBONE|DICT|INTERRES
    12    5   45 1    
    13    6    7 2    
    14    6    8 1    
    15    8    9 1    
    16    8   13 1    
    17    8   10 1    
    18   10   11 1    
    19   10   46 1    
    20   10   47 1    
    21   11   12 1    
    22   11   19 am   BACKBONE|DICT|INTERRES
    23   12   13 1    
    24   12   48 1    
    25   12   49 1    
    26   13   18 1    
    27   13   14 1    
    28   14   15 1    
    29   14   50 1    
    30   14   51 1    
    31   15   16 1    
    32   15   52 1    
    33   15   53 1    
    34   16   17 1    
    35   16   54 1    
    36   16   75 1    
    37   17   18 1    
    38   17   55 1    
    39   17   56 1    
    40   18   57 1    
    41   18   58 1    
    42   19   20 2    
    43   19   21 1    
    44   21   26 ar   
    45   21   22 ar   
    46   22   23 ar   
    47   22   59 1    
    48   23   24 ar   
    49   23   60 1    
    50   24   25 ar   
    51   24   29 1    
    52   25   26 ar   
    53   25   61 1    
    54   26   27 1    
    55   27   28 1    
    56   28   62 1    
    57   28   63 1    
    58   28   64 1    
    59   29   30 1    
    60   30   65 1    
    61   30   66 1    
    62   30   67 1    
    63   31   32 1    
    64   32   37 ar   
    65   32   33 ar   
    66   33   34 ar   
    67   33   68 1    
    68   34   35 ar   
    69   34   69 1    
    70   35   36 ar   
    71   35   38 1    
    72   36   37 ar   
    73   36   70 1    
    74   37   71 1    
    75   38   39 1    
    76   39   72 1    
    77   39   73 1    
    78   39   74 1    
@<TRIPOS>SUBSTRUCTURE
     1 UNK         1 GROUP             0       ****    0 ROOT    
