@<TRIPOS>MOLECULE
ZINC39677690_3081
71   75    1
SMALL
USER_CHARGES


@<TRIPOS>ATOM
      1 C1          1.8339   55.9025   29.2744 C.3       1 UNK         0.0000 
      2 C2          1.4757   54.4059   29.1971 C.3       1 UNK         0.0000 
      3 C3          1.8572   53.7038   27.8580 C.3       1 UNK         0.0000 
      4 H4          1.3026   54.2456   27.0921 H         1 UNK         0.0000 
      5 C5          3.3552   53.8281   27.5258 C.ar      1 UNK         0.0000 
      6 C6          4.3341   53.4287   28.4449 C.ar      1 UNK         0.0000 
      7 C7          5.6855   53.5832   28.1442 C.ar      1 UNK         0.0000 
      8 C8          6.0655   54.1103   26.9133 C.ar      1 UNK         0.0000 
      9 C9          5.1045   54.4959   25.9828 C.ar      1 UNK         0.0000 
     10 C10         3.7539   54.3602   26.2919 C.ar      1 UNK         0.0000 
     11 C11         1.3754   52.2238   27.8310 C.2       1 UNK         0.0000 
     12 O12         1.5263   51.5377   28.8441 O.2       1 UNK         0.0000 
     13 N13         0.7455   51.7393   26.7285 N.am      1 UNK         0.0000 
     14 C14         0.8702   52.3392   25.3965 C.3       1 UNK         0.0000 
     15 C15         0.7003   51.1146   24.4806 C.3       1 UNK         0.0000 
     16 H16         1.6573   50.5930   24.4136 H         1 UNK         0.0000 
     17 C17        -0.3214   50.2106   25.2050 C.3       1 UNK         0.0000 
     18 C18         0.2043   50.3719   26.6572 C.3       1 UNK         0.0000 
     19 C19        -1.7969   50.7016   25.0770 C.3       1 UNK         0.0000 
     20 C20        -2.7513   49.8891   25.9727 C.3       1 UNK         0.0000 
     21 N21        -2.6646   48.4034   25.5496 N.4       1 UNK         0.0000 
     22 C22        -1.2327   47.8229   25.4597 C.3       1 UNK         0.0000 
     23 C23        -0.3291   48.7651   24.6434 C.3       1 UNK         0.0000 
     24 C24         0.3137   51.5601   23.0547 C.2       1 UNK         0.0000 
     25 O25        -0.4640   52.4966   22.8641 O.2       1 UNK         0.0000 
     26 N26         0.9800   50.9429   22.0658 N.am      1 UNK         0.0000 
     27 C27         0.9614   51.3218   20.6542 C.3       1 UNK         0.0000 
     28 C28         2.2068   52.0970   20.2551 C.2       1 UNK         0.0000 
     29 C29         2.7190   52.3088   18.9783 C.2       1 UNK         0.0000 
     30 C30         3.8710   53.0995   18.9329 C.2       1 UNK         0.0000 
     31 C31         4.3051   53.5276   20.1827 C.2       1 UNK         0.0000 
     32 S32         3.2461   52.8979   21.4132 S.3       1 UNK         0.0000 
     33 C33         5.5012   54.3560   20.5395 C.ar      1 UNK         0.0000 
     34 C34         6.3296   54.8970   19.5456 C.ar      1 UNK         0.0000 
     35 C35         7.4913   55.5726   19.9238 C.ar      1 UNK         0.0000 
     36 C36         7.7935   55.6969   21.2803 C.ar      1 UNK         0.0000 
     37 C37         6.9069   55.1706   22.2170 C.ar      1 UNK         0.0000 
     38 N38         5.7765   54.5087   21.8671 N.ar      1 UNK         0.0000 
     39 H39         1.5321   56.3245   30.2355 H         1 UNK         0.0000 
     40 H40         2.9087   56.0668   29.1755 H         1 UNK         0.0000 
     41 H41         1.3318   56.4763   28.4948 H         1 UNK         0.0000 
     42 H42         0.4012   54.3070   29.3620 H         1 UNK         0.0000 
     43 H43         1.9417   53.8941   30.0419 H         1 UNK         0.0000 
     44 H44         4.0471   53.0052   29.3967 H         1 UNK         0.0000 
     45 H45         6.4388   53.2965   28.8640 H         1 UNK         0.0000 
     46 H46         7.1142   54.2134   26.6790 H         1 UNK         0.0000 
     47 H47         5.4010   54.9045   25.0300 H         1 UNK         0.0000 
     48 H48         3.0243   54.6795   25.5645 H         1 UNK         0.0000 
     49 H49         0.0170   53.0055   25.2484 H         1 UNK         0.0000 
     50 H50         1.8368   52.7989   25.1801 H         1 UNK         0.0000 
     51 H51         1.0489   49.6928   26.7811 H         1 UNK         0.0000 
     52 H52        -0.4821   50.0986   27.4545 H         1 UNK         0.0000 
     53 H53        -1.8693   51.7427   25.3920 H         1 UNK         0.0000 
     54 H54        -2.1440   50.6957   24.0420 H         1 UNK         0.0000 
     55 H55        -2.5131   49.9346   27.0345 H         1 UNK         0.0000 
     56 H56        -3.7927   50.1832   25.8441 H         1 UNK         0.0000 
     57 H57        -3.1921   47.8518   26.2155 H         1 UNK         0.0000 
     58 H58        -0.8953   47.7007   26.4817 H         1 UNK         0.0000 
     59 H59        -1.3220   46.8345   25.0103 H         1 UNK         0.0000 
     60 H60        -0.5991   48.7500   23.5873 H         1 UNK         0.0000 
     61 H61         0.6846   48.3615   24.6900 H         1 UNK         0.0000 
     62 H62         1.6151   50.1974   22.3068 H         1 UNK         0.0000 
     63 H63         0.9052   50.4017   20.0711 H         1 UNK         0.0000 
     64 H64         0.0564   51.8794   20.3963 H         1 UNK         0.0000 
     65 H65         2.2645   51.8960   18.0889 H         1 UNK         0.0000 
     66 H66         4.3729   53.3380   18.0073 H         1 UNK         0.0000 
     67 H67         6.1042   54.7684   18.4965 H         1 UNK         0.0000 
     68 H68         8.1597   55.9682   19.1738 H         1 UNK         0.0000 
     69 H69         8.7075   56.1755   21.6010 H         1 UNK         0.0000 
     70 H70         7.1157   55.2507   23.2741 H         1 UNK         0.0000 
     71 H71        -3.1129   48.3003   24.6500 H         1 UNK         0.0000 
@<TRIPOS>BOND
     1    1    2 1    
     2    1   39 1    
     3    1   40 1    
     4    1   41 1    
     5    2    3 1    
     6    2   42 1    
     7    2   43 1    
     8    3    4 1    
     9    3    5 1    
    10    3   11 1    
    11    5   10 ar   
    12    5    6 ar   
    13    6    7 ar   
    14    6   44 1    
    15    7    8 ar   
    16    7   45 1    
    17    8    9 ar   
    18    8   46 1    
    19    9   10 ar   
    20    9   47 1    
    21   10   48 1    
    22   11   12 2    
    23   11   13 am   BACKBONE|DICT|INTERRES
    24   13   18 1    
    25   13   14 1    
    26   14   15 1    
    27   14   49 1    
    28   14   50 1    
    29   15   16 1    
    30   15   17 1    
    31   15   24 1    
    32   17   23 1    
    33   17   18 1    
    34   17   19 1    
    35   18   51 1    
    36   18   52 1    
    37   19   20 1    
    38   19   53 1    
    39   19   54 1    
    40   20   21 1    
    41   20   55 1    
    42   20   56 1    
    43   21   22 1    
    44   21   57 1    
    45   21   71 1    
    46   22   23 1    
    47   22   58 1    
    48   22   59 1    
    49   23   60 1    
    50   23   61 1    
    51   24   25 2    
    52   24   26 am   BACKBONE|DICT|INTERRES
    53   26   27 1    
    54   26   62 1    
    55   27   28 1    
    56   27   63 1    
    57   27   64 1    
    58   28   32 1    
    59   28   29 2    
    60   29   30 1    
    61   29   65 1    
    62   30   31 2    
    63   30   66 1    
    64   31   32 1    
    65   31   33 1    
    66   33   38 ar   
    67   33   34 ar   
    68   34   35 ar   
    69   34   67 1    
    70   35   36 ar   
    71   35   68 1    
    72   36   37 ar   
    73   36   69 1    
    74   37   38 ar   
    75   37   70 1    
@<TRIPOS>SUBSTRUCTURE
     1 UNK         1 GROUP             0       ****    0 ROOT    
