ZINC34974539_2413
                    3D
 Schrodinger Suite 2024-2.
 58 60  0  0  1  0            999 V2000
    1.5767   53.5975   27.5517 C   0  0  0  0  0  0
    2.3014   52.8411   26.4153 C   0  0  1  0  0  0
    2.9499   52.1120   26.8956 H   0  0  0  0  0  0
    1.3249   51.9860   25.5508 C   0  0  0  0  0  0
    0.4856   52.8507   24.7065 N   0  0  0  0  0  0
    1.0999   54.0942   24.1949 C   0  0  0  0  0  0
    2.6417   53.9559   24.1504 C   0  0  0  0  0  0
    3.1314   53.6951   25.5265 N   0  0  0  0  0  0
    4.3619   54.1623   25.8933 C   0  0  0  0  0  0
    5.0310   54.8843   25.1469 O   0  0  0  0  0  0
    4.9647   53.7623   27.2707 C   0  0  0  0  0  0
    6.4639   53.4914   27.2868 C   0  0  0  0  0  0
    5.9281   54.7605   27.8899 C   0  0  0  0  0  0
   -0.8007   52.5404   24.3683 C   0  0  0  0  0  0
   -1.5003   53.2990   23.6986 O   0  0  0  0  0  0
   -1.4135   51.1565   24.7639 C   0  0  1  0  0  0
   -1.0720   50.9023   25.7637 H   0  0  0  0  0  0
   -2.9772   51.1735   24.9408 C   0  0  0  0  0  0
   -3.4642   52.1824   26.0042 C   0  0  0  0  0  0
   -3.8250   51.2999   23.6567 C   0  0  0  0  0  0
   -0.9510   50.0567   23.9026 N   0  0  0  0  0  0
   -0.7779   50.0525   22.5685 C   0  0  0  0  0  0
   -1.0645   50.9775   21.8070 O   0  0  0  0  0  0
   -0.2346   48.8962   22.1707 N   0  0  0  0  0  0
    0.2053   48.6226   20.8722 C   0  0  0  0  0  0
   -0.4938   47.6592   20.1407 C   0  0  0  0  0  0
   -0.0433   47.2749   18.8778 C   0  0  0  0  0  0
    1.1105   47.8477   18.3450 C   0  0  0  0  0  0
    1.8099   48.8122   19.0701 C   0  0  0  0  0  0
    1.3734   49.1994   20.3394 C   0  0  0  0  0  0
    2.3289   50.3381   21.2328 Cl  0  0  0  0  0  0
    1.6771   47.3431   16.7940 Cl  0  0  0  0  0  0
    0.8080   52.9751   28.0127 H   0  0  0  0  0  0
    2.2581   53.8696   28.3549 H   0  0  0  0  0  0
    1.1045   54.5092   27.2026 H   0  0  0  0  0  0
    0.7709   51.3764   26.2589 H   0  0  0  0  0  0
    1.9038   51.3498   24.8813 H   0  0  0  0  0  0
    0.7591   54.3205   23.1844 H   0  0  0  0  0  0
    0.8521   54.8966   24.8747 H   0  0  0  0  0  0
    2.9000   53.1225   23.4965 H   0  0  0  0  0  0
    3.0301   54.8924   23.7446 H   0  0  0  0  0  0
    4.3541   53.1714   27.9474 H   0  0  0  0  0  0
    6.8406   52.7121   27.9502 H   0  0  0  0  0  0
    7.0271   53.5339   26.3526 H   0  0  0  0  0  0
    6.1580   55.6967   27.3855 H   0  0  0  0  0  0
    5.9060   54.8788   28.9742 H   0  0  0  0  0  0
   -3.2311   50.1926   25.3484 H   0  0  0  0  0  0
   -3.2934   53.2147   25.6971 H   0  0  0  0  0  0
   -4.5330   52.0695   26.1888 H   0  0  0  0  0  0
   -2.9537   52.0275   26.9540 H   0  0  0  0  0  0
   -3.6940   52.2664   23.1739 H   0  0  0  0  0  0
   -3.5828   50.5242   22.9313 H   0  0  0  0  0  0
   -4.8871   51.2007   23.8825 H   0  0  0  0  0  0
   -0.6929   49.2255   24.4123 H   0  0  0  0  0  0
   -0.1915   48.1351   22.8333 H   0  0  0  0  0  0
   -1.3833   47.2009   20.5499 H   0  0  0  0  0  0
   -0.5838   46.5301   18.3141 H   0  0  0  0  0  0
    2.7047   49.2503   18.6539 H   0  0  0  0  0  0
  1  2  1  0  0  0
  1 33  1  0  0  0
  1 34  1  0  0  0
  1 35  1  0  0  0
  2  3  1  0  0  0
  2  8  1  0  0  0
  2  4  1  0  0  0
  4  5  1  0  0  0
  4 36  1  0  0  0
  4 37  1  0  0  0
  5  6  1  0  0  0
  5 14  1  0  0  0
  6  7  1  0  0  0
  6 38  1  0  0  0
  6 39  1  0  0  0
  7  8  1  0  0  0
  7 40  1  0  0  0
  7 41  1  0  0  0
  8  9  1  0  0  0
  9 10  2  0  0  0
  9 11  1  0  0  0
 11 13  1  0  0  0
 11 12  1  0  0  0
 11 42  1  0  0  0
 12 13  1  0  0  0
 12 43  1  0  0  0
 12 44  1  0  0  0
 13 45  1  0  0  0
 13 46  1  0  0  0
 14 15  2  0  0  0
 14 16  1  0  0  0
 16 17  1  0  0  0
 16 18  1  0  0  0
 16 21  1  0  0  0
 18 19  1  0  0  0
 18 20  1  0  0  0
 18 47  1  0  0  0
 19 48  1  0  0  0
 19 49  1  0  0  0
 19 50  1  0  0  0
 20 51  1  0  0  0
 20 52  1  0  0  0
 20 53  1  0  0  0
 21 22  1  0  0  0
 21 54  1  0  0  0
 22 23  2  0  0  0
 22 24  1  0  0  0
 24 25  1  0  0  0
 24 55  1  0  0  0
 25 30  2  0  0  0
 25 26  1  0  0  0
 26 27  2  0  0  0
 26 56  1  0  0  0
 27 28  1  0  0  0
 27 57  1  0  0  0
 28 29  2  0  0  0
 28 32  1  0  0  0
 29 30  1  0  0  0
 29 58  1  0  0  0
 30 31  1  0  0  0
M  END
> <i_i_glide_confnum>
280

> <i_i_glide_lignum>
2414

> <i_i_glide_posenum>
215

> <i_i_glide_rotatable_bonds>
9

> <i_m_Source_File_Index>
1747

> <b_m_subgroup_collapsed>
0

> <r_i_docking_score>
-4.19152

> <r_i_glide_ecoul>
-3.42926

> <r_i_glide_eff_state_penalty>
0

> <r_i_glide_einternal>
12.4811

> <r_i_glide_emodel>
-34.9209

> <r_i_glide_energy>
-33.3178

> <r_i_glide_erotb>
0.678117

> <r_i_glide_esite>
-0.0048674

> <r_i_glide_evdw>
-29.8885

> <r_i_glide_gscore>
-4.19152

> <r_i_glide_hbond>
0

> <r_i_glide_ligand_efficiency>
-0.139717

> <r_i_glide_ligand_efficiency_ln>
-0.952358

> <r_i_glide_ligand_efficiency_sa>
-0.434134

> <r_i_glide_lipo>
-1.67261

> <r_i_glide_metal>
0

> <r_i_glide_rewards>
-1.18334

> <s_i_glide_gridfile>
wee1_glide-grid

> <s_m_Source_File>
wee1_decoys_glide_SP.sdf

> <s_m_Source_Path>
/Users/zhangxujun/Desktop

> <s_m_entry_id>
2022

> <s_m_entry_name>
wee1_decoys_glide_SP.1747

> <s_m_subgroup_title>
wee1_decoys_glide_SP

> <s_m_subgroupid>
wee1_decoys_glide_SP


$$$$
