@<TRIPOS>MOLECULE
ZINC43751617_957
55   58    1
SMALL
USER_CHARGES


@<TRIPOS>ATOM
      1 C1          6.1871   54.7901   26.1800 C.ar      1 UNK         0.0000 
      2 C2          6.6880   54.8330   24.8819 C.ar      1 UNK         0.0000 
      3 C3          5.8696   54.4964   23.8071 C.ar      1 UNK         0.0000 
      4 C4          4.5430   54.1052   24.0310 C.ar      1 UNK         0.0000 
      5 C5          4.0425   54.0963   25.3383 C.ar      1 UNK         0.0000 
      6 C6          4.8643   54.4257   26.4123 C.ar      1 UNK         0.0000 
      7 C7          3.5735   53.8263   22.8782 C.3       1 UNK         0.0000 
      8 C8          4.1161   53.0943   21.6353 C.2       1 UNK         0.0000 
      9 O9          5.1025   52.3612   21.6814 O.2       1 UNK         0.0000 
     10 N10         3.3934   53.2959   20.5251 N.am      1 UNK         0.0000 
     11 C11         3.5680   52.7276   19.1850 C.3       1 UNK         0.0000 
     12 H12         4.4676   52.1001   19.1697 H         1 UNK         0.0000 
     13 C13         2.3973   51.7623   18.8144 C.3       1 UNK         0.0000 
     14 Cl14        0.8029   52.5157   19.1042 Cl        1 UNK         0.0000 
     15 Cl15        2.4604   51.2983   17.0923 Cl        1 UNK         0.0000 
     16 Cl16        2.5071   50.2843   19.8136 Cl        1 UNK         0.0000 
     17 N17         3.7483   53.8107   18.2054 N.pl3     1 UNK         0.0000 
     18 C18         4.9843   54.2484   17.8368 C.2       1 UNK         0.0000 
     19 S19         5.8875   53.4600   16.6806 S.2       1 UNK         0.0000 
     20 N20         5.4209   55.3873   18.4467 N.pl3     1 UNK         0.0000 
     21 C21         6.1353   55.3129   19.7347 C.3       1 UNK         0.0000 
     22 C22         7.4015   56.2099   19.6667 C.3       1 UNK         0.0000 
     23 H23         7.8594   56.2732   20.6548 H         1 UNK         0.0000 
     24 C24         6.9996   57.6438   19.2970 C.3       1 UNK         0.0000 
     25 C25         6.3480   57.6079   17.9143 C.3       1 UNK         0.0000 
     26 H26         6.0257   58.6220   17.6617 H         1 UNK         0.0000 
     27 C27         5.0861   56.7029   17.8734 C.3       1 UNK         0.0000 
     28 C28         7.3842   57.1708   16.8690 C.ar      1 UNK         0.0000 
     29 C29         7.3697   57.6961   15.6224 C.ar      1 UNK         0.0000 
     30 C30         8.3449   57.2335   14.6607 C.ar      1 UNK         0.0000 
     31 C31         9.2403   56.2987   15.0367 C.ar      1 UNK         0.0000 
     32 C32         9.3053   55.7526   16.3863 C.ar      1 UNK         0.0000 
     33 O33        10.1978   54.9522   16.6752 O.2       1 UNK         0.0000 
     34 N34         8.3452   56.2175   17.2673 N.pl3     1 UNK         0.0000 
     35 C35         8.4550   55.6827   18.6568 C.3       1 UNK         0.0000 
     36 H36         6.8207   55.0480   27.0172 H         1 UNK         0.0000 
     37 H37         7.7069   55.1303   24.7045 H         1 UNK         0.0000 
     38 H38         6.2703   54.5494   22.8057 H         1 UNK         0.0000 
     39 H39         3.0136   53.8282   25.5278 H         1 UNK         0.0000 
     40 H40         4.4770   54.4044   27.4205 H         1 UNK         0.0000 
     41 H41         2.7366   53.2345   23.2504 H         1 UNK         0.0000 
     42 H42         3.1497   54.7858   22.5764 H         1 UNK         0.0000 
     43 H43         2.5832   53.9025   20.5988 H         1 UNK         0.0000 
     44 H44         2.9495   54.3999   18.0189 H         1 UNK         0.0000 
     45 H45         5.4724   55.6512   20.5308 H         1 UNK         0.0000 
     46 H46         6.4179   54.2862   19.9747 H         1 UNK         0.0000 
     47 H47         6.3039   58.0470   20.0309 H         1 UNK         0.0000 
     48 H48         7.8650   58.3083   19.2806 H         1 UNK         0.0000 
     49 H49         4.7166   56.6174   16.8489 H         1 UNK         0.0000 
     50 H50         4.2841   57.1453   18.4629 H         1 UNK         0.0000 
     51 H51         6.6286   58.4302   15.3375 H         1 UNK         0.0000 
     52 H52         8.3376   57.6131   13.6484 H         1 UNK         0.0000 
     53 H53         9.9604   55.9328   14.3227 H         1 UNK         0.0000 
     54 H54         9.4570   55.8935   19.0368 H         1 UNK         0.0000 
     55 H55         8.4312   54.5914   18.6282 H         1 UNK         0.0000 
@<TRIPOS>BOND
     1    1    6 ar   
     2    1    2 ar   
     3    1   36 1    
     4    2    3 ar   
     5    2   37 1    
     6    3    4 ar   
     7    3   38 1    
     8    4    5 ar   
     9    4    7 1    
    10    5    6 ar   
    11    5   39 1    
    12    6   40 1    
    13    7    8 1    
    14    7   41 1    
    15    7   42 1    
    16    8    9 2    
    17    8   10 am   BACKBONE|DICT|INTERRES
    18   10   11 1    
    19   10   43 1    
    20   11   12 1    
    21   11   13 1    
    22   11   17 1    
    23   13   14 1    
    24   13   15 1    
    25   13   16 1    
    26   17   18 1    
    27   17   44 1    
    28   18   19 2    
    29   18   20 1    
    30   20   27 1    
    31   20   21 1    
    32   21   22 1    
    33   21   45 1    
    34   21   46 1    
    35   22   23 1    
    36   22   35 1    
    37   22   24 1    
    38   24   25 1    
    39   24   47 1    
    40   24   48 1    
    41   25   26 1    
    42   25   27 1    
    43   25   28 1    
    44   27   49 1    
    45   27   50 1    
    46   28   34 ar   
    47   28   29 ar   
    48   29   30 ar   
    49   29   51 1    
    50   30   31 ar   
    51   30   52 1    
    52   31   32 ar   
    53   31   53 1    
    54   32   33 2    
    55   32   34 ar   
    56   34   35 1    
    57   35   54 1    
    58   35   55 1    
@<TRIPOS>SUBSTRUCTURE
     1 UNK         1 GROUP             0       ****    0 ROOT    
