@<TRIPOS>MOLECULE
ZINC39686562_5460
66   69    1
SMALL
USER_CHARGES


@<TRIPOS>ATOM
      1 C1          1.0974   52.2420   19.3848 C.3       1 UNK         0.0000 
      2 C2          1.8511   51.6079   20.5738 C.3       1 UNK         0.0000 
      3 H3          1.5024   50.5727   20.6359 H         1 UNK         0.0000 
      4 C4          3.3719   51.5037   20.3138 C.3       1 UNK         0.0000 
      5 C5          4.1096   52.8350   20.1163 C.ar      1 UNK         0.0000 
      6 C6          4.3406   53.2853   18.8113 C.ar      1 UNK         0.0000 
      7 C7          5.0582   54.4545   18.5767 C.ar      1 UNK         0.0000 
      8 C8          5.5599   55.1846   19.6473 C.ar      1 UNK         0.0000 
      9 C9          5.3306   54.7542   20.9527 C.ar      1 UNK         0.0000 
     10 C10         4.5953   53.5816   21.2067 C.ar      1 UNK         0.0000 
     11 O11         4.3318   53.1150   22.4815 O.3       1 UNK         0.0000 
     12 C12         4.8551   53.8205   23.6042 C.3       1 UNK         0.0000 
     13 N13         1.5620   52.1903   21.8918 N.am      1 UNK         0.0000 
     14 C14         0.3564   52.2359   22.4938 C.2       1 UNK         0.0000 
     15 O15        -0.6871   51.9941   21.8882 O.2       1 UNK         0.0000 
     16 C16         0.2323   52.6033   23.9993 C.3       1 UNK         0.0000 
     17 H17        -0.4388   53.4614   24.0622 H         1 UNK         0.0000 
     18 C18         1.5784   53.0758   24.5957 C.3       1 UNK         0.0000 
     19 N19         1.4142   52.8360   26.0314 N.am      1 UNK         0.0000 
     20 C20         0.2939   51.9261   26.2973 C.3       1 UNK         0.0000 
     21 C21        -0.2055   51.4226   24.9183 C.3       1 UNK         0.0000 
     22 C22         0.4468   50.0587   24.5209 C.3       1 UNK         0.0000 
     23 C23         0.1619   48.9383   25.5389 C.3       1 UNK         0.0000 
     24 N24        -1.3680   48.7804   25.6816 N.4       1 UNK         0.0000 
     25 C25        -2.1343   50.0979   25.9468 C.3       1 UNK         0.0000 
     26 C26        -1.7276   51.1361   24.8786 C.3       1 UNK         0.0000 
     27 C27         2.1905   53.4468   26.9693 C.2       1 UNK         0.0000 
     28 O28         3.1029   54.2146   26.6594 O.2       1 UNK         0.0000 
     29 C29         1.9436   53.1527   28.4395 C.ar      1 UNK         0.0000 
     30 C30         0.6610   53.3340   28.9839 C.ar      1 UNK         0.0000 
     31 C31         0.3872   52.9993   30.3082 C.ar      1 UNK         0.0000 
     32 C32         1.3956   52.4970   31.1208 C.ar      1 UNK         0.0000 
     33 C33         2.6870   52.3487   30.6189 C.ar      1 UNK         0.0000 
     34 C34         2.9745   52.6812   29.2854 C.ar      1 UNK         0.0000 
     35 Cl35        4.6084   52.4969   28.7218 Cl        1 UNK         0.0000 
     36 Cl36        3.9044   51.7243   31.6800 Cl        1 UNK         0.0000 
     37 H37         1.4037   51.7727   18.4500 H         1 UNK         0.0000 
     38 H38         0.0193   52.1132   19.4500 H         1 UNK         0.0000 
     39 H39         1.3290   53.2965   19.2794 H         1 UNK         0.0000 
     40 H40         3.5061   50.8942   19.4183 H         1 UNK         0.0000 
     41 H41         3.8624   50.9454   21.1130 H         1 UNK         0.0000 
     42 H42         3.9824   52.7067   17.9702 H         1 UNK         0.0000 
     43 H43         5.2359   54.7851   17.5637 H         1 UNK         0.0000 
     44 H44         6.1241   56.0865   19.4632 H         1 UNK         0.0000 
     45 H45         5.7306   55.3523   21.7563 H         1 UNK         0.0000 
     46 H46         4.5892   53.2965   24.5223 H         1 UNK         0.0000 
     47 H47         5.9443   53.8823   23.5712 H         1 UNK         0.0000 
     48 H48         4.4386   54.8263   23.6719 H         1 UNK         0.0000 
     49 H49         2.3739   52.5320   22.3899 H         1 UNK         0.0000 
     50 H50         2.3877   52.4143   24.2837 H         1 UNK         0.0000 
     51 H51         1.7942   54.1155   24.3407 H         1 UNK         0.0000 
     52 H52        -0.5128   52.5425   26.6943 H         1 UNK         0.0000 
     53 H53         0.4754   51.1464   27.0355 H         1 UNK         0.0000 
     54 H54         0.1505   49.7357   23.5218 H         1 UNK         0.0000 
     55 H55         1.5226   50.1783   24.4697 H         1 UNK         0.0000 
     56 H56         0.5469   47.9723   25.2087 H         1 UNK         0.0000 
     57 H57         0.5487   49.1232   26.5404 H         1 UNK         0.0000 
     58 H58        -1.7410   48.3321   24.8577 H         1 UNK         0.0000 
     59 H59        -3.1951   49.8472   25.9096 H         1 UNK         0.0000 
     60 H60        -1.8809   50.3951   26.9666 H         1 UNK         0.0000 
     61 H61        -2.2672   52.0583   25.0995 H         1 UNK         0.0000 
     62 H62        -2.0598   50.8423   23.8819 H         1 UNK         0.0000 
     63 H63        -0.1423   53.7404   28.3871 H         1 UNK         0.0000 
     64 H64        -0.6070   53.1195   30.7114 H         1 UNK         0.0000 
     65 H65         1.1696   52.2275   32.1443 H         1 UNK         0.0000 
     66 H66        -1.5430   48.1627   26.4729 H         1 UNK         0.0000 
@<TRIPOS>BOND
     1    1    2 1    
     2    1   37 1    
     3    1   38 1    
     4    1   39 1    
     5    2    3 1    
     6    2    4 1    
     7    2   13 1    
     8    4    5 1    
     9    4   40 1    
    10    4   41 1    
    11    5   10 ar   
    12    5    6 ar   
    13    6    7 ar   
    14    6   42 1    
    15    7    8 ar   
    16    7   43 1    
    17    8    9 ar   
    18    8   44 1    
    19    9   10 ar   
    20    9   45 1    
    21   10   11 1    
    22   11   12 1    
    23   12   46 1    
    24   12   47 1    
    25   12   48 1    
    26   13   14 am   BACKBONE|DICT|INTERRES
    27   13   49 1    
    28   14   15 2    
    29   14   16 1    
    30   16   17 1    
    31   16   21 1    
    32   16   18 1    
    33   18   19 1    
    34   18   50 1    
    35   18   51 1    
    36   19   20 1    
    37   19   27 am   BACKBONE|DICT|INTERRES
    38   20   21 1    
    39   20   52 1    
    40   20   53 1    
    41   21   26 1    
    42   21   22 1    
    43   22   23 1    
    44   22   54 1    
    45   22   55 1    
    46   23   24 1    
    47   23   56 1    
    48   23   57 1    
    49   24   25 1    
    50   24   58 1    
    51   24   66 1    
    52   25   26 1    
    53   25   59 1    
    54   25   60 1    
    55   26   61 1    
    56   26   62 1    
    57   27   28 2    
    58   27   29 1    
    59   29   34 ar   
    60   29   30 ar   
    61   30   31 ar   
    62   30   63 1    
    63   31   32 ar   
    64   31   64 1    
    65   32   33 ar   
    66   32   65 1    
    67   33   34 ar   
    68   33   36 1    
    69   34   35 1    
@<TRIPOS>SUBSTRUCTURE
     1 UNK         1 GROUP             0       ****    0 ROOT    
