ZINC40095108_5915
                    3D
 Schrodinger Suite 2024-2.
 64 67  0  0  1  0            999 V2000
    4.6224   53.2947   28.5417 C   0  0  0  0  0  0
    4.5349   54.3091   27.3979 C   0  0  2  0  0  0
    4.2806   55.2968   27.7889 H   0  0  0  0  0  0
    3.5455   53.9423   26.2768 C   0  0  0  0  0  0
    4.3693   54.1401   25.0479 C   0  0  0  0  0  0
    4.0760   54.0399   23.6843 C   0  0  0  0  0  0
    5.1077   54.1526   22.7298 C   0  0  0  0  0  0
    6.4270   54.3225   23.1895 C   0  0  0  0  0  0
    6.7065   54.4630   24.5472 C   0  0  0  0  0  0
    5.6669   54.3667   25.4528 C   0  0  0  0  0  0
    5.8293   54.4214   26.8089 O   0  0  0  0  0  0
    4.7979   53.9772   21.2665 C   0  0  0  0  0  0
    3.8177   53.3086   20.9391 O   0  0  0  0  0  0
    5.6127   54.6213   20.2085 C   0  0  0  0  0  0
    6.4361   55.6853   20.2407 C   0  0  0  0  0  0
    7.1405   55.8913   18.9875 C   0  0  0  0  0  0
    8.0100   56.7254   18.7110 O   0  0  0  0  0  0
    6.6341   54.9430   18.1648 N   0  0  0  0  0  0
    5.6059   54.1090   18.7845 C   0  0  2  0  0  0
    5.9387   53.0698   18.7334 H   0  0  0  0  0  0
    4.2503   54.2367   18.0728 C   0  0  0  0  0  0
    3.5230   53.0873   17.7461 C   0  0  0  0  0  0
    2.2816   53.1985   17.1245 C   0  0  0  0  0  0
    1.7549   54.4579   16.8229 C   0  0  0  0  0  0
    2.4860   55.6058   17.1412 C   0  0  0  0  0  0
    3.7165   55.4966   17.7785 C   0  0  0  0  0  0
    0.3707   54.5726   16.1820 C   0  0  0  0  0  0
   -0.6738   55.0592   17.2052 C   0  0  0  0  0  0
    0.3745   55.4456   14.9114 C   0  0  0  0  0  0
    7.0895   54.7522   16.7759 C   0  0  0  0  0  0
    6.5057   55.7401   15.7422 C   0  0  0  0  0  0
    6.9506   57.0659   16.0022 O   0  0  0  0  0  0
    6.2682   58.0790   15.2750 C   0  0  0  0  0  0
    6.9599   59.4253   15.5440 C   0  0  0  0  0  0
    6.3040   60.4912   14.8815 O   0  0  0  0  0  0
    6.7043   56.4965   21.2038 O   0  5  0  0  0  0
    3.6575   53.1592   29.0369 H   0  0  0  0  0  0
    5.3471   53.6295   29.2819 H   0  0  0  0  0  0
    4.9615   52.3210   28.1777 H   0  0  0  0  0  0
    3.2415   52.8969   26.3491 H   0  0  0  0  0  0
    2.6738   54.5839   26.3084 H   0  0  0  0  0  0
    3.0614   53.8465   23.3648 H   0  0  0  0  0  0
    7.2617   54.3533   22.5038 H   0  0  0  0  0  0
    7.7208   54.6098   24.8808 H   0  0  0  0  0  0
    3.9059   52.1024   17.9828 H   0  0  0  0  0  0
    1.7310   52.2995   16.8907 H   0  0  0  0  0  0
    2.0910   56.5872   16.9229 H   0  0  0  0  0  0
    4.2587   56.3937   18.0386 H   0  0  0  0  0  0
    0.0710   53.5735   15.8605 H   0  0  0  0  0  0
   -0.6953   54.4111   18.0816 H   0  0  0  0  0  0
   -0.4497   56.0699   17.5487 H   0  0  0  0  0  0
   -1.6760   55.0700   16.7730 H   0  0  0  0  0  0
    1.1242   55.1008   14.1980 H   0  0  0  0  0  0
   -0.5928   55.4131   14.4107 H   0  0  0  0  0  0
    0.5871   56.4905   15.1369 H   0  0  0  0  0  0
    8.1677   54.9197   16.7937 H   0  0  0  0  0  0
    6.9600   53.7199   16.4499 H   0  0  0  0  0  0
    6.8178   55.4425   14.7408 H   0  0  0  0  0  0
    5.4178   55.6810   15.7460 H   0  0  0  0  0  0
    6.2927   57.8530   14.2069 H   0  0  0  0  0  0
    5.2255   58.1189   15.5973 H   0  0  0  0  0  0
    7.0000   59.6238   16.6154 H   0  0  0  0  0  0
    8.0003   59.3774   15.2173 H   0  0  0  0  0  0
    5.6791   60.8954   15.5077 H   0  0  0  0  0  0
  1  2  1  0  0  0
  1 37  1  0  0  0
  1 38  1  0  0  0
  1 39  1  0  0  0
  2  3  1  0  0  0
  2 11  1  0  0  0
  2  4  1  0  0  0
  4  5  1  0  0  0
  4 40  1  0  0  0
  4 41  1  0  0  0
  5 10  2  0  0  0
  5  6  1  0  0  0
  6  7  2  0  0  0
  6 42  1  0  0  0
  7  8  1  0  0  0
  7 12  1  0  0  0
  8  9  2  0  0  0
  8 43  1  0  0  0
  9 10  1  0  0  0
  9 44  1  0  0  0
 10 11  1  0  0  0
 12 13  2  0  0  0
 12 14  1  0  0  0
 14 19  1  0  0  0
 14 15  2  0  0  0
 15 16  1  0  0  0
 15 36  1  0  0  0
 16 17  2  0  0  0
 16 18  1  0  0  0
 18 19  1  0  0  0
 18 30  1  0  0  0
 19 20  1  0  0  0
 19 21  1  0  0  0
 21 26  2  0  0  0
 21 22  1  0  0  0
 22 23  2  0  0  0
 22 45  1  0  0  0
 23 24  1  0  0  0
 23 46  1  0  0  0
 24 25  2  0  0  0
 24 27  1  0  0  0
 25 26  1  0  0  0
 25 47  1  0  0  0
 26 48  1  0  0  0
 27 28  1  0  0  0
 27 29  1  0  0  0
 27 49  1  0  0  0
 28 50  1  0  0  0
 28 51  1  0  0  0
 28 52  1  0  0  0
 29 53  1  0  0  0
 29 54  1  0  0  0
 29 55  1  0  0  0
 30 31  1  0  0  0
 30 56  1  0  0  0
 30 57  1  0  0  0
 31 32  1  0  0  0
 31 58  1  0  0  0
 31 59  1  0  0  0
 32 33  1  0  0  0
 33 34  1  0  0  0
 33 60  1  0  0  0
 33 61  1  0  0  0
 34 35  1  0  0  0
 34 62  1  0  0  0
 34 63  1  0  0  0
 35 64  1  0  0  0
M  CHG  1  36  -1
M  END
> <i_i_glide_confnum>
266

> <i_i_glide_lignum>
5916

> <i_i_glide_posenum>
171

> <i_i_glide_rotatable_bonds>
10

> <i_m_Source_File_Index>
4551

> <b_m_subgroup_collapsed>
0

> <r_i_docking_score>
-4.76642

> <r_i_glide_ecoul>
-1.40537

> <r_i_glide_eff_state_penalty>
0

> <r_i_glide_einternal>
3.50489

> <r_i_glide_emodel>
-51.1748

> <r_i_glide_energy>
-37.0842

> <r_i_glide_erotb>
0.747403

> <r_i_glide_esite>
0

> <r_i_glide_evdw>
-35.6789

> <r_i_glide_gscore>
-4.76642

> <r_i_glide_hbond>
-0.28808

> <r_i_glide_ligand_efficiency>
-0.140189

> <r_i_glide_ligand_efficiency_ln>
-1.05303

> <r_i_glide_ligand_efficiency_sa>
-0.454157

> <r_i_glide_lipo>
-2.67954

> <r_i_glide_metal>
0

> <r_i_glide_rewards>
-0.551451

> <s_i_glide_gridfile>
wee1_glide-grid

> <s_m_Source_File>
wee1_decoys_glide_SP.sdf

> <s_m_Source_Path>
/Users/zhangxujun/Desktop

> <s_m_entry_id>
4826

> <s_m_entry_name>
wee1_decoys_glide_SP.4551

> <s_m_subgroup_title>
wee1_decoys_glide_SP

> <s_m_subgroupid>
wee1_decoys_glide_SP


$$$$
