@<TRIPOS>MOLECULE
ZINC03373252_4007
53   56    1
SMALL
USER_CHARGES


@<TRIPOS>ATOM
      1 C1          5.4335   54.2164   27.6836 C.3       1 UNK         0.0000 
      2 S2          6.6998   54.8964   26.5762 S.3       1 UNK         0.0000 
      3 C3          5.9688   54.6965   24.9833 C.2       1 UNK         0.0000 
      4 N4          6.6149   54.9904   23.8885 N.2       1 UNK         0.0000 
      5 C5          5.9034   54.6730   22.7744 C.ar      1 UNK         0.0000 
      6 C6          6.3198   54.8968   21.4566 C.ar      1 UNK         0.0000 
      7 C7          5.5075   54.4331   20.4158 C.ar      1 UNK         0.0000 
      8 C8          4.2969   53.7747   20.6591 C.ar      1 UNK         0.0000 
      9 C9          3.8224   53.6380   21.9745 C.ar      1 UNK         0.0000 
     10 C10         4.6336   54.0956   23.0207 C.ar      1 UNK         0.0000 
     11 S11         4.3369   54.0968   24.7485 S.3       1 UNK         0.0000 
     12 N12         3.5906   53.3221   19.5232 N.am      1 UNK         0.0000 
     13 C13         2.5194   52.4968   19.4396 C.2       1 UNK         0.0000 
     14 O14         2.0264   51.8987   20.3965 O.2       1 UNK         0.0000 
     15 C15         1.8466   52.3488   18.0533 C.3       1 UNK         0.0000 
     16 C16         0.9693   53.5919   17.7449 C.3       1 UNK         0.0000 
     17 C17         0.2859   53.4186   16.3679 C.3       1 UNK         0.0000 
     18 N18         1.2666   53.0872   15.2991 N.pl3     1 UNK         0.0000 
     19 C19         2.1993   51.9696   15.5891 C.3       1 UNK         0.0000 
     20 C20         2.9092   52.1822   16.9394 C.3       1 UNK         0.0000 
     21 S21         1.6528   54.2882   14.0443 S.o2      1 UNK         0.0000 
     22 O22         2.5409   53.6699   13.0560 O.2       1 UNK         0.0000 
     23 O23         0.3806   54.8737   13.6039 O.2       1 UNK         0.0000 
     24 C24         2.5510   55.6253   14.8902 C.ar      1 UNK         0.0000 
     25 C25         1.7390   56.6099   15.4722 C.ar      1 UNK         0.0000 
     26 C26         2.2871   57.7329   16.0802 C.ar      1 UNK         0.0000 
     27 C27         3.6654   57.8841   16.1442 C.ar      1 UNK         0.0000 
     28 C28         4.4906   56.9117   15.5878 C.ar      1 UNK         0.0000 
     29 C29         3.9640   55.7737   14.9508 C.ar      1 UNK         0.0000 
     30 C30         4.9650   54.7807   14.3316 C.3       1 UNK         0.0000 
     31 F31         4.6865   53.5249   14.6609 F         1 UNK         0.0000 
     32 F32         4.9601   54.9066   13.0042 F         1 UNK         0.0000 
     33 F33         6.2167   55.0085   14.7420 F         1 UNK         0.0000 
     34 H34         5.7916   54.2680   28.7127 H         1 UNK         0.0000 
     35 H35         5.2328   53.1698   27.4515 H         1 UNK         0.0000 
     36 H36         4.5109   54.7944   27.6257 H         1 UNK         0.0000 
     37 H37         7.2712   55.3641   21.2508 H         1 UNK         0.0000 
     38 H38         5.8497   54.5643   19.3984 H         1 UNK         0.0000 
     39 H39         2.8632   53.1944   22.1939 H         1 UNK         0.0000 
     40 H40         3.9523   53.6468   18.6401 H         1 UNK         0.0000 
     41 H41         1.2691   51.4239   18.1209 H         1 UNK         0.0000 
     42 H42         0.1649   53.6997   18.4761 H         1 UNK         0.0000 
     43 H43         1.5675   54.5038   17.6823 H         1 UNK         0.0000 
     44 H44        -0.4726   52.6346   16.3843 H         1 UNK         0.0000 
     45 H45        -0.2329   54.3382   16.0954 H         1 UNK         0.0000 
     46 H46         1.6346   51.0368   15.5790 H         1 UNK         0.0000 
     47 H47         2.9286   51.8901   14.7847 H         1 UNK         0.0000 
     48 H48         3.5344   53.0679   16.8219 H         1 UNK         0.0000 
     49 H49         3.5062   51.2962   17.1100 H         1 UNK         0.0000 
     50 H50         0.6624   56.5308   15.4274 H         1 UNK         0.0000 
     51 H51         1.6409   58.4984   16.4826 H         1 UNK         0.0000 
     52 H52         4.0936   58.7646   16.6054 H         1 UNK         0.0000 
     53 H53         5.5573   57.0729   15.6414 H         1 UNK         0.0000 
@<TRIPOS>BOND
     1    1    2 1    
     2    1   34 1    
     3    1   35 1    
     4    1   36 1    
     5    2    3 1    
     6    3   11 1    
     7    3    4 2    
     8    4    5 1    
     9    5   10 ar   
    10    5    6 ar   
    11    6    7 ar   
    12    6   37 1    
    13    7    8 ar   
    14    7   38 1    
    15    8    9 ar   
    16    8   12 1    
    17    9   10 ar   
    18    9   39 1    
    19   10   11 1    
    20   12   13 am   BACKBONE|DICT|INTERRES
    21   12   40 1    
    22   13   14 2    
    23   13   15 1    
    24   15   20 1    
    25   15   16 1    
    26   15   41 1    
    27   16   17 1    
    28   16   42 1    
    29   16   43 1    
    30   17   18 1    
    31   17   44 1    
    32   17   45 1    
    33   18   19 1    
    34   18   21 1    
    35   19   20 1    
    36   19   46 1    
    37   19   47 1    
    38   20   48 1    
    39   20   49 1    
    40   21   22 2    
    41   21   23 2    
    42   21   24 1    
    43   24   29 ar   
    44   24   25 ar   
    45   25   26 ar   
    46   25   50 1    
    47   26   27 ar   
    48   26   51 1    
    49   27   28 ar   
    50   27   52 1    
    51   28   29 ar   
    52   28   53 1    
    53   29   30 1    
    54   30   31 1    
    55   30   32 1    
    56   30   33 1    
@<TRIPOS>SUBSTRUCTURE
     1 UNK         1 GROUP             0       ****    0 ROOT    
