@<TRIPOS>MOLECULE
ZINC09265884_2415
53   56    1
SMALL
USER_CHARGES


@<TRIPOS>ATOM
      1 C1          4.2208   51.4284   21.1104 C.3       1 UNK         0.0000 
      2 C2          3.5166   52.7854   20.9353 C.3       1 UNK         0.0000 
      3 H3          3.1071   52.8528   19.9262 H         1 UNK         0.0000 
      4 C4          2.3172   52.8967   21.9199 C.2       1 UNK         0.0000 
      5 O5          1.1868   52.4812   21.6796 O.2       1 UNK         0.0000 
      6 N6          2.6190   53.3857   23.1395 N.am      1 UNK         0.0000 
      7 C7          3.8517   53.7757   23.6726 C.ar      1 UNK         0.0000 
      8 C8          4.0050   53.7892   25.0594 C.ar      1 UNK         0.0000 
      9 C9          5.2425   54.0920   25.6351 C.ar      1 UNK         0.0000 
     10 C10         6.3218   54.4260   24.8107 C.ar      1 UNK         0.0000 
     11 C11         6.1704   54.4352   23.4225 C.ar      1 UNK         0.0000 
     12 C12         4.9409   54.0968   22.8532 C.ar      1 UNK         0.0000 
     13 S13         4.7043   54.1736   21.1062 S.3       1 UNK         0.0000 
     14 S14         5.4888   53.9825   27.4132 S.o2      1 UNK         0.0000 
     15 O15         5.9048   55.2968   27.8349 O.2       1 UNK         0.0000 
     16 O16         6.4213   52.8966   27.6816 O.2       1 UNK         0.0000 
     17 N17         3.9176   53.6520   28.1756 N.pl3     1 UNK         0.0000 
     18 C18         3.7272   52.4140   28.9732 C.3       1 UNK         0.0000 
     19 C19         2.9278   52.6282   30.2693 C.3       1 UNK         0.0000 
     20 C20         1.6588   53.5104   30.1595 C.3       1 UNK         0.0000 
     21 C21         2.0464   54.8307   29.4425 C.3       1 UNK         0.0000 
     22 C22         2.8578   54.7015   28.1396 C.3       1 UNK         0.0000 
     23 C23         0.5298   52.7712   29.3926 C.2       1 UNK         0.0000 
     24 O24        -0.4969   52.5061   30.0096 O.2       1 UNK         0.0000 
     25 N25         0.7302   52.4761   28.0900 N.am      1 UNK         0.0000 
     26 C26        -0.1345   51.8912   27.1476 C.ar      1 UNK         0.0000 
     27 C27        -1.3718   51.3008   27.4545 C.ar      1 UNK         0.0000 
     28 C28        -2.1675   50.7848   26.4344 C.ar      1 UNK         0.0000 
     29 C29        -1.7294   50.8423   25.1133 C.ar      1 UNK         0.0000 
     30 C30        -0.4936   51.4040   24.8022 C.ar      1 UNK         0.0000 
     31 C31         0.3034   51.9212   25.8196 C.ar      1 UNK         0.0000 
     32 Cl32       -2.7214   50.2034   23.8522 Cl        1 UNK         0.0000 
     33 H33         3.5247   50.5930   21.0135 H         1 UNK         0.0000 
     34 H34         4.9773   51.2974   20.3357 H         1 UNK         0.0000 
     35 H35         4.7277   51.3407   22.0716 H         1 UNK         0.0000 
     36 H36         1.8233   53.3495   23.7570 H         1 UNK         0.0000 
     37 H37         3.1774   53.4957   25.6801 H         1 UNK         0.0000 
     38 H38         7.2853   54.6589   25.2404 H         1 UNK         0.0000 
     39 H39         7.0066   54.7044   22.7928 H         1 UNK         0.0000 
     40 H40         4.6998   51.9682   29.1843 H         1 UNK         0.0000 
     41 H41         3.2103   51.6967   28.3388 H         1 UNK         0.0000 
     42 H42         3.5869   53.0674   31.0175 H         1 UNK         0.0000 
     43 H43         2.6869   51.6966   30.7769 H         1 UNK         0.0000 
     44 H44         1.2220   53.7248   31.1385 H         1 UNK         0.0000 
     45 H45         1.1707   55.4717   29.3229 H         1 UNK         0.0000 
     46 H46         2.6101   55.4377   30.1509 H         1 UNK         0.0000 
     47 H47         3.3056   55.6565   27.8760 H         1 UNK         0.0000 
     48 H48         2.1799   54.4692   27.3212 H         1 UNK         0.0000 
     49 H49         1.6263   52.7536   27.7253 H         1 UNK         0.0000 
     50 H50        -1.7306   51.2069   28.4666 H         1 UNK         0.0000 
     51 H51        -3.1096   50.3163   26.6778 H         1 UNK         0.0000 
     52 H52        -0.1551   51.4303   23.7777 H         1 UNK         0.0000 
     53 H53         1.2578   52.3530   25.5638 H         1 UNK         0.0000 
@<TRIPOS>BOND
     1    1    2 1    
     2    1   33 1    
     3    1   34 1    
     4    1   35 1    
     5    2    3 1    
     6    2   13 1    
     7    2    4 1    
     8    4    5 2    
     9    4    6 am   BACKBONE|DICT|INTERRES
    10    6    7 1    
    11    6   36 1    
    12    7   12 ar   
    13    7    8 ar   
    14    8    9 ar   
    15    8   37 1    
    16    9   10 ar   
    17    9   14 1    
    18   10   11 ar   
    19   10   38 1    
    20   11   12 ar   
    21   11   39 1    
    22   12   13 1    
    23   14   15 2    
    24   14   16 2    
    25   14   17 1    
    26   17   22 1    
    27   17   18 1    
    28   18   19 1    
    29   18   40 1    
    30   18   41 1    
    31   19   20 1    
    32   19   42 1    
    33   19   43 1    
    34   20   21 1    
    35   20   23 1    
    36   20   44 1    
    37   21   22 1    
    38   21   45 1    
    39   21   46 1    
    40   22   47 1    
    41   22   48 1    
    42   23   24 2    
    43   23   25 am   BACKBONE|DICT|INTERRES
    44   25   26 1    
    45   25   49 1    
    46   26   31 ar   
    47   26   27 ar   
    48   27   28 ar   
    49   27   50 1    
    50   28   29 ar   
    51   28   51 1    
    52   29   30 ar   
    53   29   32 1    
    54   30   31 ar   
    55   30   52 1    
    56   31   53 1    
@<TRIPOS>SUBSTRUCTURE
     1 UNK         1 GROUP             0       ****    0 ROOT    
