@<TRIPOS>MOLECULE
ZINC24095366_5151
60   64    1
SMALL
USER_CHARGES


@<TRIPOS>ATOM
      1 C1         -7.1137   50.6436   25.5253 C.ar      1 UNK         0.0000 
      2 C2         -7.7843   50.6219   26.7456 C.ar      1 UNK         0.0000 
      3 C3         -7.0592   50.6029   27.9343 C.ar      1 UNK         0.0000 
      4 C4         -5.6650   50.6058   27.9016 C.ar      1 UNK         0.0000 
      5 C5         -4.9614   50.6530   26.6782 C.ar      1 UNK         0.0000 
      6 C6         -5.7196   50.6519   25.4950 C.ar      1 UNK         0.0000 
      7 C7         -3.4218   50.6253   26.6904 C.3       1 UNK         0.0000 
      8 C8         -2.8742   50.8615   28.1254 C.3       1 UNK         0.0000 
      9 C9         -3.7113   50.0970   29.1594 C.3       1 UNK         0.0000 
     10 O10        -5.0478   50.6059   29.1390 O.3       1 UNK         0.0000 
     11 C11        -2.8035   51.6751   25.7763 C.2       1 UNK         0.0000 
     12 O12        -2.8984   52.8966   25.9148 O.2       1 UNK         0.0000 
     13 N13        -2.0166   50.9929   24.9199 N.am      1 UNK         0.0000 
     14 C14        -2.1117   49.6456   25.0154 C.2       1 UNK         0.0000 
     15 O15        -1.7446   48.8037   24.1968 O.2       1 UNK         0.0000 
     16 N16        -2.8843   49.4332   26.0821 N.am      1 UNK         0.0000 
     17 C17        -0.9709   51.6565   24.1298 C.3       1 UNK         0.0000 
     18 C18         0.4728   51.2866   24.5505 C.3       1 UNK         0.0000 
     19 H19         0.4842   50.8115   25.5340 H         1 UNK         0.0000 
     20 C20         1.3994   52.5114   24.6022 C.3       1 UNK         0.0000 
     21 O21         1.1473   53.2678   25.7936 O.3       1 UNK         0.0000 
     22 C22         2.0372   53.0235   26.8893 C.3       1 UNK         0.0000 
     23 C23         3.4048   53.6963   26.6856 C.ar      1 UNK         0.0000 
     24 C24         3.6641   54.4945   25.5651 C.ar      1 UNK         0.0000 
     25 C25         4.9241   55.0414   25.3790 C.ar      1 UNK         0.0000 
     26 C26         5.9077   54.8393   26.3331 C.ar      1 UNK         0.0000 
     27 C27         5.6670   54.0660   27.4633 C.ar      1 UNK         0.0000 
     28 C28         4.4152   53.4829   27.6328 C.ar      1 UNK         0.0000 
     29 F29         7.1044   55.4172   26.1520 F         1 UNK         0.0000 
     30 C30         1.3492   53.3748   28.2133 C.ar      1 UNK         0.0000 
     31 C31         0.6249   52.3853   28.8897 C.ar      1 UNK         0.0000 
     32 C32         0.1170   52.6361   30.1618 C.ar      1 UNK         0.0000 
     33 C33         0.3380   53.8737   30.7591 C.ar      1 UNK         0.0000 
     34 C34         1.0232   54.8789   30.0817 C.ar      1 UNK         0.0000 
     35 C35         1.5175   54.6347   28.8036 C.ar      1 UNK         0.0000 
     36 F36        -0.0956   54.0968   32.0178 F         1 UNK         0.0000 
     37 O37         0.9657   50.3325   23.6315 O.3       1 UNK         0.0000 
     38 H38        -7.6730   50.6510   24.6010 H         1 UNK         0.0000 
     39 H39        -8.8640   50.6144   26.7706 H         1 UNK         0.0000 
     40 H40        -7.5761   50.5813   28.8823 H         1 UNK         0.0000 
     41 H41        -5.2216   50.6577   24.5362 H         1 UNK         0.0000 
     42 H42        -1.8284   50.5644   28.2124 H         1 UNK         0.0000 
     43 H43        -2.9521   51.9092   28.4100 H         1 UNK         0.0000 
     44 H44        -3.2962   50.2249   30.1600 H         1 UNK         0.0000 
     45 H45        -3.6987   49.0280   28.9380 H         1 UNK         0.0000 
     46 H46        -2.7876   48.5923   26.6391 H         1 UNK         0.0000 
     47 H47        -1.0897   52.7397   24.1925 H         1 UNK         0.0000 
     48 H48        -1.1317   51.4433   23.0720 H         1 UNK         0.0000 
     49 H49         1.2250   53.1469   23.7327 H         1 UNK         0.0000 
     50 H50         2.4452   52.2072   24.5294 H         1 UNK         0.0000 
     51 H51         2.2315   51.9523   26.9400 H         1 UNK         0.0000 
     52 H52         2.9041   54.6887   24.8237 H         1 UNK         0.0000 
     53 H53         5.1380   55.6418   24.5085 H         1 UNK         0.0000 
     54 H54         6.4466   53.9172   28.1963 H         1 UNK         0.0000 
     55 H55         4.2299   52.8662   28.5003 H         1 UNK         0.0000 
     56 H56         0.4833   51.4092   28.4473 H         1 UNK         0.0000 
     57 H57        -0.4252   51.8700   30.6999 H         1 UNK         0.0000 
     58 H58         1.1779   55.8382   30.5541 H         1 UNK         0.0000 
     59 H59         2.0669   55.4125   28.2927 H         1 UNK         0.0000 
     60 H60         0.3773   49.5698   23.6452 H         1 UNK         0.0000 
@<TRIPOS>BOND
     1    1    6 ar   
     2    1    2 ar   
     3    1   38 1    
     4    2    3 ar   
     5    2   39 1    
     6    3    4 ar   
     7    3   40 1    
     8    4   10 1    
     9    4    5 ar   
    10    5    6 ar   
    11    5    7 1    
    12    6   41 1    
    13    7   16 1    
    14    7    8 1    
    15    7   11 1    
    16    8    9 1    
    17    8   42 1    
    18    8   43 1    
    19    9   10 1    
    20    9   44 1    
    21    9   45 1    
    22   11   12 2    
    23   11   13 am   BACKBONE|DICT|INTERRES
    24   13   14 am   BACKBONE|DICT|INTERRES
    25   13   17 1    
    26   14   15 2    
    27   14   16 am   BACKBONE|DICT|INTERRES
    28   16   46 1    
    29   17   18 1    
    30   17   47 1    
    31   17   48 1    
    32   18   19 1    
    33   18   20 1    
    34   18   37 1    
    35   20   21 1    
    36   20   49 1    
    37   20   50 1    
    38   21   22 1    
    39   22   23 1    
    40   22   30 1    
    41   22   51 1    
    42   23   28 ar   
    43   23   24 ar   
    44   24   25 ar   
    45   24   52 1    
    46   25   26 ar   
    47   25   53 1    
    48   26   27 ar   
    49   26   29 1    
    50   27   28 ar   
    51   27   54 1    
    52   28   55 1    
    53   30   35 ar   
    54   30   31 ar   
    55   31   32 ar   
    56   31   56 1    
    57   32   33 ar   
    58   32   57 1    
    59   33   34 ar   
    60   33   36 1    
    61   34   35 ar   
    62   34   58 1    
    63   35   59 1    
    64   37   60 1    
@<TRIPOS>SUBSTRUCTURE
     1 UNK         1 GROUP             0       ****    0 ROOT    
