ZINC33063269_2117
                    3D
 Schrodinger Suite 2024-2.
 56 60  0  0  1  0            999 V2000
   -6.3175   49.3995   25.5817 C   0  0  0  0  0  0
   -7.2232   49.3411   26.6391 C   0  0  0  0  0  0
   -6.8003   49.6305   27.9354 C   0  0  0  0  0  0
   -5.4686   49.9750   28.1838 C   0  0  0  0  0  0
   -4.5448   50.0034   27.1221 C   0  0  0  0  0  0
   -4.9861   49.7361   25.8239 C   0  0  0  0  0  0
   -3.1942   50.3618   27.2819 N   0  0  0  0  0  0
   -2.8077   51.1264   28.4648 C   0  0  1  0  0  0
   -3.2977   52.0966   28.3938 H   0  0  0  0  0  0
   -3.2956   50.4967   29.6997 N   0  0  0  0  0  0
   -5.0277   50.3765   29.8656 S   0  0  0  0  0  0
   -5.3769   49.2458   30.7315 O   0  0  0  0  0  0
   -5.5937   51.6968   30.1617 O   0  0  0  0  0  0
   -1.2953   51.4601   28.5436 C   0  0  0  0  0  0
   -0.4609   51.3335   27.4243 C   0  0  0  0  0  0
    0.8962   51.6337   27.5079 C   0  0  0  0  0  0
    1.4530   52.1216   28.6977 C   0  0  0  0  0  0
    0.6310   52.2262   29.8224 C   0  0  0  0  0  0
   -0.7186   51.8976   29.7457 C   0  0  0  0  0  0
    2.9205   52.4968   28.8110 C   0  0  0  0  0  0
    3.5411   52.0973   29.8019 O   0  0  0  0  0  0
    3.4968   53.2759   27.8460 N   0  0  0  0  0  0
    4.9070   53.6895   27.9935 C   0  0  0  0  0  0
    5.5969   53.8486   26.6040 C   0  0  0  0  0  0
    4.7254   54.0811   25.4351 N   0  0  0  0  0  0
    3.5044   54.7686   25.8441 C   0  0  0  0  0  0
    2.6640   54.0967   26.9484 C   0  0  0  0  0  0
    5.1801   54.2791   24.1325 C   0  0  0  0  0  0
    4.2948   54.0967   23.0580 C   0  0  0  0  0  0
    4.6772   54.3988   21.7540 C   0  0  0  0  0  0
    5.9568   54.8861   21.5121 C   0  0  0  0  0  0
    6.8674   55.0177   22.5563 C   0  0  0  0  0  0
    6.4867   54.7032   23.8596 C   0  0  0  0  0  0
    6.4274   55.3136   19.9090 Cl  0  0  0  0  0  0
   -6.6467   49.1854   24.5754 H   0  0  0  0  0  0
   -8.2548   49.0794   26.4537 H   0  0  0  0  0  0
   -7.5121   49.5965   28.7486 H   0  0  0  0  0  0
   -4.2925   49.7814   24.9968 H   0  0  0  0  0  0
   -2.5439   49.5798   27.2432 H   0  0  0  0  0  0
   -2.7566   49.6715   30.0202 H   0  0  0  0  0  0
   -0.8506   50.9808   26.4811 H   0  0  0  0  0  0
    1.5044   51.4790   26.6310 H   0  0  0  0  0  0
    1.0298   52.5601   30.7705 H   0  0  0  0  0  0
   -1.2956   51.9689   30.6543 H   0  0  0  0  0  0
    5.5049   53.0890   28.6818 H   0  0  0  0  0  0
    4.8415   54.6959   28.4100 H   0  0  0  0  0  0
    6.0865   52.8968   26.4035 H   0  0  0  0  0  0
    6.3386   54.6428   26.6917 H   0  0  0  0  0  0
    3.8836   55.6967   26.2497 H   0  0  0  0  0  0
    2.8771   55.0279   24.9912 H   0  0  0  0  0  0
    2.0864   54.8590   27.4733 H   0  0  0  0  0  0
    2.0327   53.4430   26.3560 H   0  0  0  0  0  0
    3.2906   53.7391   23.2319 H   0  0  0  0  0  0
    3.9753   54.2779   20.9406 H   0  0  0  0  0  0
    7.8675   55.3776   22.3604 H   0  0  0  0  0  0
    7.2053   54.8391   24.6524 H   0  0  0  0  0  0
  1  6  2  0  0  0
  1  2  1  0  0  0
  1 35  1  0  0  0
  2  3  2  0  0  0
  2 36  1  0  0  0
  3  4  1  0  0  0
  3 37  1  0  0  0
  4 11  1  0  0  0
  4  5  2  0  0  0
  5  6  1  0  0  0
  5  7  1  0  0  0
  6 38  1  0  0  0
  7  8  1  0  0  0
  7 39  1  0  0  0
  8  9  1  0  0  0
  8 10  1  0  0  0
  8 14  1  0  0  0
 10 11  1  0  0  0
 10 40  1  0  0  0
 11 12  2  0  0  0
 11 13  2  0  0  0
 14 19  2  0  0  0
 14 15  1  0  0  0
 15 16  2  0  0  0
 15 41  1  0  0  0
 16 17  1  0  0  0
 16 42  1  0  0  0
 17 18  2  0  0  0
 17 20  1  0  0  0
 18 19  1  0  0  0
 18 43  1  0  0  0
 19 44  1  0  0  0
 20 21  2  0  0  0
 20 22  1  0  0  0
 22 27  1  0  0  0
 22 23  1  0  0  0
 23 24  1  0  0  0
 23 45  1  0  0  0
 23 46  1  0  0  0
 24 25  1  0  0  0
 24 47  1  0  0  0
 24 48  1  0  0  0
 25 26  1  0  0  0
 25 28  1  0  0  0
 26 27  1  0  0  0
 26 49  1  0  0  0
 26 50  1  0  0  0
 27 51  1  0  0  0
 27 52  1  0  0  0
 28 33  2  0  0  0
 28 29  1  0  0  0
 29 30  2  0  0  0
 29 53  1  0  0  0
 30 31  1  0  0  0
 30 54  1  0  0  0
 31 32  2  0  0  0
 31 34  1  0  0  0
 32 33  1  0  0  0
 32 55  1  0  0  0
 33 56  1  0  0  0
M  END
> <i_i_glide_confnum>
619

> <i_i_glide_lignum>
2118

> <i_i_glide_posenum>
129

> <i_i_glide_rotatable_bonds>
4

> <i_m_Source_File_Index>
5754

> <b_m_subgroup_collapsed>
0

> <r_i_docking_score>
-7.24818

> <r_i_glide_ecoul>
-9.4219

> <r_i_glide_eff_state_penalty>
0

> <r_i_glide_einternal>
6.33916

> <r_i_glide_emodel>
-63.489

> <r_i_glide_energy>
-47.5439

> <r_i_glide_erotb>
0.348047

> <r_i_glide_esite>
-0.454349

> <r_i_glide_evdw>
-38.122

> <r_i_glide_gscore>
-7.24818

> <r_i_glide_hbond>
-0.386918

> <r_i_glide_ligand_efficiency>
-0.219642

> <r_i_glide_ligand_efficiency_ln>
-1.61196

> <r_i_glide_ligand_efficiency_sa>
-0.704508

> <r_i_glide_lipo>
-2.56784

> <r_i_glide_metal>
0

> <r_i_glide_rewards>
-0.867737

> <s_i_glide_gridfile>
wee1_glide-grid

> <s_m_Source_File>
wee1_decoys_glide_SP.sdf

> <s_m_Source_Path>
/Users/zhangxujun/Desktop

> <s_m_entry_id>
6029

> <s_m_entry_name>
wee1_decoys_glide_SP.5754

> <s_m_subgroup_title>
wee1_decoys_glide_SP

> <s_m_subgroupid>
wee1_decoys_glide_SP


$$$$
