ZINC13977493_2991
                    3D
 Schrodinger Suite 2024-2.
 63 65  0  0  1  0            999 V2000
   10.4270   58.2092   17.8764 C   0  0  0  0  0  0
    9.0283   57.6184   17.9327 C   0  0  0  0  0  0
    8.7334   56.6446   18.8870 C   0  0  0  0  0  0
    7.4547   56.0855   18.9731 C   0  0  0  0  0  0
    6.4596   56.4698   18.0600 C   0  0  0  0  0  0
    6.7601   57.4548   17.1070 C   0  0  0  0  0  0
    8.0292   58.0281   17.0436 C   0  0  0  0  0  0
    8.3699   59.3595   15.7209 Br  0  0  0  0  0  0
    5.0643   55.8170   18.1281 C   0  0  0  0  0  0
    3.9413   56.5915   17.4022 C   0  0  0  0  0  0
    5.1041   54.3539   17.6430 C   0  0  0  0  0  0
    7.1618   55.1344   19.9227 O   0  0  0  0  0  0
    7.5343   55.3988   21.2782 C   0  0  0  0  0  0
    6.4104   54.8969   22.2022 C   0  0  0  0  0  0
    5.3320   54.5453   21.7177 O   0  0  0  0  0  0
    6.7043   54.8599   23.5237 N   0  0  0  0  0  0
    5.8434   54.5843   24.6112 C   0  0  0  0  0  0
    6.4406   54.4485   25.8682 C   0  0  0  0  0  0
    5.6649   54.2331   27.0060 C   0  0  0  0  0  0
    4.2768   54.1528   26.8901 C   0  0  0  0  0  0
    3.6700   54.2777   25.6424 C   0  0  0  0  0  0
    4.4464   54.4912   24.5112 C   0  0  0  0  0  0
    3.2485   53.9074   28.3312 S   0  0  0  0  0  0
    4.1197   53.5243   29.4479 O   0  0  0  0  0  0
    2.3790   55.0841   28.4193 O   0  0  0  0  0  0
    2.2626   52.5026   27.9343 N   0  0  0  0  0  0
    0.7892   52.6070   28.0068 C   0  0  0  0  0  0
    0.2185   52.4799   26.5835 C   0  0  0  0  0  0
   -1.3302   52.4967   26.6266 C   0  0  0  0  0  0
   -1.9094   51.4904   27.6495 C   0  0  0  0  0  0
   -1.2369   51.5704   29.0417 C   0  0  0  0  0  0
    0.2903   51.4804   28.9216 C   0  0  0  0  0  0
   11.0954   57.7689   18.6190 H   0  0  0  0  0  0
   10.8617   58.0429   16.8884 H   0  0  0  0  0  0
   10.3871   59.2870   18.0412 H   0  0  0  0  0  0
    9.5040   56.3228   19.5743 H   0  0  0  0  0  0
    6.0185   57.7874   16.3991 H   0  0  0  0  0  0
    4.7831   55.8058   19.1837 H   0  0  0  0  0  0
    3.9172   57.6420   17.6947 H   0  0  0  0  0  0
    4.0576   56.5520   16.3187 H   0  0  0  0  0  0
    2.9643   56.1675   17.6369 H   0  0  0  0  0  0
    5.8223   53.7565   18.2047 H   0  0  0  0  0  0
    4.1325   53.8713   17.7588 H   0  0  0  0  0  0
    5.3795   54.2921   16.5899 H   0  0  0  0  0  0
    8.4741   54.8965   21.5077 H   0  0  0  0  0  0
    7.6620   56.4658   21.4651 H   0  0  0  0  0  0
    7.6744   55.0253   23.7592 H   0  0  0  0  0  0
    7.5082   54.5009   25.9739 H   0  0  0  0  0  0
    6.1448   54.1371   27.9720 H   0  0  0  0  0  0
    2.5989   54.2246   25.5492 H   0  0  0  0  0  0
    3.9234   54.6076   23.5760 H   0  0  0  0  0  0
    2.6190   51.6524   28.3781 H   0  0  0  0  0  0
    0.4712   53.5748   28.3951 H   0  0  0  0  0  0
    0.5996   53.2768   25.9426 H   0  0  0  0  0  0
    0.5506   51.5422   26.1332 H   0  0  0  0  0  0
   -1.6957   53.4892   26.8817 H   0  0  0  0  0  0
   -1.7270   52.2848   25.6330 H   0  0  0  0  0  0
   -2.9849   51.6384   27.7476 H   0  0  0  0  0  0
   -1.7831   50.4818   27.2582 H   0  0  0  0  0  0
   -1.4859   52.4950   29.5454 H   0  0  0  0  0  0
   -1.6243   50.7869   29.6911 H   0  0  0  0  0  0
    0.5477   50.5069   28.5028 H   0  0  0  0  0  0
    0.7563   51.5500   29.9044 H   0  0  0  0  0  0
  1  2  1  0  0  0
  1 33  1  0  0  0
  1 34  1  0  0  0
  1 35  1  0  0  0
  2  7  2  0  0  0
  2  3  1  0  0  0
  3  4  2  0  0  0
  3 36  1  0  0  0
  4  5  1  0  0  0
  4 12  1  0  0  0
  5  6  2  0  0  0
  5  9  1  0  0  0
  6  7  1  0  0  0
  6 37  1  0  0  0
  7  8  1  0  0  0
  9 10  1  0  0  0
  9 11  1  0  0  0
  9 38  1  0  0  0
 10 39  1  0  0  0
 10 40  1  0  0  0
 10 41  1  0  0  0
 11 42  1  0  0  0
 11 43  1  0  0  0
 11 44  1  0  0  0
 12 13  1  0  0  0
 13 14  1  0  0  0
 13 45  1  0  0  0
 13 46  1  0  0  0
 14 15  2  0  0  0
 14 16  1  0  0  0
 16 17  1  0  0  0
 16 47  1  0  0  0
 17 22  2  0  0  0
 17 18  1  0  0  0
 18 19  2  0  0  0
 18 48  1  0  0  0
 19 20  1  0  0  0
 19 49  1  0  0  0
 20 21  2  0  0  0
 20 23  1  0  0  0
 21 22  1  0  0  0
 21 50  1  0  0  0
 22 51  1  0  0  0
 23 24  2  0  0  0
 23 25  2  0  0  0
 23 26  1  0  0  0
 26 27  1  0  0  0
 26 52  1  0  0  0
 27 32  1  0  0  0
 27 28  1  0  0  0
 27 53  1  0  0  0
 28 29  1  0  0  0
 28 54  1  0  0  0
 28 55  1  0  0  0
 29 30  1  0  0  0
 29 56  1  0  0  0
 29 57  1  0  0  0
 30 31  1  0  0  0
 30 58  1  0  0  0
 30 59  1  0  0  0
 31 32  1  0  0  0
 31 60  1  0  0  0
 31 61  1  0  0  0
 32 62  1  0  0  0
 32 63  1  0  0  0
M  END
> <i_i_glide_confnum>
74

> <i_i_glide_lignum>
2992

> <i_i_glide_posenum>
399

> <i_i_glide_rotatable_bonds>
9

> <i_m_Source_File_Index>
5062

> <b_m_subgroup_collapsed>
0

> <r_i_docking_score>
-3.96077

> <r_i_glide_ecoul>
-2.00473

> <r_i_glide_eff_state_penalty>
0

> <r_i_glide_einternal>
10.7786

> <r_i_glide_emodel>
-48.3531

> <r_i_glide_energy>
-44.7964

> <r_i_glide_erotb>
0.60052

> <r_i_glide_esite>
0

> <r_i_glide_evdw>
-42.7916

> <r_i_glide_gscore>
-3.96077

> <r_i_glide_hbond>
-0.32

> <r_i_glide_ligand_efficiency>
-0.123774

> <r_i_glide_ligand_efficiency_ln>
-0.886925

> <r_i_glide_ligand_efficiency_sa>
-0.392959

> <r_i_glide_lipo>
-2.13592

> <r_i_glide_metal>
0

> <r_i_glide_rewards>
0.334915

> <s_i_glide_gridfile>
wee1_glide-grid

> <s_m_Source_File>
wee1_decoys_glide_SP.sdf

> <s_m_Source_Path>
/Users/zhangxujun/Desktop

> <s_m_entry_id>
5337

> <s_m_entry_name>
wee1_decoys_glide_SP.5062

> <s_m_subgroup_title>
wee1_decoys_glide_SP

> <s_m_subgroupid>
wee1_decoys_glide_SP


$$$$
