@<TRIPOS>MOLECULE
ZINC63007526_1771
39   40    1
SMALL
USER_CHARGES


@<TRIPOS>ATOM
      1 C1          5.7448   53.4912   27.7127 C.3       1 UNK         0.0000 
      2 C2          4.2463   53.5530   28.0969 C.3       1 UNK         0.0000 
      3 H3          4.1056   52.6715   28.7248 H         1 UNK         0.0000 
      4 C4          3.9488   54.8094   28.9429 C.3       1 UNK         0.0000 
      5 C5          2.5494   54.7460   29.5646 C.3       1 UNK         0.0000 
      6 C6          1.4972   54.5267   28.4673 C.3       1 UNK         0.0000 
      7 C7          1.8169   53.3384   27.5185 C.3       1 UNK         0.0000 
      8 H8          1.1034   53.4322   26.7039 H         1 UNK         0.0000 
      9 N9          3.2165   53.4683   27.0130 N.am      1 UNK         0.0000 
     10 C10         3.4398   54.0972   25.8154 C.2       1 UNK         0.0000 
     11 O11         4.2264   55.0450   25.7203 O.2       1 UNK         0.0000 
     12 C12         2.8575   53.5278   24.5207 C.ar      1 UNK         0.0000 
     13 C13         1.9031   52.4974   24.4681 C.ar      1 UNK         0.0000 
     14 C14         1.5041   51.9314   23.2577 C.ar      1 UNK         0.0000 
     15 C15         2.0869   52.3363   22.0525 C.ar      1 UNK         0.0000 
     16 C16         3.0595   53.3436   22.0866 C.ar      1 UNK         0.0000 
     17 C17         3.4053   53.9467   23.2945 C.ar      1 UNK         0.0000 
     18 F18         3.6964   53.7313   20.9571 F         1 UNK         0.0000 
     19 N19         1.7283   51.6793   20.8650 N.pl3     1 UNK         0.0000 
     20 N20         1.2232   52.4922   19.7842 N.3       1 UNK         0.0000 
     21 F21         0.5721   50.9477   23.2714 F         1 UNK         0.0000 
     22 C22         1.5172   51.9722   28.1681 C.3       1 UNK         0.0000 
     23 H23         6.3678   53.3610   28.5991 H         1 UNK         0.0000 
     24 H24         5.9429   52.6618   27.0374 H         1 UNK         0.0000 
     25 H25         6.0934   54.4088   27.2388 H         1 UNK         0.0000 
     26 H26         3.9950   55.6953   28.3171 H         1 UNK         0.0000 
     27 H27         4.7303   54.9391   29.6902 H         1 UNK         0.0000 
     28 H28         2.3287   55.6538   30.1301 H         1 UNK         0.0000 
     29 H29         2.5017   53.9206   30.2775 H         1 UNK         0.0000 
     30 H30         1.4300   55.4377   27.8730 H         1 UNK         0.0000 
     31 H31         0.5075   54.4039   28.9088 H         1 UNK         0.0000 
     32 H32         1.4651   52.0631   25.3486 H         1 UNK         0.0000 
     33 H33         4.1724   54.7055   23.2669 H         1 UNK         0.0000 
     34 H34         1.0299   50.9662   21.0364 H         1 UNK         0.0000 
     35 H35         1.2293   53.4664   20.0825 H         1 UNK         0.0000 
     36 H36         1.8772   52.4032   19.0169 H         1 UNK         0.0000 
     37 H37         0.4613   51.8925   28.4345 H         1 UNK         0.0000 
     38 H38         1.7651   51.1429   27.5058 H         1 UNK         0.0000 
     39 H39         2.0737   51.8265   29.0947 H         1 UNK         0.0000 
@<TRIPOS>BOND
     1    1    2 1    
     2    1   23 1    
     3    1   24 1    
     4    1   25 1    
     5    2    3 1    
     6    2    9 1    
     7    2    4 1    
     8    4    5 1    
     9    4   26 1    
    10    4   27 1    
    11    5    6 1    
    12    5   28 1    
    13    5   29 1    
    14    6    7 1    
    15    6   30 1    
    16    6   31 1    
    17    7    8 1    
    18    7    9 1    
    19    7   22 1    
    20    9   10 am   BACKBONE|DICT|INTERRES
    21   10   11 2    
    22   10   12 1    
    23   12   17 ar   
    24   12   13 ar   
    25   13   14 ar   
    26   13   32 1    
    27   14   15 ar   
    28   14   21 1    
    29   15   16 ar   
    30   15   19 1    
    31   16   17 ar   
    32   16   18 1    
    33   17   33 1    
    34   19   20 1    
    35   19   34 1    
    36   20   35 1    
    37   20   36 1    
    38   22   37 1    
    39   22   38 1    
    40   22   39 1    
@<TRIPOS>SUBSTRUCTURE
     1 UNK         1 GROUP             0       ****    0 ROOT    
