@<TRIPOS>MOLECULE
ZINC36252660_6144
29   31    1
SMALL
USER_CHARGES


@<TRIPOS>ATOM
      1 C1          2.2070   53.2733   25.5475 C.3       1 UNK         0.0000 
      2 C2          3.5223   53.7900   24.9640 C.ar      1 UNK         0.0000 
      3 C3          3.7157   53.8959   23.5762 C.ar      1 UNK         0.0000 
      4 C4          4.9611   54.2413   23.0603 C.ar      1 UNK         0.0000 
      5 C5          6.0346   54.5430   23.8961 C.ar      1 UNK         0.0000 
      6 C6          5.8377   54.4945   25.2816 C.ar      1 UNK         0.0000 
      7 N7          4.5779   54.1174   25.8059 N.pl3     1 UNK         0.0000 
      8 C8          4.7788   54.1539   27.1886 C.ar      1 UNK         0.0000 
      9 N9          6.0241   54.4972   27.4574 N.2       1 UNK         0.0000 
     10 N10         6.7042   54.7444   26.2850 N.2       1 UNK         0.0000 
     11 C11         3.8015   53.8513   28.2735 C.ar      1 UNK         0.0000 
     12 C12         2.5746   54.5147   28.3770 C.ar      1 UNK         0.0000 
     13 C13         1.6631   54.1693   29.3746 C.ar      1 UNK         0.0000 
     14 C14         1.9903   53.1848   30.3053 C.ar      1 UNK         0.0000 
     15 C15         3.2458   52.5762   30.2581 C.ar      1 UNK         0.0000 
     16 C16         4.1410   52.8988   29.2398 C.ar      1 UNK         0.0000 
     17 F17         3.6081   51.6972   31.2150 F         1 UNK         0.0000 
     18 F18         1.1097   52.8597   31.2779 F         1 UNK         0.0000 
     19 N19         2.6772   53.6615   22.6725 N.pl3     1 UNK         0.0000 
     20 H20         1.6370   52.6918   24.8235 H         1 UNK         0.0000 
     21 H21         2.3821   52.5977   26.3845 H         1 UNK         0.0000 
     22 H22         1.5724   54.0962   25.8728 H         1 UNK         0.0000 
     23 H23         5.1051   54.2961   21.9901 H         1 UNK         0.0000 
     24 H24         6.9958   54.8185   23.4864 H         1 UNK         0.0000 
     25 H25         2.3204   55.2964   27.6818 H         1 UNK         0.0000 
     26 H26         0.7071   54.6643   29.4336 H         1 UNK         0.0000 
     27 H27         5.1028   52.4114   29.2008 H         1 UNK         0.0000 
     28 H28         1.7529   53.4780   23.0318 H         1 UNK         0.0000 
     29 H29         2.8077   53.8613   21.6895 H         1 UNK         0.0000 
@<TRIPOS>BOND
     1    1    2 1    
     2    1   20 1    
     3    1   21 1    
     4    1   22 1    
     5    2    7 ar   
     6    2    3 ar   
     7    3    4 ar   
     8    3   19 1    
     9    4    5 ar   
    10    4   23 1    
    11    5    6 ar   
    12    5   24 1    
    13    6   10 ar   
    14    6    7 ar   
    15    7    8 ar   
    16    8    9 ar   
    17    8   11 1    
    18    9   10 ar   
    19   11   16 ar   
    20   11   12 ar   
    21   12   13 ar   
    22   12   25 1    
    23   13   14 ar   
    24   13   26 1    
    25   14   15 ar   
    26   14   18 1    
    27   15   16 ar   
    28   15   17 1    
    29   16   27 1    
    30   19   28 1    
    31   19   29 1    
@<TRIPOS>SUBSTRUCTURE
     1 UNK         1 GROUP             0       ****    0 ROOT    
