@<TRIPOS>MOLECULE
ZINC31310163_5242
55   57    1
SMALL
USER_CHARGES


@<TRIPOS>ATOM
      1 C1          5.4082   54.4801   20.4596 C.3       1 UNK         0.0000 
      2 C2          4.7271   53.3856   21.2947 C.3       1 UNK         0.0000 
      3 H3          5.4250   52.5472   21.3608 H         1 UNK         0.0000 
      4 C4          4.4344   53.8479   22.7395 C.ar      1 UNK         0.0000 
      5 C5          3.1150   54.0735   23.1663 C.ar      1 UNK         0.0000 
      6 C6          2.8304   54.3720   24.4936 C.ar      1 UNK         0.0000 
      7 C7          3.8635   54.4991   25.4180 C.ar      1 UNK         0.0000 
      8 C8          5.1827   54.3271   25.0085 C.ar      1 UNK         0.0000 
      9 C9          5.4716   53.9903   23.6848 C.ar      1 UNK         0.0000 
     10 Cl10        7.1252   53.6966   23.2821 Cl        1 UNK         0.0000 
     11 Cl11        3.5076   54.8933   27.0594 Cl        1 UNK         0.0000 
     12 N12         3.5569   52.9038   20.5491 N.am      1 UNK         0.0000 
     13 C13         2.8815   51.7721   20.8079 C.2       1 UNK         0.0000 
     14 O14         3.2246   50.9755   21.6820 O.2       1 UNK         0.0000 
     15 C15         1.6085   51.5103   19.9668 C.3       1 UNK         0.0000 
     16 H16         1.7438   51.8796   18.9472 H         1 UNK         0.0000 
     17 C17         0.4483   52.2453   20.6461 C.3       1 UNK         0.0000 
     18 N18         1.4488   49.9694   19.8167 N.4       1 UNK         0.0000 
     19 C19         0.0709   49.5238   19.2746 C.3       1 UNK         0.0000 
     20 C20         0.0184   47.9743   19.1763 C.3       1 UNK         0.0000 
     21 N21         1.1442   47.3691   18.4307 N.pl3     1 UNK         0.0000 
     22 C22         2.4254   47.8665   18.9520 C.3       1 UNK         0.0000 
     23 C23         2.5298   49.3900   18.8816 C.3       1 UNK         0.0000 
     24 C24         1.0082   46.6788   17.2214 C.ar      1 UNK         0.0000 
     25 C25         2.0774   46.4976   16.3267 C.ar      1 UNK         0.0000 
     26 C26         1.8864   45.7396   15.1723 C.ar      1 UNK         0.0000 
     27 C27         0.6392   45.1675   14.9128 C.ar      1 UNK         0.0000 
     28 C28        -0.3850   45.3939   15.8377 C.ar      1 UNK         0.0000 
     29 N29        -0.2120   46.1271   16.9664 N.ar      1 UNK         0.0000 
     30 C30         0.4259   44.3274   13.6570 C.3       1 UNK         0.0000 
     31 F31         1.2312   43.2649   13.6958 F         1 UNK         0.0000 
     32 F32        -0.8322   43.8993   13.5431 F         1 UNK         0.0000 
     33 F33         0.7250   45.0516   12.5784 F         1 UNK         0.0000 
     34 H34         6.2894   54.8957   20.9454 H         1 UNK         0.0000 
     35 H35         5.7298   54.0917   19.4923 H         1 UNK         0.0000 
     36 H36         4.7170   55.2970   20.2646 H         1 UNK         0.0000 
     37 H37         2.2879   53.9903   22.4795 H         1 UNK         0.0000 
     38 H38         1.8036   54.4964   24.8065 H         1 UNK         0.0000 
     39 H39         5.9834   54.4196   25.7282 H         1 UNK         0.0000 
     40 H40         3.2014   53.5250   19.8378 H         1 UNK         0.0000 
     41 H41         0.6963   53.2966   20.8076 H         1 UNK         0.0000 
     42 H42        -0.4404   52.2069   20.0163 H         1 UNK         0.0000 
     43 H43         0.2169   51.7915   21.6122 H         1 UNK         0.0000 
     44 H44        -0.6650   49.8619   20.0031 H         1 UNK         0.0000 
     45 H45        -0.0844   50.0211   18.3142 H         1 UNK         0.0000 
     46 H46         0.0759   47.5365   20.1751 H         1 UNK         0.0000 
     47 H47        -0.9476   47.6804   18.7648 H         1 UNK         0.0000 
     48 H48         3.2834   47.4373   18.4401 H         1 UNK         0.0000 
     49 H49         2.5104   47.5358   19.9896 H         1 UNK         0.0000 
     50 H50         2.3811   49.7947   17.8776 H         1 UNK         0.0000 
     51 H51         3.5044   49.6938   19.2675 H         1 UNK         0.0000 
     52 H52         3.0485   46.9389   16.4899 H         1 UNK         0.0000 
     53 H53         2.7078   45.5994   14.4851 H         1 UNK         0.0000 
     54 H54        -1.3740   44.9829   15.6930 H         1 UNK         0.0000 
     55 H55         1.5942   49.5761   20.7373 H         1 UNK         0.0000 
@<TRIPOS>BOND
     1    1    2 1    
     2    1   34 1    
     3    1   35 1    
     4    1   36 1    
     5    2    3 1    
     6    2    4 1    
     7    2   12 1    
     8    4    9 ar   
     9    4    5 ar   
    10    5    6 ar   
    11    5   37 1    
    12    6    7 ar   
    13    6   38 1    
    14    7    8 ar   
    15    7   11 1    
    16    8    9 ar   
    17    8   39 1    
    18    9   10 1    
    19   12   13 am   BACKBONE|DICT|INTERRES
    20   12   40 1    
    21   13   14 2    
    22   13   15 1    
    23   15   16 1    
    24   15   17 1    
    25   15   18 1    
    26   17   41 1    
    27   17   42 1    
    28   17   43 1    
    29   18   23 1    
    30   18   19 1    
    31   18   55 1    
    32   19   20 1    
    33   19   44 1    
    34   19   45 1    
    35   20   21 1    
    36   20   46 1    
    37   20   47 1    
    38   21   22 1    
    39   21   24 1    
    40   22   23 1    
    41   22   48 1    
    42   22   49 1    
    43   23   50 1    
    44   23   51 1    
    45   24   29 ar   
    46   24   25 ar   
    47   25   26 ar   
    48   25   52 1    
    49   26   27 ar   
    50   26   53 1    
    51   27   28 ar   
    52   27   30 1    
    53   28   29 ar   
    54   28   54 1    
    55   30   31 1    
    56   30   32 1    
    57   30   33 1    
@<TRIPOS>SUBSTRUCTURE
     1 UNK         1 GROUP             0       ****    0 ROOT    
