ZINC20991821_5041
                    3D
 Schrodinger Suite 2024-2.
 63 67  0  0  1  0            999 V2000
    1.8976   53.7193   23.7155 C   0  0  0  0  0  0
    3.3838   53.9777   23.4835 C   0  0  0  0  0  0
    3.8364   54.1095   22.1685 C   0  0  0  0  0  0
    5.1714   54.4070   21.9027 C   0  0  0  0  0  0
    6.0837   54.4967   22.9589 C   0  0  0  0  0  0
    5.6501   54.3431   24.2723 C   0  0  0  0  0  0
    4.2927   54.0991   24.5554 C   0  0  0  0  0  0
    3.7856   53.9428   25.8610 N   0  0  0  0  0  0
    4.3915   54.0797   27.0603 C   0  0  0  0  0  0
    5.5386   54.4954   27.2362 O   0  0  0  0  0  0
    3.5632   53.6148   28.2333 C   0  0  0  0  0  0
    2.1738   53.8136   28.2736 C   0  0  0  0  0  0
    1.4309   53.3481   29.3571 C   0  0  0  0  0  0
    2.0711   52.6862   30.4032 C   0  0  0  0  0  0
    3.4515   52.4968   30.3805 C   0  0  0  0  0  0
    4.1942   52.9601   29.2973 C   0  0  0  0  0  0
    5.5509   54.5764   20.5697 N   0  0  0  0  0  0
    6.3767   55.5272   20.0799 C   0  0  0  0  0  0
    6.8615   56.4364   20.7595 O   0  0  0  0  0  0
    6.7056   55.4507   18.5721 C   0  0  0  0  0  0
    7.4738   54.1351   18.2839 C   0  0  0  0  0  0
    7.6966   53.9541   16.7673 C   0  0  0  0  0  0
    6.4043   53.9244   16.0539 N   0  0  0  0  0  0
    5.7156   55.2149   16.2476 C   0  0  0  0  0  0
    5.3950   55.4478   17.7401 C   0  0  0  0  0  0
    6.0839   53.0204   15.0396 C   0  0  0  0  0  0
    4.7731   52.8917   14.5557 C   0  0  0  0  0  0
    4.4865   51.8792   13.6452 C   0  0  0  0  0  0
    5.5191   51.0216   13.2591 C   0  0  0  0  0  0
    6.7833   51.1807   13.7398 N   0  0  0  0  0  0
    7.0529   52.1520   14.6266 N   0  0  0  0  0  0
    5.2702   49.8570   12.3543 C   0  0  0  0  0  0
    4.1751   49.6119   11.5238 C   0  0  0  0  0  0
    4.2522   48.3986   10.8342 C   0  0  0  0  0  0
    5.4092   47.6968   11.1283 C   0  0  0  0  0  0
    6.4137   48.5380   12.2542 S   0  0  0  0  0  0
    1.3295   53.7014   22.7833 H   0  0  0  0  0  0
    1.7583   52.7630   24.2208 H   0  0  0  0  0  0
    1.4689   54.4964   24.3506 H   0  0  0  0  0  0
    3.1331   54.0287   21.3464 H   0  0  0  0  0  0
    7.1307   54.6975   22.7700 H   0  0  0  0  0  0
    6.3952   54.4191   25.0476 H   0  0  0  0  0  0
    2.8310   53.6187   25.8910 H   0  0  0  0  0  0
    1.6569   54.3278   27.4774 H   0  0  0  0  0  0
    0.3612   53.4975   29.3879 H   0  0  0  0  0  0
    1.4894   52.3225   31.2396 H   0  0  0  0  0  0
    3.9461   51.9931   31.1994 H   0  0  0  0  0  0
    5.2621   52.7943   29.2817 H   0  0  0  0  0  0
    5.0759   53.9924   19.8986 H   0  0  0  0  0  0
    7.3079   56.3266   18.3237 H   0  0  0  0  0  0
    8.4649   54.1551   18.7404 H   0  0  0  0  0  0
    6.9216   53.2472   18.5937 H   0  0  0  0  0  0
    8.3172   54.7545   16.3612 H   0  0  0  0  0  0
    8.2500   53.0270   16.6229 H   0  0  0  0  0  0
    6.3583   56.0120   15.8671 H   0  0  0  0  0  0
    4.7925   55.2855   15.6746 H   0  0  0  0  0  0
    4.7160   54.6379   18.0098 H   0  0  0  0  0  0
    4.8896   56.4118   17.8047 H   0  0  0  0  0  0
    3.9722   53.5192   14.9064 H   0  0  0  0  0  0
    3.4768   51.7402   13.2921 H   0  0  0  0  0  0
    3.3382   50.2882   11.4258 H   0  0  0  0  0  0
    3.4866   48.0398   10.1622 H   0  0  0  0  0  0
    5.6966   46.7139   10.7814 H   0  0  0  0  0  0
  1  2  1  0  0  0
  1 37  1  0  0  0
  1 38  1  0  0  0
  1 39  1  0  0  0
  2  7  2  0  0  0
  2  3  1  0  0  0
  3  4  2  0  0  0
  3 40  1  0  0  0
  4  5  1  0  0  0
  4 17  1  0  0  0
  5  6  2  0  0  0
  5 41  1  0  0  0
  6  7  1  0  0  0
  6 42  1  0  0  0
  7  8  1  0  0  0
  8  9  1  0  0  0
  8 43  1  0  0  0
  9 10  2  0  0  0
  9 11  1  0  0  0
 11 16  2  0  0  0
 11 12  1  0  0  0
 12 13  2  0  0  0
 12 44  1  0  0  0
 13 14  1  0  0  0
 13 45  1  0  0  0
 14 15  2  0  0  0
 14 46  1  0  0  0
 15 16  1  0  0  0
 15 47  1  0  0  0
 16 48  1  0  0  0
 17 18  1  0  0  0
 17 49  1  0  0  0
 18 19  2  0  0  0
 18 20  1  0  0  0
 20 25  1  0  0  0
 20 21  1  0  0  0
 20 50  1  0  0  0
 21 22  1  0  0  0
 21 51  1  0  0  0
 21 52  1  0  0  0
 22 23  1  0  0  0
 22 53  1  0  0  0
 22 54  1  0  0  0
 23 24  1  0  0  0
 23 26  1  0  0  0
 24 25  1  0  0  0
 24 55  1  0  0  0
 24 56  1  0  0  0
 25 57  1  0  0  0
 25 58  1  0  0  0
 26 31  2  0  0  0
 26 27  1  0  0  0
 27 28  2  0  0  0
 27 59  1  0  0  0
 28 29  1  0  0  0
 28 60  1  0  0  0
 29 30  2  0  0  0
 29 32  1  0  0  0
 30 31  1  0  0  0
 32 36  1  0  0  0
 32 33  2  0  0  0
 33 34  1  0  0  0
 33 61  1  0  0  0
 34 35  2  0  0  0
 34 62  1  0  0  0
 35 36  1  0  0  0
 35 63  1  0  0  0
M  END
> <i_i_glide_confnum>
314

> <i_i_glide_lignum>
5042

> <i_i_glide_posenum>
132

> <i_i_glide_rotatable_bonds>
8

> <i_m_Source_File_Index>
2597

> <b_m_subgroup_collapsed>
0

> <r_i_docking_score>
-5.63383

> <r_i_glide_ecoul>
-4.25239

> <r_i_glide_eff_state_penalty>
0

> <r_i_glide_einternal>
9.29012

> <r_i_glide_emodel>
-65.3394

> <r_i_glide_energy>
-52.56

> <r_i_glide_erotb>
0.659091

> <r_i_glide_esite>
-0.00302153

> <r_i_glide_evdw>
-48.3076

> <r_i_glide_gscore>
-5.63383

> <r_i_glide_hbond>
-0.229602

> <r_i_glide_ligand_efficiency>
-0.156495

> <r_i_glide_ligand_efficiency_ln>
-1.22915

> <r_i_glide_ligand_efficiency_sa>
-0.516736

> <r_i_glide_lipo>
-2.67653

> <r_i_glide_metal>
0

> <r_i_glide_rewards>
-0.330537

> <s_i_glide_gridfile>
wee1_glide-grid

> <s_m_Source_File>
wee1_decoys_glide_SP.sdf

> <s_m_Source_Path>
/Users/zhangxujun/Desktop

> <s_m_entry_id>
2872

> <s_m_entry_name>
wee1_decoys_glide_SP.2597

> <s_m_subgroup_title>
wee1_decoys_glide_SP

> <s_m_subgroupid>
wee1_decoys_glide_SP


$$$$
