@<TRIPOS>MOLECULE
ZINC16503460_5740
73   76    1
SMALL
USER_CHARGES


@<TRIPOS>ATOM
      1 C1          1.5828   47.9505   18.0610 C.3       1 UNK         0.0000 
      2 C2          0.8739   48.5547   19.2847 C.3       1 UNK         0.0000 
      3 C3          1.0063   50.0965   19.4097 C.3       1 UNK         0.0000 
      4 H4          0.7273   50.4709   18.4247 H         1 UNK         0.0000 
      5 C5          2.4591   50.5626   19.6423 C.3       1 UNK         0.0000 
      6 N6          0.0846   50.6492   20.4326 N.am      1 UNK         0.0000 
      7 C7          0.2257   50.0985   21.8065 C.3       1 UNK         0.0000 
      8 C8          0.1672   51.1914   22.9013 C.2       1 UNK         0.0000 
      9 O9          0.5053   52.3418   22.6090 O.2       1 UNK         0.0000 
     10 N10        -0.2812   50.8567   24.1384 N.am      1 UNK         0.0000 
     11 C11        -0.5793   49.4683   24.5457 C.3       1 UNK         0.0000 
     12 C12        -2.1106   49.2491   24.4575 C.3       1 UNK         0.0000 
     13 C13        -2.8045   50.3841   25.1951 C.2       1 UNK         0.0000 
     14 C14        -2.1941   51.6151   25.4650 C.2       1 UNK         0.0000 
     15 C15        -3.0759   52.5006   26.0997 C.2       1 UNK         0.0000 
     16 C16        -4.3371   51.9618   26.3091 C.2       1 UNK         0.0000 
     17 S17        -4.4587   50.3398   25.7151 S.3       1 UNK         0.0000 
     18 C18        -0.7306   51.9012   25.0895 C.3       1 UNK         0.0000 
     19 H19        -0.7477   52.8607   24.5680 H         1 UNK         0.0000 
     20 C20         0.2305   52.1678   26.2487 C.ar      1 UNK         0.0000 
     21 C21         1.4042   52.8839   26.0044 C.ar      1 UNK         0.0000 
     22 C22         2.2912   53.1452   27.0428 C.ar      1 UNK         0.0000 
     23 C23         2.0273   52.6967   28.3449 C.ar      1 UNK         0.0000 
     24 C24         0.8374   51.9887   28.5788 C.ar      1 UNK         0.0000 
     25 C25        -0.0463   51.7183   27.5419 C.ar      1 UNK         0.0000 
     26 C26         3.0537   52.9619   29.4733 C.3       1 UNK         0.0000 
     27 C27         3.5711   54.4230   29.4492 C.3       1 UNK         0.0000 
     28 C28         4.2450   52.0026   29.2861 C.3       1 UNK         0.0000 
     29 C29         2.4713   52.7156   30.8840 C.3       1 UNK         0.0000 
     30 C30        -1.0833   51.2687   20.0661 C.2       1 UNK         0.0000 
     31 O31        -2.1028   51.2161   20.7642 O.2       1 UNK         0.0000 
     32 C32        -1.1488   52.0944   18.7981 C.ar      1 UNK         0.0000 
     33 C33        -2.3491   52.1629   18.0807 C.ar      1 UNK         0.0000 
     34 C34        -2.4623   52.9925   16.9697 C.ar      1 UNK         0.0000 
     35 C35        -1.3811   53.7823   16.5566 C.ar      1 UNK         0.0000 
     36 C36        -0.1811   53.7145   17.2769 C.ar      1 UNK         0.0000 
     37 C37        -0.0678   52.8830   18.3859 C.ar      1 UNK         0.0000 
     38 N38        -1.5084   54.6829   15.3839 N.pl3     1 UNK         0.0000 
     39 O39        -2.5765   54.7083   14.7782 O.co2     1 UNK         0.0000 
     40 O40        -0.5450   55.3760   15.0699 O.co2     1 UNK         0.0000 
     41 H41         1.3735   46.8839   17.9771 H         1 UNK         0.0000 
     42 H42         1.2552   48.4254   17.1360 H         1 UNK         0.0000 
     43 H43         2.6644   48.0617   18.1240 H         1 UNK         0.0000 
     44 H44         1.2461   48.0665   20.1865 H         1 UNK         0.0000 
     45 H45        -0.1844   48.2948   19.2191 H         1 UNK         0.0000 
     46 H46         3.1041   50.2272   18.8303 H         1 UNK         0.0000 
     47 H47         2.5461   51.6477   19.6909 H         1 UNK         0.0000 
     48 H48         2.8811   50.1430   20.5558 H         1 UNK         0.0000 
     49 H49         1.1737   49.5732   21.9213 H         1 UNK         0.0000 
     50 H50        -0.5614   49.3599   21.9609 H         1 UNK         0.0000 
     51 H51         0.0303   48.7284   24.0241 H         1 UNK         0.0000 
     52 H52        -0.2475   49.3551   25.5800 H         1 UNK         0.0000 
     53 H53        -2.4263   49.2155   23.4142 H         1 UNK         0.0000 
     54 H54        -2.3692   48.2832   24.8913 H         1 UNK         0.0000 
     55 H55        -2.7970   53.4988   26.4018 H         1 UNK         0.0000 
     56 H56        -5.1903   52.4314   26.7764 H         1 UNK         0.0000 
     57 H57         1.6337   53.2294   25.0064 H         1 UNK         0.0000 
     58 H58         3.2030   53.6737   26.8118 H         1 UNK         0.0000 
     59 H59         0.5760   51.6104   29.5540 H         1 UNK         0.0000 
     60 H60        -0.9378   51.1437   27.7533 H         1 UNK         0.0000 
     61 H61         4.2928   54.5927   30.2479 H         1 UNK         0.0000 
     62 H62         2.7588   55.1400   29.5760 H         1 UNK         0.0000 
     63 H63         4.0902   54.6741   28.5253 H         1 UNK         0.0000 
     64 H64         3.9019   50.9674   29.2831 H         1 UNK         0.0000 
     65 H65         4.7672   52.1826   28.3459 H         1 UNK         0.0000 
     66 H66         4.9815   52.0966   30.0830 H         1 UNK         0.0000 
     67 H67         2.1437   51.6902   31.0314 H         1 UNK         0.0000 
     68 H68         3.2243   52.8922   31.6527 H         1 UNK         0.0000 
     69 H69         1.6142   53.3595   31.0899 H         1 UNK         0.0000 
     70 H70        -3.2054   51.5775   18.3862 H         1 UNK         0.0000 
     71 H71        -3.4028   53.0224   16.4370 H         1 UNK         0.0000 
     72 H72         0.6682   54.3219   16.9954 H         1 UNK         0.0000 
     73 H73         0.8552   52.9013   18.9465 H         1 UNK         0.0000 
@<TRIPOS>BOND
     1    1    2 1    
     2    1   41 1    
     3    1   42 1    
     4    1   43 1    
     5    2    3 1    
     6    2   44 1    
     7    2   45 1    
     8    3    4 1    
     9    3    5 1    
    10    3    6 1    
    11    5   46 1    
    12    5   47 1    
    13    5   48 1    
    14    6    7 1    
    15    6   30 am   BACKBONE|DICT|INTERRES
    16    7    8 1    
    17    7   49 1    
    18    7   50 1    
    19    8    9 2    
    20    8   10 am   BACKBONE|DICT|INTERRES
    21   10   18 1    
    22   10   11 1    
    23   11   12 1    
    24   11   51 1    
    25   11   52 1    
    26   12   13 1    
    27   12   53 1    
    28   12   54 1    
    29   13   17 1    
    30   13   14 2    
    31   14   15 1    
    32   14   18 1    
    33   15   16 2    
    34   15   55 1    
    35   16   17 1    
    36   16   56 1    
    37   18   19 1    
    38   18   20 1    
    39   20   25 ar   
    40   20   21 ar   
    41   21   22 ar   
    42   21   57 1    
    43   22   23 ar   
    44   22   58 1    
    45   23   24 ar   
    46   23   26 1    
    47   24   25 ar   
    48   24   59 1    
    49   25   60 1    
    50   26   27 1    
    51   26   28 1    
    52   26   29 1    
    53   27   61 1    
    54   27   62 1    
    55   27   63 1    
    56   28   64 1    
    57   28   65 1    
    58   28   66 1    
    59   29   67 1    
    60   29   68 1    
    61   29   69 1    
    62   30   31 2    
    63   30   32 1    
    64   32   37 ar   
    65   32   33 ar   
    66   33   34 ar   
    67   33   70 1    
    68   34   35 ar   
    69   34   71 1    
    70   35   36 ar   
    71   35   38 1    
    72   36   37 ar   
    73   36   72 1    
    74   37   73 1    
    75   38   39 2    
    76   38   40 1    
@<TRIPOS>SUBSTRUCTURE
     1 UNK         1 GROUP             0       ****    0 ROOT    
