ZINC65481675_1397
                    3D
 Schrodinger Suite 2024-2.
 54 57  0  0  1  0            999 V2000
    7.1046   54.0320   26.9978 C   0  0  0  0  0  0
    5.5976   54.1591   27.0615 C   0  0  0  0  0  0
    4.9821   54.0844   28.3133 C   0  0  0  0  0  0
    3.6006   54.1901   28.4234 C   0  0  0  0  0  0
    2.8390   54.4420   27.2815 C   0  0  0  0  0  0
    3.4392   54.4965   26.0308 C   0  0  0  0  0  0
    4.8223   54.3460   25.9006 C   0  0  0  0  0  0
    5.4616   54.4091   24.6495 N   0  0  0  0  0  0
    4.9670   54.0965   23.4272 C   0  0  0  0  0  0
    3.8036   53.7243   23.2553 O   0  0  0  0  0  0
    5.8480   54.2134   22.3935 N   0  0  0  0  0  0
    7.2746   54.5927   22.5832 C   0  0  0  0  0  0
    7.6214   55.6922   21.5608 C   0  0  0  0  0  0
    7.2922   55.2860   20.1097 C   0  0  0  0  0  0
    5.7851   54.9538   20.0398 C   0  0  0  0  0  0
    5.4116   53.8271   21.0236 C   0  0  0  0  0  0
    7.5665   56.5007   19.2029 C   0  0  0  0  0  0
    6.9971   57.5705   19.4308 O   0  0  0  0  0  0
    8.4553   56.3251   18.2072 N   0  0  0  0  0  0
    8.9514   57.2868   17.2114 C   0  0  0  0  0  0
    8.0770   58.4075   16.6838 C   0  0  0  0  0  0
    9.2376   58.7221   17.6010 C   0  0  0  0  0  0
    3.0098   54.0568   29.6586 O   0  0  0  0  0  0
    1.8617   53.3029   29.8065 C   0  0  0  0  0  0
    1.0801   53.6770   30.8450 N   0  0  0  0  0  0
   -0.0954   53.0168   30.9685 C   0  0  0  0  0  0
   -0.4970   52.0151   30.0816 C   0  0  0  0  0  0
    0.3818   51.6968   29.0484 C   0  0  0  0  0  0
    1.5795   52.3143   28.9058 N   0  0  0  0  0  0
    7.5699   54.1142   27.9830 H   0  0  0  0  0  0
    7.3834   53.0827   26.5433 H   0  0  0  0  0  0
    7.5046   54.8338   26.3804 H   0  0  0  0  0  0
    5.5671   53.9204   29.2051 H   0  0  0  0  0  0
    1.7687   54.5615   27.3569 H   0  0  0  0  0  0
    2.8098   54.6801   25.1750 H   0  0  0  0  0  0
    6.4462   54.6172   24.6855 H   0  0  0  0  0  0
    7.9198   53.7251   22.4817 H   0  0  0  0  0  0
    7.4739   55.0535   23.5492 H   0  0  0  0  0  0
    8.6852   55.9117   21.6804 H   0  0  0  0  0  0
    6.9995   56.5224   21.8816 H   0  0  0  0  0  0
    7.9267   54.4767   19.7573 H   0  0  0  0  0  0
    5.1625   55.8021   20.3262 H   0  0  0  0  0  0
    5.5062   54.5948   19.0460 H   0  0  0  0  0  0
    5.9039   52.9019   20.7302 H   0  0  0  0  0  0
    4.3320   53.6834   20.9484 H   0  0  0  0  0  0
    8.8569   55.4043   18.1272 H   0  0  0  0  0  0
    9.6358   56.8218   16.4997 H   0  0  0  0  0  0
    7.0567   58.5230   17.0532 H   0  0  0  0  0  0
    8.1525   58.6664   15.6262 H   0  0  0  0  0  0
   10.1283   59.1949   17.1893 H   0  0  0  0  0  0
    9.0376   59.0377   18.6251 H   0  0  0  0  0  0
   -0.7064   53.2975   31.8131 H   0  0  0  0  0  0
   -1.4232   51.4754   30.2159 H   0  0  0  0  0  0
    0.1486   50.9087   28.3454 H   0  0  0  0  0  0
  1  2  1  0  0  0
  1 30  1  0  0  0
  1 31  1  0  0  0
  1 32  1  0  0  0
  2  7  2  0  0  0
  2  3  1  0  0  0
  3  4  2  0  0  0
  3 33  1  0  0  0
  4  5  1  0  0  0
  4 23  1  0  0  0
  5  6  2  0  0  0
  5 34  1  0  0  0
  6  7  1  0  0  0
  6 35  1  0  0  0
  7  8  1  0  0  0
  8  9  1  0  0  0
  8 36  1  0  0  0
  9 10  2  0  0  0
  9 11  1  0  0  0
 11 16  1  0  0  0
 11 12  1  0  0  0
 12 13  1  0  0  0
 12 37  1  0  0  0
 12 38  1  0  0  0
 13 14  1  0  0  0
 13 39  1  0  0  0
 13 40  1  0  0  0
 14 15  1  0  0  0
 14 17  1  0  0  0
 14 41  1  0  0  0
 15 16  1  0  0  0
 15 42  1  0  0  0
 15 43  1  0  0  0
 16 44  1  0  0  0
 16 45  1  0  0  0
 17 18  2  0  0  0
 17 19  1  0  0  0
 19 20  1  0  0  0
 19 46  1  0  0  0
 20 22  1  0  0  0
 20 21  1  0  0  0
 20 47  1  0  0  0
 21 22  1  0  0  0
 21 48  1  0  0  0
 21 49  1  0  0  0
 22 50  1  0  0  0
 22 51  1  0  0  0
 23 24  1  0  0  0
 24 29  2  0  0  0
 24 25  1  0  0  0
 25 26  2  0  0  0
 26 27  1  0  0  0
 26 52  1  0  0  0
 27 28  2  0  0  0
 27 53  1  0  0  0
 28 29  1  0  0  0
 28 54  1  0  0  0
M  END
> <i_i_glide_confnum>
116

> <i_i_glide_lignum>
1398

> <i_i_glide_posenum>
63

> <i_i_glide_rotatable_bonds>
8

> <i_m_Source_File_Index>
1504

> <b_m_subgroup_collapsed>
0

> <r_i_docking_score>
-5.7775

> <r_i_glide_ecoul>
-4.80167

> <r_i_glide_eff_state_penalty>
0

> <r_i_glide_einternal>
10.3303

> <r_i_glide_emodel>
-55.1349

> <r_i_glide_energy>
-44.4265

> <r_i_glide_erotb>
1.00036

> <r_i_glide_esite>
-0.00733958

> <r_i_glide_evdw>
-39.6249

> <r_i_glide_gscore>
-5.7775

> <r_i_glide_hbond>
-0.483219

> <r_i_glide_ligand_efficiency>
-0.199224

> <r_i_glide_ligand_efficiency_ln>
-1.3229

> <r_i_glide_ligand_efficiency_sa>
-0.61208

> <r_i_glide_lipo>
-2.1043

> <r_i_glide_metal>
0

> <r_i_glide_rewards>
-1.48151

> <s_i_glide_gridfile>
wee1_glide-grid

> <s_m_Source_File>
wee1_decoys_glide_SP.sdf

> <s_m_Source_Path>
/Users/zhangxujun/Desktop

> <s_m_entry_id>
1779

> <s_m_entry_name>
wee1_decoys_glide_SP.1504

> <s_m_subgroup_title>
wee1_decoys_glide_SP

> <s_m_subgroupid>
wee1_decoys_glide_SP


$$$$
