ZINC48025355_6200
                    3D
 Schrodinger Suite 2024-2.
 64 66  0  0  1  0            999 V2000
    2.4550   51.4136   21.2209 C   0  0  0  0  0  0
    3.8716   51.1274   20.7235 C   0  0  0  0  0  0
    4.9384   51.9951   21.4217 C   0  0  0  0  0  0
    4.7068   53.5060   21.1777 C   0  0  0  0  0  0
    3.2585   53.7627   21.7362 C   0  0  0  0  0  0
    2.1611   52.9016   21.0596 C   0  0  0  0  0  0
    5.6921   54.3313   22.0784 C   0  0  0  0  0  0
    5.6638   54.0238   23.5262 N   0  0  0  0  0  0
    6.2832   54.7442   24.4788 C   0  0  0  0  0  0
    6.9995   55.6967   24.2045 O   0  0  0  0  0  0
    6.1063   54.4052   25.9739 C   0  0  0  0  0  0
    4.7761   53.6972   26.3724 N   0  3  1  0  0  0
    4.7812   53.5153   27.9197 C   0  0  0  0  0  0
    3.4703   52.8472   28.3905 C   0  0  0  0  0  0
    2.2174   53.5942   27.8818 C   0  0  1  0  0  0
    2.2872   53.6379   26.3463 C   0  0  0  0  0  0
    3.5056   54.4539   25.8980 C   0  0  0  0  0  0
    0.8982   52.9322   28.3605 C   0  0  0  0  0  0
    0.5903   53.0701   29.8555 C   0  0  0  0  0  0
    0.1866   52.0991   30.4848 O   0  0  0  0  0  0
    0.7352   54.2587   30.4419 N   0  0  0  0  0  0
    4.8622   53.8068   19.7207 N   0  0  0  0  0  0
    6.0939   53.3936   19.0190 C   0  0  0  0  0  0
    5.9663   53.5362   17.4856 C   0  0  0  0  0  0
    5.6100   54.8694   17.1329 O   0  0  0  0  0  0
    4.3995   55.2929   17.7514 C   0  0  0  0  0  0
    4.4934   55.1528   19.2866 C   0  0  0  0  0  0
    1.7280   50.8237   20.6608 H   0  0  0  0  0  0
    2.3554   51.1209   22.2669 H   0  0  0  0  0  0
    3.9035   51.2776   19.6440 H   0  0  0  0  0  0
    4.0919   50.0969   20.8834 H   0  0  0  0  0  0
    5.9040   51.6967   21.0554 H   0  0  0  0  0  0
    4.9805   51.7743   22.4798 H   0  0  0  0  0  0
    3.2072   53.5016   22.7928 H   0  0  0  0  0  0
    3.0022   54.8195   21.6816 H   0  0  0  0  0  0
    2.1148   53.1356   19.9944 H   0  0  0  0  0  0
    1.1819   53.1425   21.4744 H   0  0  0  0  0  0
    5.5106   55.3904   21.9193 H   0  0  0  0  0  0
    6.7037   54.2145   21.7168 H   0  0  0  0  0  0
    5.1488   53.2006   23.7964 H   0  0  0  0  0  0
    6.1252   55.3304   26.5509 H   0  0  0  0  0  0
    6.9188   53.7648   26.3214 H   0  0  0  0  0  0
    4.9192   54.5006   28.3720 H   0  0  0  0  0  0
    5.6340   52.8783   28.1627 H   0  0  0  0  0  0
    3.4560   52.7949   29.4796 H   0  0  0  0  0  0
    3.4344   51.8030   28.0857 H   0  0  0  0  0  0
    2.2557   54.6280   28.2336 H   0  0  0  0  0  0
    2.2838   52.6312   25.9247 H   0  0  0  0  0  0
    1.3885   54.0938   25.9350 H   0  0  0  0  0  0
    3.5208   55.4596   26.3162 H   0  0  0  0  0  0
    3.5114   54.5170   24.8127 H   0  0  0  0  0  0
    0.9107   51.8700   28.1061 H   0  0  0  0  0  0
    0.0377   53.3378   27.8286 H   0  0  0  0  0  0
    1.0349   55.0708   29.9249 H   0  0  0  0  0  0
    0.5007   54.3309   31.4225 H   0  0  0  0  0  0
    6.9557   53.9505   19.3873 H   0  0  0  0  0  0
    6.3018   52.3420   19.1906 H   0  0  0  0  0  0
    5.2092   52.8376   17.1215 H   0  0  0  0  0  0
    6.9069   53.2726   17.0001 H   0  0  0  0  0  0
    3.5632   54.6959   17.3828 H   0  0  0  0  0  0
    4.2011   56.3296   17.4770 H   0  0  0  0  0  0
    3.5049   55.2974   19.6776 H   0  0  0  0  0  0
    5.1411   55.9133   19.7213 H   0  0  0  0  0  0
    4.7504   52.7751   25.9498 H   0  0  0  0  0  0
  1  6  1  0  0  0
  1  2  1  0  0  0
  1 28  1  0  0  0
  1 29  1  0  0  0
  2  3  1  0  0  0
  2 30  1  0  0  0
  2 31  1  0  0  0
  3  4  1  0  0  0
  3 32  1  0  0  0
  3 33  1  0  0  0
  4  5  1  0  0  0
  4  7  1  0  0  0
  4 22  1  0  0  0
  5  6  1  0  0  0
  5 34  1  0  0  0
  5 35  1  0  0  0
  6 36  1  0  0  0
  6 37  1  0  0  0
  7  8  1  0  0  0
  7 38  1  0  0  0
  7 39  1  0  0  0
  8  9  1  0  0  0
  8 40  1  0  0  0
  9 10  2  0  0  0
  9 11  1  0  0  0
 11 12  1  0  0  0
 11 41  1  0  0  0
 11 42  1  0  0  0
 12 17  1  0  0  0
 12 13  1  0  0  0
 12 64  1  0  0  0
 13 14  1  0  0  0
 13 43  1  0  0  0
 13 44  1  0  0  0
 14 15  1  0  0  0
 14 45  1  0  0  0
 14 46  1  0  0  0
 15 16  1  0  0  0
 15 18  1  0  0  0
 15 47  1  0  0  0
 16 17  1  0  0  0
 16 48  1  0  0  0
 16 49  1  0  0  0
 17 50  1  0  0  0
 17 51  1  0  0  0
 18 19  1  0  0  0
 18 52  1  0  0  0
 18 53  1  0  0  0
 19 20  2  0  0  0
 19 21  1  0  0  0
 21 54  1  0  0  0
 21 55  1  0  0  0
 22 27  1  0  0  0
 22 23  1  0  0  0
 23 24  1  0  0  0
 23 56  1  0  0  0
 23 57  1  0  0  0
 24 25  1  0  0  0
 24 58  1  0  0  0
 24 59  1  0  0  0
 25 26  1  0  0  0
 26 27  1  0  0  0
 26 60  1  0  0  0
 26 61  1  0  0  0
 27 62  1  0  0  0
 27 63  1  0  0  0
M  CHG  1  12   1
M  END
> <i_i_glide_confnum>
301

> <i_i_glide_lignum>
6201

> <i_i_glide_posenum>
191

> <i_i_glide_rotatable_bonds>
8

> <i_m_Source_File_Index>
3925

> <b_m_subgroup_collapsed>
0

> <r_i_docking_score>
-3.738

> <r_i_glide_ecoul>
2.4516

> <r_i_glide_eff_state_penalty>
0

> <r_i_glide_einternal>
13.7026

> <r_i_glide_emodel>
-28.5251

> <r_i_glide_energy>
-27.4593

> <r_i_glide_erotb>
0.933483

> <r_i_glide_esite>
0

> <r_i_glide_evdw>
-29.9109

> <r_i_glide_gscore>
-3.738

> <r_i_glide_hbond>
0

> <r_i_glide_ligand_efficiency>
-0.138444

> <r_i_glide_ligand_efficiency_ln>
-0.870145

> <r_i_glide_ligand_efficiency_sa>
-0.415333

> <r_i_glide_lipo>
-2.0026

> <r_i_glide_metal>
0

> <r_i_glide_rewards>
-1.54108

> <s_i_glide_gridfile>
wee1_glide-grid

> <s_m_Source_File>
wee1_decoys_glide_SP.sdf

> <s_m_Source_Path>
/Users/zhangxujun/Desktop

> <s_m_entry_id>
4200

> <s_m_entry_name>
wee1_decoys_glide_SP.3925

> <s_m_subgroup_title>
wee1_decoys_glide_SP

> <s_m_subgroupid>
wee1_decoys_glide_SP


$$$$
