@<TRIPOS>MOLECULE
ZINC09673637_4475
55   58    1
SMALL
USER_CHARGES


@<TRIPOS>ATOM
      1 C1          5.4860   57.2031   17.3963 C.3       1 UNK         0.0000 
      2 C2          5.3225   56.1576   18.4846 C.ar      1 UNK         0.0000 
      3 C3          6.0632   56.2531   19.6645 C.ar      1 UNK         0.0000 
      4 C4          5.9043   55.2990   20.6673 C.ar      1 UNK         0.0000 
      5 C5          5.0088   54.2422   20.4848 C.ar      1 UNK         0.0000 
      6 C6          4.2912   54.1304   19.2927 C.ar      1 UNK         0.0000 
      7 C7          4.4409   55.0923   18.2976 C.ar      1 UNK         0.0000 
      8 S8          4.8594   52.9707   21.7386 S.o2      1 UNK         0.0000 
      9 O9          5.6869   53.3798   22.8813 O.2       1 UNK         0.0000 
     10 O10         5.1043   51.6968   21.0594 O.2       1 UNK         0.0000 
     11 C11         3.1221   52.9284   22.3027 C.2       1 UNK         0.0000 
     12 C12         2.0989   52.2124   21.6497 C.2       1 UNK         0.0000 
     13 C13         0.8696   52.2700   22.3008 C.2       1 UNK         0.0000 
     14 S14         0.9481   53.2966   23.6909 S.3       1 UNK         0.0000 
     15 C15         2.6675   53.4997   23.4971 C.2       1 UNK         0.0000 
     16 N16         3.4490   54.1280   24.4439 N.pl3     1 UNK         0.0000 
     17 C17         3.4488   54.0175   25.8496 C.ar      1 UNK         0.0000 
     18 C18         4.5111   54.6157   26.5303 C.ar      1 UNK         0.0000 
     19 C19         4.6298   54.4926   27.9146 C.ar      1 UNK         0.0000 
     20 C20         3.6972   53.7548   28.6424 C.ar      1 UNK         0.0000 
     21 C21         2.6193   53.1679   27.9666 C.ar      1 UNK         0.0000 
     22 C22         2.4992   53.2967   26.5857 C.ar      1 UNK         0.0000 
     23 O23         3.9044   53.6414   30.0041 O.3       1 UNK         0.0000 
     24 C24         3.2599   52.5791   30.7016 C.3       1 UNK         0.0000 
     25 C25        -0.3868   51.5912   22.0098 C.2       1 UNK         0.0000 
     26 O26        -1.1706   52.0967   21.2045 O.2       1 UNK         0.0000 
     27 C27        -0.6728   50.2797   22.6898 C.ar      1 UNK         0.0000 
     28 C28         0.2036   49.7257   23.6395 C.ar      1 UNK         0.0000 
     29 C29        -0.0957   48.5107   24.2529 C.ar      1 UNK         0.0000 
     30 C30        -1.2625   47.8314   23.9141 C.ar      1 UNK         0.0000 
     31 C31        -2.1403   48.3660   22.9766 C.ar      1 UNK         0.0000 
     32 C32        -1.8496   49.5856   22.3701 C.ar      1 UNK         0.0000 
     33 F33        -1.5413   46.6374   24.4860 F         1 UNK         0.0000 
     34 N34         2.3009   51.4718   20.5196 N.pl3     1 UNK         0.0000 
     35 H35         6.4308   57.7408   17.4890 H         1 UNK         0.0000 
     36 H36         5.4867   56.7319   16.4128 H         1 UNK         0.0000 
     37 H37         4.6655   57.9208   17.4263 H         1 UNK         0.0000 
     38 H38         6.7568   57.0678   19.8040 H         1 UNK         0.0000 
     39 H39         6.4871   55.3780   21.5737 H         1 UNK         0.0000 
     40 H40         3.6171   53.3042   19.1284 H         1 UNK         0.0000 
     41 H41         3.8740   55.0045   17.3819 H         1 UNK         0.0000 
     42 H42         4.3614   54.4292   24.1258 H         1 UNK         0.0000 
     43 H43         5.2640   55.1699   25.9888 H         1 UNK         0.0000 
     44 H44         5.4652   54.9495   28.4256 H         1 UNK         0.0000 
     45 H45         1.8733   52.5945   28.4948 H         1 UNK         0.0000 
     46 H46         1.6769   52.7856   26.1192 H         1 UNK         0.0000 
     47 H47         3.6745   52.4970   31.7067 H         1 UNK         0.0000 
     48 H48         2.1878   52.7556   30.7972 H         1 UNK         0.0000 
     49 H49         3.4221   51.6216   30.2051 H         1 UNK         0.0000 
     50 H50         1.1234   50.2207   23.9176 H         1 UNK         0.0000 
     51 H51         0.5794   48.0933   24.9871 H         1 UNK         0.0000 
     52 H52        -3.0446   47.8341   22.7213 H         1 UNK         0.0000 
     53 H53        -2.5476   49.9811   21.6450 H         1 UNK         0.0000 
     54 H54         3.2381   51.3114   20.1637 H         1 UNK         0.0000 
     55 H55         1.5511   50.9844   20.0520 H         1 UNK         0.0000 
@<TRIPOS>BOND
     1    1    2 1    
     2    1   35 1    
     3    1   36 1    
     4    1   37 1    
     5    2    7 ar   
     6    2    3 ar   
     7    3    4 ar   
     8    3   38 1    
     9    4    5 ar   
    10    4   39 1    
    11    5    6 ar   
    12    5    8 1    
    13    6    7 ar   
    14    6   40 1    
    15    7   41 1    
    16    8    9 2    
    17    8   10 2    
    18    8   11 1    
    19   11   15 2    
    20   11   12 1    
    21   12   13 2    
    22   12   34 1    
    23   13   14 1    
    24   13   25 1    
    25   14   15 1    
    26   15   16 1    
    27   16   17 1    
    28   16   42 1    
    29   17   22 ar   
    30   17   18 ar   
    31   18   19 ar   
    32   18   43 1    
    33   19   20 ar   
    34   19   44 1    
    35   20   21 ar   
    36   20   23 1    
    37   21   22 ar   
    38   21   45 1    
    39   22   46 1    
    40   23   24 1    
    41   24   47 1    
    42   24   48 1    
    43   24   49 1    
    44   25   26 2    
    45   25   27 1    
    46   27   32 ar   
    47   27   28 ar   
    48   28   29 ar   
    49   28   50 1    
    50   29   30 ar   
    51   29   51 1    
    52   30   31 ar   
    53   30   33 1    
    54   31   32 ar   
    55   31   52 1    
    56   32   53 1    
    57   34   54 1    
    58   34   55 1    
@<TRIPOS>SUBSTRUCTURE
     1 UNK         1 GROUP             0       ****    0 ROOT    
