@<TRIPOS>MOLECULE
ZINC09345498_4408
43   46    1
SMALL
USER_CHARGES


@<TRIPOS>ATOM
      1 C1          5.4296   54.4786   28.5095 C.3       1 UNK         0.0000 
      2 O2          4.0641   54.1502   28.7524 O.3       1 UNK         0.0000 
      3 C3          3.2499   53.8056   27.6867 C.ar      1 UNK         0.0000 
      4 C4          3.6285   53.9306   26.3401 C.ar      1 UNK         0.0000 
      5 C5          2.7623   53.5423   25.3182 C.ar      1 UNK         0.0000 
      6 C6          1.5038   52.9982   25.6044 C.ar      1 UNK         0.0000 
      7 C7          1.1206   52.8960   26.9481 C.ar      1 UNK         0.0000 
      8 C8          1.9789   53.2935   27.9765 C.ar      1 UNK         0.0000 
      9 Br9         1.3996   53.1031   29.7838 Br        1 UNK         0.0000 
     10 C10         0.5957   52.5834   24.5077 C.2       1 UNK         0.0000 
     11 C11        -0.7435   52.5907   24.5466 C.2       1 UNK         0.0000 
     12 S12        -1.4301   52.0966   23.0000 S.3       1 UNK         0.0000 
     13 C13         0.1988   51.8383   22.3067 C.2       1 UNK         0.0000 
     14 N14         0.4042   51.4716   21.0967 N.2       1 UNK         0.0000 
     15 C15         1.6298   51.0427   20.6374 C.2       1 UNK         0.0000 
     16 S16         1.9045   49.4002   20.4463 S.2       1 UNK         0.0000 
     17 N17         2.4506   52.0975   20.3275 N.am      1 UNK         0.0000 
     18 C18         3.8029   52.1842   20.3817 C.2       1 UNK         0.0000 
     19 O19         4.5559   51.3462   20.8832 O.2       1 UNK         0.0000 
     20 C20         4.3253   53.4103   19.8351 C.2       1 UNK         0.0000 
     21 C21         3.9044   54.1919   18.7618 C.2       1 UNK         0.0000 
     22 C22         4.8452   55.2581   18.6359 C.ar      1 UNK         0.0000 
     23 C23         4.9935   56.3900   17.8177 C.ar      1 UNK         0.0000 
     24 C24         6.1146   57.2072   18.0033 C.ar      1 UNK         0.0000 
     25 C25         7.0755   56.9169   18.9742 C.ar      1 UNK         0.0000 
     26 C26         6.9462   55.8117   19.8178 C.ar      1 UNK         0.0000 
     27 C27         5.8198   55.0022   19.6278 C.ar      1 UNK         0.0000 
     28 O28         5.5043   53.8800   20.3420 O.3       1 UNK         0.0000 
     29 N29         1.0989   52.1094   23.3218 N.pl3     1 UNK         0.0000 
     30 H30         2.0824   51.9556   23.1729 H         1 UNK         0.0000 
     31 H31         5.9030   54.7992   29.4376 H         1 UNK         0.0000 
     32 H32         5.9795   53.6140   28.1343 H         1 UNK         0.0000 
     33 H33         5.5377   55.2968   27.8001 H         1 UNK         0.0000 
     34 H34         4.5921   54.3226   26.0608 H         1 UNK         0.0000 
     35 H35         3.0861   53.6625   24.2940 H         1 UNK         0.0000 
     36 H36         0.1539   52.4885   27.2067 H         1 UNK         0.0000 
     37 H37        -1.3760   52.8964   25.3664 H         1 UNK         0.0000 
     38 H38         1.9715   52.9673   20.1453 H         1 UNK         0.0000 
     39 H39         3.0220   54.0195   18.1611 H         1 UNK         0.0000 
     40 H40         4.2648   56.6213   17.0541 H         1 UNK         0.0000 
     41 H41         6.2425   58.0796   17.3732 H         1 UNK         0.0000 
     42 H42         7.9377   57.5605   19.0660 H         1 UNK         0.0000 
     43 H43         7.6848   55.5827   20.5731 H         1 UNK         0.0000 
@<TRIPOS>BOND
     1    1    2 1    
     2    1   31 1    
     3    1   32 1    
     4    1   33 1    
     5    2    3 1    
     6    3    8 ar   
     7    3    4 ar   
     8    4    5 ar   
     9    4   34 1    
    10    5    6 ar   
    11    5   35 1    
    12    6    7 ar   
    13    6   10 1    
    14    7    8 ar   
    15    7   36 1    
    16    8    9 1    
    17   10   29 1    
    18   10   11 2    
    19   11   12 1    
    20   11   37 1    
    21   12   13 1    
    22   13   14 2    
    23   13   29 1    
    24   14   15 1    
    25   15   16 2    
    26   15   17 am   BACKBONE|DICT|INTERRES
    27   17   18 am   BACKBONE|DICT|INTERRES
    28   17   38 1    
    29   18   19 2    
    30   18   20 1    
    31   20   28 1    
    32   20   21 2    
    33   21   22 1    
    34   21   39 1    
    35   22   27 ar   
    36   22   23 ar   
    37   23   24 ar   
    38   23   40 1    
    39   24   25 ar   
    40   24   41 1    
    41   25   26 ar   
    42   25   42 1    
    43   26   27 ar   
    44   26   43 1    
    45   27   28 1    
    46   29   30 1    
@<TRIPOS>SUBSTRUCTURE
     1 UNK         1 GROUP             0       ****    0 ROOT    
