@<TRIPOS>MOLECULE
ZINC09183613_4452
45   47    1
SMALL
USER_CHARGES


@<TRIPOS>ATOM
      1 C1         -0.9143   52.8621   17.6867 C.3       1 UNK         0.0000 
      2 O2         -1.6702   52.1261   18.6448 O.3       1 UNK         0.0000 
      3 C3         -1.0529   51.6970   19.8041 C.ar      1 UNK         0.0000 
      4 C4         -1.8105   50.8854   20.6461 C.ar      1 UNK         0.0000 
      5 C5         -1.2823   50.4242   21.8488 C.ar      1 UNK         0.0000 
      6 C6          0.0113   50.7886   22.2373 C.ar      1 UNK         0.0000 
      7 C7          0.7825   51.5833   21.3821 C.ar      1 UNK         0.0000 
      8 C8          0.2553   52.0403   20.1777 C.ar      1 UNK         0.0000 
      9 C9          0.6097   50.3060   23.5724 C.3       1 UNK         0.0000 
     10 H10         1.6914   50.2996   23.4158 H         1 UNK         0.0000 
     11 C11         0.3249   51.1865   24.8419 C.3       1 UNK         0.0000 
     12 H12         1.0912   50.9057   25.5643 H         1 UNK         0.0000 
     13 C13        -1.0437   50.8524   25.5419 C.3       1 UNK         0.0000 
     14 N14        -1.0546   49.3815   25.6820 N.am      1 UNK         0.0000 
     15 C15        -0.6209   48.4694   24.7850 C.2       1 UNK         0.0000 
     16 O16        -1.1029   47.3448   24.6863 O.2       1 UNK         0.0000 
     17 N17         0.3044   48.9095   23.9108 N.am      1 UNK         0.0000 
     18 C18        -1.2327   51.5608   26.9324 C.3       1 UNK         0.0000 
     19 F19        -1.2956   52.8948   26.8617 F         1 UNK         0.0000 
     20 F20        -2.3615   51.1720   27.5289 F         1 UNK         0.0000 
     21 F21        -0.2319   51.2701   27.7653 F         1 UNK         0.0000 
     22 O22        -2.1585   51.2260   24.7476 O.3       1 UNK         0.0000 
     23 C23         0.5488   52.6937   24.5551 C.2       1 UNK         0.0000 
     24 O24        -0.2659   53.3109   23.8729 O.2       1 UNK         0.0000 
     25 C25         1.8635   53.2679   24.9496 C.ar      1 UNK         0.0000 
     26 C26         2.6392   53.9328   23.9931 C.ar      1 UNK         0.0000 
     27 C27         3.8944   54.4254   24.3393 C.ar      1 UNK         0.0000 
     28 C28         4.3587   54.2904   25.6454 C.ar      1 UNK         0.0000 
     29 C29         3.5586   53.6976   26.6197 C.ar      1 UNK         0.0000 
     30 C30         2.3057   53.1937   26.2757 C.ar      1 UNK         0.0000 
     31 Br31        6.1089   54.8967   26.0909 Br        1 UNK         0.0000 
     32 H32        -1.5399   53.0689   16.8186 H         1 UNK         0.0000 
     33 H33        -0.5771   53.8214   18.0817 H         1 UNK         0.0000 
     34 H34        -0.0483   52.2965   17.3400 H         1 UNK         0.0000 
     35 H35        -2.8158   50.6095   20.3638 H         1 UNK         0.0000 
     36 H36        -1.8905   49.7980   22.4846 H         1 UNK         0.0000 
     37 H37         1.7891   51.8657   21.6552 H         1 UNK         0.0000 
     38 H38         0.8719   52.6718   19.5553 H         1 UNK         0.0000 
     39 H39        -1.4813   48.9968   26.5219 H         1 UNK         0.0000 
     40 H40         0.7946   48.1928   23.3995 H         1 UNK         0.0000 
     41 H41        -2.8955   50.6613   24.9918 H         1 UNK         0.0000 
     42 H42         2.2966   54.0352   22.9716 H         1 UNK         0.0000 
     43 H43         4.5143   54.8966   23.5909 H         1 UNK         0.0000 
     44 H44         3.9195   53.6066   27.6336 H         1 UNK         0.0000 
     45 H45         1.7055   52.7231   27.0410 H         1 UNK         0.0000 
@<TRIPOS>BOND
     1    1    2 1    
     2    1   32 1    
     3    1   33 1    
     4    1   34 1    
     5    2    3 1    
     6    3    8 ar   
     7    3    4 ar   
     8    4    5 ar   
     9    4   35 1    
    10    5    6 ar   
    11    5   36 1    
    12    6    7 ar   
    13    6    9 1    
    14    7    8 ar   
    15    7   37 1    
    16    8   38 1    
    17    9   10 1    
    18    9   17 1    
    19    9   11 1    
    20   11   12 1    
    21   11   13 1    
    22   11   23 1    
    23   13   14 1    
    24   13   18 1    
    25   13   22 1    
    26   14   15 am   BACKBONE|DICT|INTERRES
    27   14   39 1    
    28   15   16 2    
    29   15   17 am   BACKBONE|DICT|INTERRES
    30   17   40 1    
    31   18   19 1    
    32   18   20 1    
    33   18   21 1    
    34   22   41 1    
    35   23   24 2    
    36   23   25 1    
    37   25   30 ar   
    38   25   26 ar   
    39   26   27 ar   
    40   26   42 1    
    41   27   28 ar   
    42   27   43 1    
    43   28   29 ar   
    44   28   31 1    
    45   29   30 ar   
    46   29   44 1    
    47   30   45 1    
@<TRIPOS>SUBSTRUCTURE
     1 UNK         1 GROUP             0       ****    0 ROOT    
