@<TRIPOS>MOLECULE
ZINC65356057_1718
32   33    1
SMALL
USER_CHARGES


@<TRIPOS>ATOM
      1 C1         -0.0817   52.0252   29.6921 C.3       1 UNK         0.0000 
      2 S2          1.4320   52.9848   30.2566 S.o2      1 UNK         0.0000 
      3 O3          2.2911   52.0970   31.0494 O.2       1 UNK         0.0000 
      4 O4          0.9727   54.2718   30.7868 O.2       1 UNK         0.0000 
      5 C5          2.3005   53.3441   28.7403 C.ar      1 UNK         0.0000 
      6 C6          3.6567   53.0586   28.5927 C.ar      1 UNK         0.0000 
      7 C7          4.2815   53.2967   27.3687 C.ar      1 UNK         0.0000 
      8 C8          3.5756   53.8129   26.2706 C.ar      1 UNK         0.0000 
      9 C9          2.2207   54.0962   26.4641 C.ar      1 UNK         0.0000 
     10 C10         1.5881   53.8882   27.6820 C.ar      1 UNK         0.0000 
     11 C11         4.1728   53.9915   24.8950 C.ar      1 UNK         0.0000 
     12 C12         3.3602   53.6965   23.7792 C.ar      1 UNK         0.0000 
     13 C13         3.8256   53.8426   22.4733 C.ar      1 UNK         0.0000 
     14 C14         5.1272   54.2768   22.2658 C.ar      1 UNK         0.0000 
     15 N15         5.9048   54.5309   23.3305 N.pl3     1 UNK         0.0000 
     16 C16         5.4967   54.4306   24.6161 C.ar      1 UNK         0.0000 
     17 C17         6.4807   54.8738   25.6331 C.2       1 UNK         0.0000 
     18 O18         6.7045   56.0965   25.6817 O.co2     1 UNK         0.0000 
     19 O19         7.1043   54.0078   26.2772 O.co2     1 UNK         0.0000 
     20 N20         5.6140   54.4974   20.9659 N.pl3     1 UNK         0.0000 
     21 H21        -0.6293   51.6965   30.5747 H         1 UNK         0.0000 
     22 H22        -0.7142   52.6695   29.0904 H         1 UNK         0.0000 
     23 H23         0.2403   51.1692   29.1037 H         1 UNK         0.0000 
     24 H24         4.2217   52.6226   29.4042 H         1 UNK         0.0000 
     25 H25         5.3030   52.9728   27.2786 H         1 UNK         0.0000 
     26 H26         1.6269   54.4798   25.6486 H         1 UNK         0.0000 
     27 H27         0.5403   54.1221   27.7906 H         1 UNK         0.0000 
     28 H28         2.3505   53.3351   23.9094 H         1 UNK         0.0000 
     29 H29         3.1731   53.6309   21.6375 H         1 UNK         0.0000 
     30 H30         5.0190   54.3040   20.1712 H         1 UNK         0.0000 
     31 H31         6.5443   54.8569   20.8083 H         1 UNK         0.0000 
     32 H32         6.8416   54.8705   23.1651 H         1 UNK         0.0000 
@<TRIPOS>BOND
     1    1    2 1    
     2    1   21 1    
     3    1   22 1    
     4    1   23 1    
     5    2    3 2    
     6    2    4 2    
     7    2    5 1    
     8    5   10 ar   
     9    5    6 ar   
    10    6    7 ar   
    11    6   24 1    
    12    7    8 ar   
    13    7   25 1    
    14    8    9 ar   
    15    8   11 1    
    16    9   10 ar   
    17    9   26 1    
    18   10   27 1    
    19   11   16 ar   
    20   11   12 ar   
    21   12   13 ar   
    22   12   28 1    
    23   13   14 ar   
    24   13   29 1    
    25   14   15 ar   
    26   14   20 1    
    27   15   16 ar   
    28   15   32 1    
    29   16   17 1    
    30   17   18 2    
    31   17   19 1    
    32   20   30 1    
    33   20   31 1    
@<TRIPOS>SUBSTRUCTURE
     1 UNK         1 GROUP             0       ****    0 ROOT    
