@<TRIPOS>MOLECULE
ZINC09588477_819
65   68    1
SMALL
USER_CHARGES


@<TRIPOS>ATOM
      1 C1          4.1020   53.7249   19.0382 C.3       1 UNK         0.0000 
      2 C2          3.9851   52.7147   20.1902 C.3       1 UNK         0.0000 
      3 H3          4.3751   51.7656   19.8086 H         1 UNK         0.0000 
      4 C4          4.8548   53.1187   21.4140 C.3       1 UNK         0.0000 
      5 C5          4.3365   54.3394   22.2146 C.3       1 UNK         0.0000 
      6 C6          4.9309   54.4316   23.6117 C.ar      1 UNK         0.0000 
      7 C7          6.3038   54.6325   23.7743 C.ar      1 UNK         0.0000 
      8 C8          6.8347   54.7448   25.0548 C.ar      1 UNK         0.0000 
      9 C9          6.0030   54.6558   26.1692 C.ar      1 UNK         0.0000 
     10 C10         4.6336   54.4573   26.0119 C.ar      1 UNK         0.0000 
     11 C11         4.0951   54.3422   24.7305 C.ar      1 UNK         0.0000 
     12 N12         2.5739   52.4965   20.5288 N.am      1 UNK         0.0000 
     13 C13         2.1057   51.5383   21.3443 C.2       1 UNK         0.0000 
     14 O14         2.8368   50.7028   21.8787 O.2       1 UNK         0.0000 
     15 C15         0.5805   51.5548   21.5944 C.3       1 UNK         0.0000 
     16 N16         0.1663   50.5806   22.6403 N.am      1 UNK         0.0000 
     17 C17         0.2436   50.9662   24.0200 C.ar      1 UNK         0.0000 
     18 C18         0.8124   52.1799   24.4460 C.ar      1 UNK         0.0000 
     19 C19         0.8900   52.4957   25.8014 C.ar      1 UNK         0.0000 
     20 C20         0.4142   51.6014   26.7566 C.ar      1 UNK         0.0000 
     21 C21        -0.1659   50.4016   26.3554 C.ar      1 UNK         0.0000 
     22 C22        -0.3223   50.1093   24.9925 C.ar      1 UNK         0.0000 
     23 N23        -0.8237   48.8557   24.5588 N.am      1 UNK         0.0000 
     24 C24        -0.0893   48.2986   23.4022 C.3       1 UNK         0.0000 
     25 C25        -0.0626   49.2967   22.2156 C.2       1 UNK         0.0000 
     26 O26        -0.1967   48.9288   21.0477 O.2       1 UNK         0.0000 
     27 C27        -2.1554   48.5294   24.6576 C.2       1 UNK         0.0000 
     28 O28        -2.7153   47.7439   23.8826 O.2       1 UNK         0.0000 
     29 N29        -2.8368   49.0859   25.6818 N.am      1 UNK         0.0000 
     30 C30        -4.2717   48.9434   25.9513 C.3       1 UNK         0.0000 
     31 C31        -4.7925   47.5120   26.0847 C.ar      1 UNK         0.0000 
     32 C32        -4.1521   46.6051   26.9356 C.ar      1 UNK         0.0000 
     33 C33        -4.6202   45.2979   27.0320 C.ar      1 UNK         0.0000 
     34 C34        -5.7265   44.8976   26.2840 C.ar      1 UNK         0.0000 
     35 C35        -6.3710   45.7980   25.4376 C.ar      1 UNK         0.0000 
     36 C36        -5.9000   47.1060   25.3329 C.ar      1 UNK         0.0000 
     37 H37         5.1484   53.9219   18.8083 H         1 UNK         0.0000 
     38 H38         3.6447   53.3416   18.1254 H         1 UNK         0.0000 
     39 H39         3.6483   54.6834   19.2910 H         1 UNK         0.0000 
     40 H40         5.8813   53.3046   21.0961 H         1 UNK         0.0000 
     41 H41         4.9129   52.2596   22.0814 H         1 UNK         0.0000 
     42 H42         3.2492   54.3082   22.2967 H         1 UNK         0.0000 
     43 H43         4.5602   55.2654   21.6808 H         1 UNK         0.0000 
     44 H44         6.9582   54.7091   22.9147 H         1 UNK         0.0000 
     45 H45         7.8960   54.8963   25.1705 H         1 UNK         0.0000 
     46 H46         6.4230   54.7426   27.1624 H         1 UNK         0.0000 
     47 H47         3.9897   54.3878   26.8771 H         1 UNK         0.0000 
     48 H48         3.0335   54.1954   24.6080 H         1 UNK         0.0000 
     49 H49         1.9196   53.1450   20.1124 H         1 UNK         0.0000 
     50 H50         0.2289   52.5536   21.8502 H         1 UNK         0.0000 
     51 H51         0.0671   51.3475   20.6533 H         1 UNK         0.0000 
     52 H52         1.2285   52.8845   23.7402 H         1 UNK         0.0000 
     53 H53         1.3458   53.4214   26.1143 H         1 UNK         0.0000 
     54 H54         0.5074   51.8280   27.8103 H         1 UNK         0.0000 
     55 H55        -0.4949   49.6968   27.1037 H         1 UNK         0.0000 
     56 H56        -0.5092   47.3590   23.0445 H         1 UNK         0.0000 
     57 H57         0.9495   48.1270   23.6822 H         1 UNK         0.0000 
     58 H58        -2.3135   49.6433   26.3474 H         1 UNK         0.0000 
     59 H59        -4.4683   49.4509   26.8962 H         1 UNK         0.0000 
     60 H60        -4.8259   49.4958   25.1899 H         1 UNK         0.0000 
     61 H61        -3.2951   46.9137   27.5195 H         1 UNK         0.0000 
     62 H62        -4.1260   44.5918   27.6818 H         1 UNK         0.0000 
     63 H63        -6.0866   43.8809   26.3617 H         1 UNK         0.0000 
     64 H64        -7.2293   45.4828   24.8630 H         1 UNK         0.0000 
     65 H65        -6.3961   47.7979   24.6671 H         1 UNK         0.0000 
@<TRIPOS>BOND
     1    1    2 1    
     2    1   37 1    
     3    1   38 1    
     4    1   39 1    
     5    2    3 1    
     6    2    4 1    
     7    2   12 1    
     8    4    5 1    
     9    4   40 1    
    10    4   41 1    
    11    5    6 1    
    12    5   42 1    
    13    5   43 1    
    14    6   11 ar   
    15    6    7 ar   
    16    7    8 ar   
    17    7   44 1    
    18    8    9 ar   
    19    8   45 1    
    20    9   10 ar   
    21    9   46 1    
    22   10   11 ar   
    23   10   47 1    
    24   11   48 1    
    25   12   13 am   BACKBONE|DICT|INTERRES
    26   12   49 1    
    27   13   14 2    
    28   13   15 1    
    29   15   16 1    
    30   15   50 1    
    31   15   51 1    
    32   16   25 am   BACKBONE|DICT|INTERRES
    33   16   17 1    
    34   17   22 ar   
    35   17   18 ar   
    36   18   19 ar   
    37   18   52 1    
    38   19   20 ar   
    39   19   53 1    
    40   20   21 ar   
    41   20   54 1    
    42   21   22 ar   
    43   21   55 1    
    44   22   23 1    
    45   23   24 1    
    46   23   27 am   BACKBONE|DICT|INTERRES
    47   24   25 1    
    48   24   56 1    
    49   24   57 1    
    50   25   26 2    
    51   27   28 2    
    52   27   29 am   BACKBONE|DICT|INTERRES
    53   29   30 1    
    54   29   58 1    
    55   30   31 1    
    56   30   59 1    
    57   30   60 1    
    58   31   36 ar   
    59   31   32 ar   
    60   32   33 ar   
    61   32   61 1    
    62   33   34 ar   
    63   33   62 1    
    64   34   35 ar   
    65   34   63 1    
    66   35   36 ar   
    67   35   64 1    
    68   36   65 1    
@<TRIPOS>SUBSTRUCTURE
     1 UNK         1 GROUP             0       ****    0 ROOT    
