ZINC40112207_4648
                    3D
 Schrodinger Suite 2024-2.
 65 68  0  0  1  0            999 V2000
    3.5048   53.1385   30.0814 C   0  0  0  0  0  0
    2.3704   52.4706   29.6283 C   0  0  0  0  0  0
    1.9597   52.6300   28.3082 C   0  0  0  0  0  0
    2.6780   53.4639   27.4395 C   0  0  0  0  0  0
    3.7918   54.1579   27.9188 C   0  0  0  0  0  0
    4.2062   53.9964   29.2377 C   0  0  0  0  0  0
    2.3381   53.5757   26.0061 C   0  0  0  0  0  0
    1.7924   52.5895   25.2716 C   0  0  0  0  0  0
    1.4219   52.5446   23.7803 C   0  0  1  0  0  0
    0.7218   53.3510   23.5574 H   0  0  0  0  0  0
    2.5691   52.5435   22.7767 C   0  0  0  0  0  0
    2.5561   51.3452   22.1620 C   0  0  0  0  0  0
    1.4332   50.5173   22.5662 C   0  0  0  0  0  0
    1.1098   49.3883   22.1784 O   0  0  0  0  0  0
    0.7726   51.2683   23.4776 N   0  0  0  0  0  0
   -0.4754   50.8029   24.1096 C   0  0  0  0  0  0
   -0.2945   49.6469   25.1251 C   0  0  0  0  0  0
   -1.5429   49.2809   25.6830 O   0  0  0  0  0  0
    3.3704   50.8611   21.2892 O   0  5  0  0  0  0
    3.4795   53.6987   22.5777 C   0  0  0  0  0  0
    3.6141   54.4967   23.4990 O   0  0  0  0  0  0
    4.3212   53.9031   21.3411 C   0  0  0  0  0  0
    3.9042   53.4856   20.0693 C   0  0  0  0  0  0
    4.6992   53.7040   18.9495 C   0  0  0  0  0  0
    5.8984   54.4033   19.0741 C   0  0  0  0  0  0
    6.2957   54.8963   20.3160 C   0  0  0  0  0  0
    5.5163   54.6331   21.4401 C   0  0  0  0  0  0
    6.9270   54.6384   17.6205 S   0  0  0  0  0  0
    7.9811   53.6190   17.6842 O   0  0  0  0  0  0
    6.0190   54.7063   16.4677 O   0  0  0  0  0  0
    7.6720   56.2372   17.8058 N   0  0  0  0  0  0
    6.7611   57.3902   17.6038 C   0  0  0  0  0  0
    7.1017   58.6467   18.4180 C   0  0  0  0  0  0
    8.3262   59.4350   17.9099 C   0  0  0  0  0  0
    9.7066   58.8230   18.2108 C   0  0  0  0  0  0
    9.9297   57.3751   17.7383 C   0  0  0  0  0  0
    9.0224   56.3374   18.4215 C   0  0  0  0  0  0
    3.8456   52.9863   31.0965 H   0  0  0  0  0  0
    1.8194   51.8174   30.2878 H   0  0  0  0  0  0
    1.0894   52.0911   27.9634 H   0  0  0  0  0  0
    4.3604   54.7983   27.2604 H   0  0  0  0  0  0
    5.0833   54.5185   29.5956 H   0  0  0  0  0  0
    2.5531   54.5210   25.5520 H   0  0  0  0  0  0
    1.5696   51.6964   25.8127 H   0  0  0  0  0  0
   -0.9448   51.6549   24.6043 H   0  0  0  0  0  0
   -1.1482   50.4713   23.3177 H   0  0  0  0  0  0
    0.1822   48.7834   24.6613 H   0  0  0  0  0  0
    0.3869   49.9238   25.9257 H   0  0  0  0  0  0
   -1.4039   48.8980   26.5691 H   0  0  0  0  0  0
    2.9589   52.9835   19.9312 H   0  0  0  0  0  0
    4.3784   53.3290   17.9864 H   0  0  0  0  0  0
    7.2200   55.4408   20.4269 H   0  0  0  0  0  0
    5.8607   55.0021   22.3968 H   0  0  0  0  0  0
    6.7669   57.6514   16.5428 H   0  0  0  0  0  0
    5.7484   57.0750   17.8728 H   0  0  0  0  0  0
    6.2301   59.2969   18.3514 H   0  0  0  0  0  0
    7.1881   58.4048   19.4758 H   0  0  0  0  0  0
    8.2229   59.5981   16.8354 H   0  0  0  0  0  0
    8.3009   60.4338   18.3502 H   0  0  0  0  0  0
    9.9036   58.8739   19.2817 H   0  0  0  0  0  0
   10.4670   59.4549   17.7504 H   0  0  0  0  0  0
   10.9649   57.1135   17.9617 H   0  0  0  0  0  0
    9.8356   57.3040   16.6526 H   0  0  0  0  0  0
    8.9319   56.5274   19.4899 H   0  0  0  0  0  0
    9.5163   55.3732   18.3132 H   0  0  0  0  0  0
  1  6  2  0  0  0
  1  2  1  0  0  0
  1 38  1  0  0  0
  2  3  2  0  0  0
  2 39  1  0  0  0
  3  4  1  0  0  0
  3 40  1  0  0  0
  4  5  2  0  0  0
  4  7  1  0  0  0
  5  6  1  0  0  0
  5 41  1  0  0  0
  6 42  1  0  0  0
  7  8  2  0  0  0
  7 43  1  0  0  0
  8  9  1  0  0  0
  8 44  1  0  0  0
  9 10  1  0  0  0
  9 15  1  0  0  0
  9 11  1  0  0  0
 11 12  2  0  0  0
 11 20  1  0  0  0
 12 13  1  0  0  0
 12 19  1  0  0  0
 13 14  2  0  0  0
 13 15  1  0  0  0
 15 16  1  0  0  0
 16 17  1  0  0  0
 16 45  1  0  0  0
 16 46  1  0  0  0
 17 18  1  0  0  0
 17 47  1  0  0  0
 17 48  1  0  0  0
 18 49  1  0  0  0
 20 21  2  0  0  0
 20 22  1  0  0  0
 22 27  2  0  0  0
 22 23  1  0  0  0
 23 24  2  0  0  0
 23 50  1  0  0  0
 24 25  1  0  0  0
 24 51  1  0  0  0
 25 26  2  0  0  0
 25 28  1  0  0  0
 26 27  1  0  0  0
 26 52  1  0  0  0
 27 53  1  0  0  0
 28 29  2  0  0  0
 28 30  2  0  0  0
 28 31  1  0  0  0
 31 37  1  0  0  0
 31 32  1  0  0  0
 32 33  1  0  0  0
 32 54  1  0  0  0
 32 55  1  0  0  0
 33 34  1  0  0  0
 33 56  1  0  0  0
 33 57  1  0  0  0
 34 35  1  0  0  0
 34 58  1  0  0  0
 34 59  1  0  0  0
 35 36  1  0  0  0
 35 60  1  0  0  0
 35 61  1  0  0  0
 36 37  1  0  0  0
 36 62  1  0  0  0
 36 63  1  0  0  0
 37 64  1  0  0  0
 37 65  1  0  0  0
M  CHG  1  19  -1
M  END
> <i_i_glide_confnum>
684

> <i_i_glide_lignum>
4649

> <i_i_glide_posenum>
397

> <i_i_glide_rotatable_bonds>
9

> <i_m_Source_File_Index>
5279

> <b_m_subgroup_collapsed>
0

> <r_i_docking_score>
-4.24382

> <r_i_glide_ecoul>
-3.39923

> <r_i_glide_eff_state_penalty>
0

> <r_i_glide_einternal>
7.04251

> <r_i_glide_emodel>
-53.2781

> <r_i_glide_energy>
-44.4671

> <r_i_glide_erotb>
0.630942

> <r_i_glide_esite>
-0.00142026

> <r_i_glide_evdw>
-41.0679

> <r_i_glide_gscore>
-4.24382

> <r_i_glide_hbond>
-0.16

> <r_i_glide_ligand_efficiency>
-0.117884

> <r_i_glide_ligand_efficiency_ln>
-0.925886

> <r_i_glide_ligand_efficiency_sa>
-0.389244

> <r_i_glide_lipo>
-2.12076

> <r_i_glide_metal>
0

> <r_i_glide_rewards>
-0.029295

> <s_i_glide_gridfile>
wee1_glide-grid

> <s_m_Source_File>
wee1_decoys_glide_SP.sdf

> <s_m_Source_Path>
/Users/zhangxujun/Desktop

> <s_m_entry_id>
5554

> <s_m_entry_name>
wee1_decoys_glide_SP.5279

> <s_m_subgroup_title>
wee1_decoys_glide_SP

> <s_m_subgroupid>
wee1_decoys_glide_SP


$$$$
