ZINC04964123_4108
                    3D
 Schrodinger Suite 2024-2.
 71 74  0  0  1  0            999 V2000
   -2.8542   49.1615   18.6885 C   0  0  0  0  0  0
   -2.2195   49.8595   19.9152 C   0  0  1  0  0  0
   -1.7895   50.7697   19.5008 H   0  0  0  0  0  0
   -3.2878   50.2823   20.9603 C   0  0  0  0  0  0
   -2.6248   50.0621   22.3272 C   0  0  1  0  0  0
   -1.9102   50.8697   22.4404 H   0  0  0  0  0  0
   -3.4816   50.0848   23.6417 C   0  0  2  0  0  0
   -4.2613   49.3332   23.5135 H   0  0  0  0  0  0
   -4.2175   51.4204   23.8453 C   0  0  0  0  0  0
   -3.2418   52.6063   24.0570 C   0  0  1  0  0  0
   -3.7334   53.3923   24.6300 H   0  0  0  0  0  0
   -1.9408   52.1802   24.7532 C   0  0  0  0  0  0
   -0.7533   52.7915   24.4967 C   0  0  0  0  0  0
    0.5156   52.4965   25.1543 C   0  0  0  0  0  0
    1.5607   53.0880   24.8929 O   0  0  0  0  0  0
    0.4020   51.4740   26.1834 C   0  0  0  0  0  0
   -0.7351   50.8048   26.4570 C   0  0  0  0  0  0
   -2.0915   51.0007   25.7517 C   0  0  2  0  0  0
   -2.6801   49.7141   24.9644 C   0  0  2  0  0  0
   -1.7167   48.5033   24.6604 C   0  0  1  0  0  0
   -2.3459   47.6229   24.5526 H   0  0  0  0  0  0
   -0.8812   48.6829   23.3730 C   0  0  0  0  0  0
   -1.7983   48.7759   22.1219 C   0  0  2  0  0  0
   -1.1231   49.0326   20.7054 C   0  0  2  0  0  0
    0.2402   49.8334   20.7622 C   0  0  0  0  0  0
    1.3089   49.2803   20.4782 O   0  0  0  0  0  0
    0.2495   51.3366   21.1521 C   0  0  0  0  0  0
    1.4035   52.0310   20.6585 O   0  0  0  0  0  0
    2.5772   52.0449   21.3503 C   0  0  0  0  0  0
    2.7041   51.5770   22.4817 O   0  0  0  0  0  0
    3.7927   52.6738   20.6043 C   0  0  0  0  0  0
    3.5096   52.9003   19.0928 C   0  0  0  0  0  0
    4.9879   51.6964   20.7301 C   0  0  0  0  0  0
    4.2037   54.0138   21.2633 C   0  0  0  0  0  0
   -0.7874   47.7984   20.0617 O   0  0  0  0  0  0
   -2.7072   47.4945   22.0256 C   0  0  0  0  0  0
   -0.8571   48.0971   25.6817 O   0  0  0  0  0  0
   -3.5951   49.1765   25.7812 F   0  0  0  0  0  0
   -3.0155   51.4902   26.9052 C   0  0  0  0  0  0
   -2.8955   53.1138   22.8817 F   0  0  0  0  0  0
   -3.3521   48.2300   18.9561 H   0  0  0  0  0  0
   -3.5968   49.8025   18.2128 H   0  0  0  0  0  0
   -2.1011   48.9294   17.9353 H   0  0  0  0  0  0
   -3.6622   51.2965   20.8325 H   0  0  0  0  0  0
   -4.1475   49.6099   20.9127 H   0  0  0  0  0  0
   -4.8511   51.6279   22.9863 H   0  0  0  0  0  0
   -4.9090   51.3346   24.6827 H   0  0  0  0  0  0
   -0.7441   53.6007   23.7821 H   0  0  0  0  0  0
    1.2694   51.2495   26.7845 H   0  0  0  0  0  0
   -0.6848   50.0970   27.2774 H   0  0  0  0  0  0
   -0.1925   47.8451   23.2761 H   0  0  0  0  0  0
   -0.2457   49.5627   23.4826 H   0  0  0  0  0  0
    0.2198   51.4143   22.2384 H   0  0  0  0  0  0
   -0.6308   51.8651   20.7942 H   0  0  0  0  0  0
    4.3935   53.2793   18.5774 H   0  0  0  0  0  0
    2.7107   53.6235   18.9213 H   0  0  0  0  0  0
    3.2328   51.9713   18.5889 H   0  0  0  0  0  0
    5.3796   51.6574   21.7474 H   0  0  0  0  0  0
    4.7076   50.6814   20.4489 H   0  0  0  0  0  0
    5.8153   51.9922   20.0813 H   0  0  0  0  0  0
    4.2820   53.9350   22.3507 H   0  0  0  0  0  0
    5.1748   54.3497   20.8951 H   0  0  0  0  0  0
    3.5048   54.8162   21.0428 H   0  0  0  0  0  0
   -0.0397   47.9692   19.4785 H   0  0  0  0  0  0
   -3.4867   47.4335   22.7821 H   0  0  0  0  0  0
   -3.2300   47.4262   21.0740 H   0  0  0  0  0  0
   -2.1089   46.5852   22.1074 H   0  0  0  0  0  0
   -1.2955   48.0968   26.5531 H   0  0  0  0  0  0
   -2.6795   52.4544   27.2830 H   0  0  0  0  0  0
   -4.0534   51.6200   26.6157 H   0  0  0  0  0  0
   -3.0201   50.7893   27.7431 H   0  0  0  0  0  0
  1  2  1  0  0  0
  1 41  1  0  0  0
  1 42  1  0  0  0
  1 43  1  0  0  0
  2  3  1  0  0  0
  2 24  1  0  0  0
  2  4  1  0  0  0
  4  5  1  0  0  0
  4 44  1  0  0  0
  4 45  1  0  0  0
  5  6  1  0  0  0
  5 23  1  0  0  0
  5  7  1  0  0  0
  7  8  1  0  0  0
  7 19  1  0  0  0
  7  9  1  0  0  0
  9 10  1  0  0  0
  9 46  1  0  0  0
  9 47  1  0  0  0
 10 11  1  0  0  0
 10 12  1  0  0  0
 10 40  1  0  0  0
 12 18  1  0  0  0
 12 13  2  0  0  0
 13 14  1  0  0  0
 13 48  1  0  0  0
 14 15  2  0  0  0
 14 16  1  0  0  0
 16 17  2  0  0  0
 16 49  1  0  0  0
 17 18  1  0  0  0
 17 50  1  0  0  0
 18 19  1  0  0  0
 18 39  1  0  0  0
 19 20  1  0  0  0
 19 38  1  0  0  0
 20 21  1  0  0  0
 20 22  1  0  0  0
 20 37  1  0  0  0
 22 23  1  0  0  0
 22 51  1  0  0  0
 22 52  1  0  0  0
 23 24  1  0  0  0
 23 36  1  0  0  0
 24 25  1  0  0  0
 24 35  1  0  0  0
 25 26  2  0  0  0
 25 27  1  0  0  0
 27 28  1  0  0  0
 27 53  1  0  0  0
 27 54  1  0  0  0
 28 29  1  0  0  0
 29 30  2  0  0  0
 29 31  1  0  0  0
 31 32  1  0  0  0
 31 33  1  0  0  0
 31 34  1  0  0  0
 32 55  1  0  0  0
 32 56  1  0  0  0
 32 57  1  0  0  0
 33 58  1  0  0  0
 33 59  1  0  0  0
 33 60  1  0  0  0
 34 61  1  0  0  0
 34 62  1  0  0  0
 34 63  1  0  0  0
 35 64  1  0  0  0
 36 65  1  0  0  0
 36 66  1  0  0  0
 36 67  1  0  0  0
 37 68  1  0  0  0
 39 69  1  0  0  0
 39 70  1  0  0  0
 39 71  1  0  0  0
M  END
> <i_i_glide_confnum>
31

> <i_i_glide_lignum>
4109

> <i_i_glide_posenum>
23

> <i_i_glide_rotatable_bonds>
7

> <i_m_Source_File_Index>
4717

> <b_m_subgroup_collapsed>
0

> <r_i_docking_score>
-2.02909

> <r_i_glide_ecoul>
-2.94803

> <r_i_glide_eff_state_penalty>
0

> <r_i_glide_einternal>
4.49981

> <r_i_glide_emodel>
-27.3524

> <r_i_glide_energy>
-25.8991

> <r_i_glide_erotb>
0.333272

> <r_i_glide_esite>
-0.0499286

> <r_i_glide_evdw>
-22.951

> <r_i_glide_gscore>
-2.02909

> <r_i_glide_hbond>
-0.16

> <r_i_glide_ligand_efficiency>
-0.0579741

> <r_i_glide_ligand_efficiency_ln>
-0.445431

> <r_i_glide_ligand_efficiency_sa>
-0.189637

> <r_i_glide_lipo>
-0.276235

> <r_i_glide_metal>
0

> <r_i_glide_rewards>
-0.286446

> <s_i_glide_gridfile>
wee1_glide-grid

> <s_m_Source_File>
wee1_decoys_glide_SP.sdf

> <s_m_Source_Path>
/Users/zhangxujun/Desktop

> <s_m_entry_id>
4992

> <s_m_entry_name>
wee1_decoys_glide_SP.4717

> <s_m_subgroup_title>
wee1_decoys_glide_SP

> <s_m_subgroupid>
wee1_decoys_glide_SP


$$$$
