@<TRIPOS>MOLECULE
ZINC33253838_5672
57   60    1
SMALL
USER_CHARGES


@<TRIPOS>ATOM
      1 C1          3.5042   52.1074   30.9339 C.ar      1 UNK         0.0000 
      2 C2          3.7399   52.3658   29.5861 C.ar      1 UNK         0.0000 
      3 C3          2.6646   52.5871   28.7288 C.ar      1 UNK         0.0000 
      4 C4          1.3563   52.5470   29.2220 C.ar      1 UNK         0.0000 
      5 C5          1.1290   52.3257   30.5815 C.ar      1 UNK         0.0000 
      6 C6          2.2037   52.0967   31.4348 C.ar      1 UNK         0.0000 
      7 C7          0.1733   52.7480   28.2830 C.3       1 UNK         0.0000 
      8 C8         -0.3573   51.4516   27.6148 C.3       1 UNK         0.0000 
      9 C9          0.7045   50.7579   26.7321 C.3       1 UNK         0.0000 
     10 C10         0.1957   49.5448   25.9326 C.3       1 UNK         0.0000 
     11 N11        -1.0608   49.9572   25.1393 N.4       1 UNK         0.0000 
     12 C12        -2.1770   50.4749   26.0756 C.3       1 UNK         0.0000 
     13 C13        -1.6520   51.7153   26.8156 C.3       1 UNK         0.0000 
     14 C14        -1.4946   48.9027   24.1845 C.ar      1 UNK         0.0000 
     15 C15        -2.0923   47.7498   24.7008 C.ar      1 UNK         0.0000 
     16 C16        -2.3956   46.7004   23.8401 C.ar      1 UNK         0.0000 
     17 C17        -2.0945   46.7804   22.4726 C.ar      1 UNK         0.0000 
     18 C18        -1.5145   47.9613   21.9872 C.ar      1 UNK         0.0000 
     19 C19        -1.2051   49.0460   22.8115 C.ar      1 UNK         0.0000 
     20 N20        -0.5500   50.0855   22.2035 N.2       1 UNK         0.0000 
     21 S21        -1.0102   51.5812   22.2219 S.o2      1 UNK         0.0000 
     22 O22        -1.8070   51.9635   23.3922 O.2       1 UNK         0.0000 
     23 O23        -1.4634   52.0969   20.9261 O.2       1 UNK         0.0000 
     24 C24         0.5971   52.3388   22.4934 C.ar      1 UNK         0.0000 
     25 C25         0.8823   52.9787   23.7056 C.ar      1 UNK         0.0000 
     26 C26         2.1381   53.5392   23.9289 C.ar      1 UNK         0.0000 
     27 C27         3.1050   53.5063   22.9259 C.ar      1 UNK         0.0000 
     28 C28         2.8195   52.8967   21.7045 C.ar      1 UNK         0.0000 
     29 C29         1.5701   52.3149   21.4837 C.ar      1 UNK         0.0000 
     30 F30         1.3231   51.7291   20.2899 F         1 UNK         0.0000 
     31 F31         2.4225   54.0964   25.1259 F         1 UNK         0.0000 
     32 C32        -2.3368   45.6164   21.5573 C.2       1 UNK         0.0000 
     33 O33        -2.4961   44.4895   22.0817 O.co2     1 UNK         0.0000 
     34 O34        -2.3392   45.8208   20.3223 O.co2     1 UNK         0.0000 
     35 H35         4.3361   51.9285   31.5996 H         1 UNK         0.0000 
     36 H36         4.7505   52.3830   29.2035 H         1 UNK         0.0000 
     37 H37         2.8490   52.7720   27.6798 H         1 UNK         0.0000 
     38 H38         0.1219   52.2968   30.9767 H         1 UNK         0.0000 
     39 H39         2.0226   51.9032   32.4817 H         1 UNK         0.0000 
     40 H40         0.4568   53.4742   27.5201 H         1 UNK         0.0000 
     41 H41        -0.6239   53.2300   28.8482 H         1 UNK         0.0000 
     42 H42        -0.6300   50.7339   28.3910 H         1 UNK         0.0000 
     43 H43         1.5484   50.4622   27.3500 H         1 UNK         0.0000 
     44 H44         1.1038   51.4811   26.0228 H         1 UNK         0.0000 
     45 H45        -0.0950   48.7021   26.5623 H         1 UNK         0.0000 
     46 H46         0.9338   49.2024   25.2040 H         1 UNK         0.0000 
     47 H47        -3.0308   50.7133   25.4392 H         1 UNK         0.0000 
     48 H48        -2.4523   49.6728   26.7614 H         1 UNK         0.0000 
     49 H49        -1.4822   52.5092   26.0878 H         1 UNK         0.0000 
     50 H50        -2.4259   52.0970   27.4804 H         1 UNK         0.0000 
     51 H51        -2.2903   47.6442   25.7585 H         1 UNK         0.0000 
     52 H52        -2.8459   45.8108   24.2518 H         1 UNK         0.0000 
     53 H53        -1.2662   48.0315   20.9365 H         1 UNK         0.0000 
     54 H54         0.1442   53.0304   24.4905 H         1 UNK         0.0000 
     55 H55         4.0757   53.9466   23.0976 H         1 UNK         0.0000 
     56 H56         3.5641   52.8728   20.9225 H         1 UNK         0.0000 
     57 H57        -0.8183   50.7413   24.5451 H         1 UNK         0.0000 
@<TRIPOS>BOND
     1    1    6 ar   
     2    1    2 ar   
     3    1   35 1    
     4    2    3 ar   
     5    2   36 1    
     6    3    4 ar   
     7    3   37 1    
     8    4    5 ar   
     9    4    7 1    
    10    5    6 ar   
    11    5   38 1    
    12    6   39 1    
    13    7    8 1    
    14    7   40 1    
    15    7   41 1    
    16    8   13 1    
    17    8    9 1    
    18    8   42 1    
    19    9   10 1    
    20    9   43 1    
    21    9   44 1    
    22   10   11 1    
    23   10   45 1    
    24   10   46 1    
    25   11   12 1    
    26   11   14 1    
    27   11   57 1    
    28   12   13 1    
    29   12   47 1    
    30   12   48 1    
    31   13   49 1    
    32   13   50 1    
    33   14   19 ar   
    34   14   15 ar   
    35   15   16 ar   
    36   15   51 1    
    37   16   17 ar   
    38   16   52 1    
    39   17   18 ar   
    40   17   32 1    
    41   18   19 ar   
    42   18   53 1    
    43   19   20 1    
    44   20   21 1    
    45   21   22 2    
    46   21   23 2    
    47   21   24 1    
    48   24   29 ar   
    49   24   25 ar   
    50   25   26 ar   
    51   25   54 1    
    52   26   27 ar   
    53   26   31 1    
    54   27   28 ar   
    55   27   55 1    
    56   28   29 ar   
    57   28   56 1    
    58   29   30 1    
    59   32   33 2    
    60   32   34 1    
@<TRIPOS>SUBSTRUCTURE
     1 UNK         1 GROUP             0       ****    0 ROOT    
