@<TRIPOS>MOLECULE
ZINC00719918_5440
80   86    1
SMALL
USER_CHARGES


@<TRIPOS>ATOM
      1 C1         -3.1617   54.9168   15.9090 C.3       1 UNK         0.0000 
      2 O2         -2.8941   54.6488   17.2805 O.3       1 UNK         0.0000 
      3 C3         -1.8469   53.7866   17.4948 C.ar      1 UNK         0.0000 
      4 C4         -2.1366   52.4675   17.8383 C.ar      1 UNK         0.0000 
      5 C5         -1.1075   51.5638   18.0879 C.ar      1 UNK         0.0000 
      6 C6          0.2323   51.9690   18.0324 C.ar      1 UNK         0.0000 
      7 C7          0.5113   53.2982   17.6781 C.ar      1 UNK         0.0000 
      8 C8         -0.5162   54.2184   17.4038 C.ar      1 UNK         0.0000 
      9 O9         -0.2997   55.5427   17.0660 O.3       1 UNK         0.0000 
     10 C10         1.0267   55.9939   16.8107 C.3       1 UNK         0.0000 
     11 C11         1.3622   50.9484   18.2957 C.3       1 UNK         0.0000 
     12 H12         1.4075   50.3518   17.3818 H         1 UNK         0.0000 
     13 C13         1.0944   50.0020   19.4978 C.3       1 UNK         0.0000 
     14 C14         1.0829   50.7550   20.8567 C.3       1 UNK         0.0000 
     15 H15         0.2048   51.4024   20.8770 H         1 UNK         0.0000 
     16 N16         2.2620   51.6407   20.8570 N.pl3     1 UNK         0.0000 
     17 C17         2.9626   52.0630   19.7433 C.ar      1 UNK         0.0000 
     18 C18         3.9427   52.9025   20.2313 C.ar      1 UNK         0.0000 
     19 C19         3.7191   53.0311   21.6159 C.ar      1 UNK         0.0000 
     20 N20         2.7044   52.2592   21.9635 N.2       1 UNK         0.0000 
     21 C21         4.5779   53.7824   22.5273 C.2       1 UNK         0.0000 
     22 O22         5.7297   54.0503   22.1752 O.2       1 UNK         0.0000 
     23 N23         4.1114   54.1201   23.7677 N.am      1 UNK         0.0000 
     24 C24         5.0261   54.6302   24.8117 C.3       1 UNK         0.0000 
     25 C25         4.7590   53.9000   26.1578 C.3       1 UNK         0.0000 
     26 N26         3.2487   53.8159   26.5329 N.4       1 UNK         0.0000 
     27 C27         2.4394   53.3258   25.2992 C.3       1 UNK         0.0000 
     28 C28         2.6938   54.2656   24.1184 C.3       1 UNK         0.0000 
     29 C29         3.0717   52.9268   27.8099 C.3       1 UNK         0.0000 
     30 C30         1.6165   52.3760   27.9692 C.3       1 UNK         0.0000 
     31 C31         1.5962   51.3836   29.1564 C.3       1 UNK         0.0000 
     32 C32         2.0005   52.1178   30.4653 C.3       1 UNK         0.0000 
     33 C33         0.9665   53.2450   30.7234 C.3       1 UNK         0.0000 
     34 C34         1.0114   54.2661   29.5593 C.3       1 UNK         0.0000 
     35 C35         0.6329   53.5438   28.2473 C.3       1 UNK         0.0000 
     36 C36         2.4380   54.8556   29.4013 C.3       1 UNK         0.0000 
     37 C37         3.4557   53.7142   29.1087 C.3       1 UNK         0.0000 
     38 C38         3.4304   52.7079   30.2967 C.3       1 UNK         0.0000 
     39 N39         2.7060   51.5150   18.4977 N.pl3     1 UNK         0.0000 
     40 C40         0.9818   49.8091   22.0780 C.3       1 UNK         0.0000 
     41 F41        -0.0762   49.0051   21.9767 F         1 UNK         0.0000 
     42 F42         2.0576   49.0293   22.1660 F         1 UNK         0.0000 
     43 F43         0.8602   50.4731   23.2293 F         1 UNK         0.0000 
     44 H44        -4.0179   55.5868   15.8323 H         1 UNK         0.0000 
     45 H45        -2.3182   55.4009   15.4149 H         1 UNK         0.0000 
     46 H46        -3.4073   54.0022   15.3653 H         1 UNK         0.0000 
     47 H47        -3.1638   52.1413   17.8947 H         1 UNK         0.0000 
     48 H48        -1.3696   50.5435   18.3213 H         1 UNK         0.0000 
     49 H49         1.5409   53.6142   17.6187 H         1 UNK         0.0000 
     50 H50         1.0039   57.0525   16.5515 H         1 UNK         0.0000 
     51 H51         1.6722   55.8878   17.6811 H         1 UNK         0.0000 
     52 H52         1.4725   55.4571   15.9734 H         1 UNK         0.0000 
     53 H53         1.8581   49.2204   19.5224 H         1 UNK         0.0000 
     54 H54         0.1702   49.4409   19.3714 H         1 UNK         0.0000 
     55 H55         4.7271   53.3670   19.6519 H         1 UNK         0.0000 
     56 H56         4.8860   55.6987   24.9499 H         1 UNK         0.0000 
     57 H57         6.0712   54.4817   24.5312 H         1 UNK         0.0000 
     58 H58         5.2313   54.4659   26.9596 H         1 UNK         0.0000 
     59 H59         5.1844   52.8968   26.1579 H         1 UNK         0.0000 
     60 H60         2.7035   52.2920   25.0795 H         1 UNK         0.0000 
     61 H61         1.3787   53.3860   25.5344 H         1 UNK         0.0000 
     62 H62         1.9988   54.1244   23.2920 H         1 UNK         0.0000 
     63 H63         2.5208   55.2986   24.4099 H         1 UNK         0.0000 
     64 H64         3.7587   52.0969   27.6812 H         1 UNK         0.0000 
     65 H65         1.3041   51.8151   27.0880 H         1 UNK         0.0000 
     66 H66         2.2733   50.5583   28.9288 H         1 UNK         0.0000 
     67 H67         0.6031   50.9416   29.2635 H         1 UNK         0.0000 
     68 H68         1.9776   51.4371   31.3161 H         1 UNK         0.0000 
     69 H69         1.1315   53.7342   31.6803 H         1 UNK         0.0000 
     70 H70        -0.0343   52.8145   30.8051 H         1 UNK         0.0000 
     71 H71         0.3049   55.0713   29.7595 H         1 UNK         0.0000 
     72 H72        -0.3974   53.1871   28.2799 H         1 UNK         0.0000 
     73 H73         0.7045   54.2659   27.4427 H         1 UNK         0.0000 
     74 H74         2.4551   55.6007   28.6041 H         1 UNK         0.0000 
     75 H75         2.7045   55.3951   30.3083 H         1 UNK         0.0000 
     76 H76         4.4591   54.1320   29.0288 H         1 UNK         0.0000 
     77 H77         3.7670   53.1831   31.2170 H         1 UNK         0.0000 
     78 H78         4.1470   51.9038   30.1199 H         1 UNK         0.0000 
     79 H79         3.4418   50.9662   18.0571 H         1 UNK         0.0000 
     80 H80         2.9229   54.7496   26.7378 H         1 UNK         0.0000 
@<TRIPOS>BOND
     1    1    2 1    
     2    1   44 1    
     3    1   45 1    
     4    1   46 1    
     5    2    3 1    
     6    3    8 ar   
     7    3    4 ar   
     8    4    5 ar   
     9    4   47 1    
    10    5    6 ar   
    11    5   48 1    
    12    6    7 ar   
    13    6   11 1    
    14    7    8 ar   
    15    7   49 1    
    16    8    9 1    
    17    9   10 1    
    18   10   50 1    
    19   10   51 1    
    20   10   52 1    
    21   11   12 1    
    22   11   39 1    
    23   11   13 1    
    24   13   14 1    
    25   13   53 1    
    26   13   54 1    
    27   14   15 1    
    28   14   16 1    
    29   14   40 1    
    30   16   20 ar   
    31   16   17 ar   
    32   17   18 ar   
    33   17   39 1    
    34   18   19 ar   
    35   18   55 1    
    36   19   20 ar   
    37   19   21 1    
    38   21   22 2    
    39   21   23 am   BACKBONE|DICT|INTERRES
    40   23   28 1    
    41   23   24 1    
    42   24   25 1    
    43   24   56 1    
    44   24   57 1    
    45   25   26 1    
    46   25   58 1    
    47   25   59 1    
    48   26   27 1    
    49   26   29 1    
    50   26   80 1    
    51   27   28 1    
    52   27   60 1    
    53   27   61 1    
    54   28   62 1    
    55   28   63 1    
    56   29   37 1    
    57   29   30 1    
    58   29   64 1    
    59   30   35 1    
    60   30   31 1    
    61   30   65 1    
    62   31   32 1    
    63   31   66 1    
    64   31   67 1    
    65   32   38 1    
    66   32   33 1    
    67   32   68 1    
    68   33   34 1    
    69   33   69 1    
    70   33   70 1    
    71   34   35 1    
    72   34   36 1    
    73   34   71 1    
    74   35   72 1    
    75   35   73 1    
    76   36   37 1    
    77   36   74 1    
    78   36   75 1    
    79   37   38 1    
    80   37   76 1    
    81   38   77 1    
    82   38   78 1    
    83   39   79 1    
    84   40   41 1    
    85   40   42 1    
    86   40   43 1    
@<TRIPOS>SUBSTRUCTURE
     1 UNK         1 GROUP             0       ****    0 ROOT    
