ZINC01422403_5504
                    3D
 Schrodinger Suite 2024-2.
 66 70  0  0  1  0            999 V2000
    1.0765   55.0352   29.9899 C   0  0  0  0  0  0
    1.2003   54.4157   28.7198 O   0  0  0  0  0  0
    1.6630   53.1447   28.6162 C   0  0  0  0  0  0
    1.9801   52.4164   29.5598 O   0  0  0  0  0  0
    1.8493   52.6710   27.1547 C   0  0  2  0  0  0
    2.3307   51.6993   27.2058 H   0  0  0  0  0  0
    2.7292   53.6611   26.3369 C   0  0  2  0  0  0
    2.2512   54.6233   26.3655 H   0  0  0  0  0  0
    2.8063   53.2900   24.8529 C   0  0  0  0  0  0
    1.5430   52.7672   24.1828 C   0  0  0  0  0  0
    0.4798   52.3496   24.9298 C   0  0  0  0  0  0
    0.4879   52.4335   26.4262 C   0  0  0  0  0  0
   -0.5867   52.4764   27.0321 O   0  0  0  0  0  0
   -0.8315   51.8404   24.2591 C   0  0  1  0  0  0
   -1.5767   52.5862   24.5434 H   0  0  0  0  0  0
   -0.7084   51.8588   22.7128 C   0  0  0  0  0  0
    0.3888   52.3334   22.0682 C   0  0  0  0  0  0
    1.5405   52.7376   22.7669 N   0  0  0  0  0  0
    2.7671   52.9075   22.0397 C   0  0  0  0  0  0
    3.4140   54.1517   21.9673 C   0  0  0  0  0  0
    4.5631   54.3322   21.2021 C   0  0  0  0  0  0
    5.0310   53.2851   20.4223 C   0  0  0  0  0  0
    4.3820   52.0574   20.4426 C   0  0  0  0  0  0
    3.2896   51.8488   21.2819 C   0  0  0  0  0  0
    0.4507   52.4877   20.6908 N   0  0  0  0  0  0
   -1.8704   51.3756   21.9319 C   0  0  0  0  0  0
   -2.4935   52.0962   21.1505 O   0  0  0  0  0  0
   -2.1009   50.0554   22.0855 O   0  0  0  0  0  0
   -3.1775   49.4203   21.4121 C   0  0  0  0  0  0
   -1.4047   50.5320   24.8352 C   0  0  0  0  0  0
   -0.5924   49.3930   24.8883 C   0  0  0  0  0  0
   -1.1250   48.1675   25.2826 C   0  0  0  0  0  0
   -2.4636   48.0691   25.6602 C   0  0  0  0  0  0
   -3.2735   49.2036   25.6384 C   0  0  0  0  0  0
   -2.7533   50.4281   25.2170 C   0  0  0  0  0  0
   -3.5727   51.5038   25.1591 F   0  0  0  0  0  0
    4.1725   53.9789   26.7899 C   0  0  0  0  0  0
    4.8964   54.9590   26.0894 C   0  0  0  0  0  0
    6.2327   55.2068   26.3693 C   0  0  0  0  0  0
    6.8561   54.4907   27.3811 C   0  0  0  0  0  0
    6.1522   53.5372   28.1031 C   0  0  0  0  0  0
    4.8165   53.2799   27.8138 C   0  0  0  0  0  0
    0.7042   56.0527   29.8739 H   0  0  0  0  0  0
    0.3864   54.4871   30.6332 H   0  0  0  0  0  0
    2.0476   55.0906   30.4831 H   0  0  0  0  0  0
    3.5051   52.4970   24.6957 H   0  0  0  0  0  0
    3.1447   54.1893   24.3669 H   0  0  0  0  0  0
    3.0009   55.0102   22.4707 H   0  0  0  0  0  0
    5.0484   55.2961   21.1606 H   0  0  0  0  0  0
    5.8757   53.4359   19.7656 H   0  0  0  0  0  0
    4.6983   51.2978   19.7446 H   0  0  0  0  0  0
    2.7923   50.8892   21.2741 H   0  0  0  0  0  0
   -0.3263   52.2152   20.1070 H   0  0  0  0  0  0
    1.1849   53.0416   20.2687 H   0  0  0  0  0  0
   -3.2159   48.3663   21.6890 H   0  0  0  0  0  0
   -4.1321   49.8760   21.6839 H   0  0  0  0  0  0
   -3.0554   49.4845   20.3296 H   0  0  0  0  0  0
    0.4442   49.4479   24.5876 H   0  0  0  0  0  0
   -0.4885   47.2979   25.3066 H   0  0  0  0  0  0
   -2.8622   47.1246   25.9976 H   0  0  0  0  0  0
   -4.3071   49.1352   25.9403 H   0  0  0  0  0  0
    4.4318   55.5490   25.3166 H   0  0  0  0  0  0
    6.7577   55.9685   25.8142 H   0  0  0  0  0  0
    7.8869   54.6859   27.6427 H   0  0  0  0  0  0
    6.6507   52.9914   28.8818 H   0  0  0  0  0  0
    4.3162   52.4972   28.3616 H   0  0  0  0  0  0
  1  2  1  0  0  0
  1 43  1  0  0  0
  1 44  1  0  0  0
  1 45  1  0  0  0
  2  3  1  0  0  0
  3  4  2  0  0  0
  3  5  1  0  0  0
  5  6  1  0  0  0
  5 12  1  0  0  0
  5  7  1  0  0  0
  7  8  1  0  0  0
  7  9  1  0  0  0
  7 37  1  0  0  0
  9 10  1  0  0  0
  9 46  1  0  0  0
  9 47  1  0  0  0
 10 18  1  0  0  0
 10 11  2  0  0  0
 11 12  1  0  0  0
 11 14  1  0  0  0
 12 13  2  0  0  0
 14 15  1  0  0  0
 14 16  1  0  0  0
 14 30  1  0  0  0
 16 17  2  0  0  0
 16 26  1  0  0  0
 17 18  1  0  0  0
 17 25  1  0  0  0
 18 19  1  0  0  0
 19 24  2  0  0  0
 19 20  1  0  0  0
 20 21  2  0  0  0
 20 48  1  0  0  0
 21 22  1  0  0  0
 21 49  1  0  0  0
 22 23  2  0  0  0
 22 50  1  0  0  0
 23 24  1  0  0  0
 23 51  1  0  0  0
 24 52  1  0  0  0
 25 53  1  0  0  0
 25 54  1  0  0  0
 26 27  2  0  0  0
 26 28  1  0  0  0
 28 29  1  0  0  0
 29 55  1  0  0  0
 29 56  1  0  0  0
 29 57  1  0  0  0
 30 35  2  0  0  0
 30 31  1  0  0  0
 31 32  2  0  0  0
 31 58  1  0  0  0
 32 33  1  0  0  0
 32 59  1  0  0  0
 33 34  2  0  0  0
 33 60  1  0  0  0
 34 35  1  0  0  0
 34 61  1  0  0  0
 35 36  1  0  0  0
 37 42  2  0  0  0
 37 38  1  0  0  0
 38 39  2  0  0  0
 38 62  1  0  0  0
 39 40  1  0  0  0
 39 63  1  0  0  0
 40 41  2  0  0  0
 40 64  1  0  0  0
 41 42  1  0  0  0
 41 65  1  0  0  0
 42 66  1  0  0  0
M  END
> <i_i_glide_confnum>
31

> <i_i_glide_lignum>
5505

> <i_i_glide_posenum>
77

> <i_i_glide_rotatable_bonds>
7

> <i_m_Source_File_Index>
255

> <b_m_subgroup_collapsed>
0

> <r_i_docking_score>
-5.78644

> <r_i_glide_ecoul>
-4.3376

> <r_i_glide_eff_state_penalty>
0

> <r_i_glide_einternal>
14.8626

> <r_i_glide_emodel>
-48.2906

> <r_i_glide_energy>
-42.3033

> <r_i_glide_erotb>
0.371307

> <r_i_glide_esite>
-0.0415778

> <r_i_glide_evdw>
-37.9657

> <r_i_glide_gscore>
-5.78644

> <r_i_glide_hbond>
-0.281282

> <r_i_glide_ligand_efficiency>
-0.14837

> <r_i_glide_ligand_efficiency_ln>
-1.24078

> <r_i_glide_ligand_efficiency_sa>
-0.503155

> <r_i_glide_lipo>
-2.83457

> <r_i_glide_metal>
0

> <r_i_glide_rewards>
-0.45139

> <s_i_glide_gridfile>
wee1_glide-grid

> <s_m_Source_File>
wee1_decoys_glide_SP.sdf

> <s_m_Source_Path>
/Users/zhangxujun/Desktop

> <s_m_entry_id>
530

> <s_m_entry_name>
wee1_decoys_glide_SP.255

> <s_m_subgroup_title>
wee1_decoys_glide_SP

> <s_m_subgroupid>
wee1_decoys_glide_SP


$$$$
