@<TRIPOS>MOLECULE
ZINC08835235_4472
52   55    1
SMALL
USER_CHARGES


@<TRIPOS>ATOM
      1 C1          0.1046   49.2209   24.7602 C.ar      1 UNK         0.0000 
      2 C2          0.0761   49.7179   26.0609 C.ar      1 UNK         0.0000 
      3 C3          0.3044   51.0736   26.2976 C.ar      1 UNK         0.0000 
      4 C4          0.5271   51.9395   25.2156 C.ar      1 UNK         0.0000 
      5 C5          0.5724   51.4376   23.9179 C.ar      1 UNK         0.0000 
      6 C6          0.3636   50.0763   23.6856 C.ar      1 UNK         0.0000 
      7 C7          0.4126   49.5367   22.2982 C.2       1 UNK         0.0000 
      8 C8         -0.2443   48.4967   21.6554 C.2       1 UNK         0.0000 
      9 C9          0.2444   48.4536   20.3492 C.2       1 UNK         0.0000 
     10 C10         1.1921   49.4607   20.2368 C.2       1 UNK         0.0000 
     11 O11         1.2795   50.1198   21.4243 O.3       1 UNK         0.0000 
     12 C12         2.1106   49.9404   19.1310 C.3       1 UNK         0.0000 
     13 O13         1.9044   49.2228   17.9300 O.3       1 UNK         0.0000 
     14 N14         0.3121   51.5121   27.6396 N.pl3     1 UNK         0.0000 
     15 C15         1.1096   52.4416   28.2490 C.2       1 UNK         0.0000 
     16 S16         0.7408   52.8590   29.8248 S.2       1 UNK         0.0000 
     17 N17         2.1547   52.8982   27.4876 N.am      1 UNK         0.0000 
     18 C18         3.1892   53.7392   27.7093 C.2       1 UNK         0.0000 
     19 O19         3.4774   54.2836   28.7786 O.2       1 UNK         0.0000 
     20 C20         3.9294   53.9429   26.4865 C.2       1 UNK         0.0000 
     21 C21         5.0430   54.6943   26.3992 C.2       1 UNK         0.0000 
     22 C22         5.7690   54.9457   25.1713 C.2       1 UNK         0.0000 
     23 C23         6.8929   55.6967   24.8823 C.2       1 UNK         0.0000 
     24 C24         7.1044   55.6221   23.5073 C.2       1 UNK         0.0000 
     25 C25         6.0768   54.8605   22.9791 C.2       1 UNK         0.0000 
     26 O26         5.2971   54.4239   24.0058 O.3       1 UNK         0.0000 
     27 C27         5.6460   54.4967   21.5944 C.ar      1 UNK         0.0000 
     28 C28         4.9340   53.3006   21.4253 C.ar      1 UNK         0.0000 
     29 C29         4.5009   52.8995   20.1629 C.ar      1 UNK         0.0000 
     30 C30         4.7597   53.6969   19.0515 C.ar      1 UNK         0.0000 
     31 C31         5.4617   54.8899   19.2035 C.ar      1 UNK         0.0000 
     32 C32         5.9043   55.2967   20.4636 C.ar      1 UNK         0.0000 
     33 Cl33        6.7044   56.8277   20.5710 Cl        1 UNK         0.0000 
     34 Cl34        4.1989   53.2172   17.4920 Cl        1 UNK         0.0000 
     35 H35        -0.0501   48.1639   24.5991 H         1 UNK         0.0000 
     36 H36        -0.0956   49.0352   26.8817 H         1 UNK         0.0000 
     37 H37         0.6645   53.0002   25.3653 H         1 UNK         0.0000 
     38 H38         0.7586   52.1092   23.0919 H         1 UNK         0.0000 
     39 H39        -0.9903   47.8459   22.0870 H         1 UNK         0.0000 
     40 H40        -0.0429   47.7650   19.5681 H         1 UNK         0.0000 
     41 H41         1.9855   51.0097   18.9576 H         1 UNK         0.0000 
     42 H42         3.1511   49.8570   19.4440 H         1 UNK         0.0000 
     43 H43         2.7404   49.2785   17.4156 H         1 UNK         0.0000 
     44 H44        -0.3602   51.0485   28.2358 H         1 UNK         0.0000 
     45 H45         2.1700   52.4981   26.5624 H         1 UNK         0.0000 
     46 H46         3.5477   53.4633   25.5940 H         1 UNK         0.0000 
     47 H47         5.4593   55.1768   27.2741 H         1 UNK         0.0000 
     48 H48         7.4763   56.2686   25.5824 H         1 UNK         0.0000 
     49 H49         7.9019   56.0967   22.9534 H         1 UNK         0.0000 
     50 H50         4.7198   52.6662   22.2729 H         1 UNK         0.0000 
     51 H51         3.9645   51.9712   20.0440 H         1 UNK         0.0000 
     52 H52         5.6501   55.5104   18.3394 H         1 UNK         0.0000 
@<TRIPOS>BOND
     1    1    6 ar   
     2    1    2 ar   
     3    1   35 1    
     4    2    3 ar   
     5    2   36 1    
     6    3    4 ar   
     7    3   14 1    
     8    4    5 ar   
     9    4   37 1    
    10    5    6 ar   
    11    5   38 1    
    12    6    7 1    
    13    7   11 1    
    14    7    8 2    
    15    8    9 1    
    16    8   39 1    
    17    9   10 2    
    18    9   40 1    
    19   10   11 1    
    20   10   12 1    
    21   12   13 1    
    22   12   41 1    
    23   12   42 1    
    24   13   43 1    
    25   14   15 1    
    26   14   44 1    
    27   15   16 2    
    28   15   17 am   BACKBONE|DICT|INTERRES
    29   17   18 am   BACKBONE|DICT|INTERRES
    30   17   45 1    
    31   18   19 2    
    32   18   20 1    
    33   20   21 2    
    34   20   46 1    
    35   21   22 1    
    36   21   47 1    
    37   22   26 1    
    38   22   23 2    
    39   23   24 1    
    40   23   48 1    
    41   24   25 2    
    42   24   49 1    
    43   25   26 1    
    44   25   27 1    
    45   27   32 ar   
    46   27   28 ar   
    47   28   29 ar   
    48   28   50 1    
    49   29   30 ar   
    50   29   51 1    
    51   30   31 ar   
    52   30   34 1    
    53   31   32 ar   
    54   31   52 1    
    55   32   33 1    
@<TRIPOS>SUBSTRUCTURE
     1 UNK         1 GROUP             0       ****    0 ROOT    
