@<TRIPOS>MOLECULE
ZINC35455604_3322
54   57    1
SMALL
USER_CHARGES


@<TRIPOS>ATOM
      1 C1          3.5839   54.8432   29.2932 C.3       1 UNK         0.0000 
      2 C2          4.4472   53.9566   28.3793 C.3       1 UNK         0.0000 
      3 C3          4.6054   52.5399   28.9460 C.3       1 UNK         0.0000 
      4 C4          3.9903   53.9173   26.9192 C.ar      1 UNK         0.0000 
      5 C5          2.7522   53.5186   26.3666 C.ar      1 UNK         0.0000 
      6 C6          2.9380   53.7301   25.0010 C.ar      1 UNK         0.0000 
      7 N7          4.2592   54.0968   24.7942 N.pl3     1 UNK         0.0000 
      8 N8          4.8647   54.2359   25.9877 N.2       1 UNK         0.0000 
      9 C9          4.9948   54.3517   23.5837 C.ar      1 UNK         0.0000 
     10 C10         4.4328   54.0963   22.3216 C.ar      1 UNK         0.0000 
     11 C11         5.0939   54.4641   21.1559 C.ar      1 UNK         0.0000 
     12 C12         6.3402   55.0929   21.2143 C.ar      1 UNK         0.0000 
     13 C13         6.9372   55.2886   22.4640 C.ar      1 UNK         0.0000 
     14 C14         6.2937   54.8968   23.6340 C.ar      1 UNK         0.0000 
     15 N15         7.0272   55.5256   19.9730 N.pl3     1 UNK         0.0000 
     16 O16         6.4861   55.3073   18.8947 O.co2     1 UNK         0.0000 
     17 O17         8.1084   56.0969   20.0745 O.co2     1 UNK         0.0000 
     18 O18         2.0741   53.6077   24.0744 O.co2     1 UNK         0.0000 
     19 C19         1.5720   53.0241   27.0814 C.2       1 UNK         0.0000 
     20 C20         0.5248   52.3150   26.6036 C.2       1 UNK         0.0000 
     21 C21        -0.5554   51.8868   27.4327 C.2       1 UNK         0.0000 
     22 O22        -0.7400   52.0963   28.6339 O.2       1 UNK         0.0000 
     23 N23        -1.3451   51.2087   26.5753 N.am      1 UNK         0.0000 
     24 C24        -0.8672   51.1747   25.3104 C.2       1 UNK         0.0000 
     25 O25        -1.3572   50.6420   24.3156 O.2       1 UNK         0.0000 
     26 N26         0.2725   51.8653   25.3723 N.am      1 UNK         0.0000 
     27 C27        -2.6515   50.6459   26.9588 C.3       1 UNK         0.0000 
     28 C28        -3.8632   51.5797   26.8747 C.ar      1 UNK         0.0000 
     29 C29        -3.8660   52.7355   26.0828 C.ar      1 UNK         0.0000 
     30 C30        -4.9777   53.5732   26.0652 C.ar      1 UNK         0.0000 
     31 C31        -6.0950   53.2590   26.8429 C.ar      1 UNK         0.0000 
     32 C32        -6.1073   52.0963   27.6194 C.ar      1 UNK         0.0000 
     33 C33        -4.9896   51.2636   27.6345 C.ar      1 UNK         0.0000 
     34 C34        -7.2423   54.1569   26.8627 C.1       1 UNK         0.0000 
     35 N35        -8.1519   54.8727   26.8810 N.1       1 UNK         0.0000 
     36 H36         3.4954   55.8548   28.9044 H         1 UNK         0.0000 
     37 H37         2.5799   54.4613   29.4536 H         1 UNK         0.0000 
     38 H38         4.0465   54.8962   30.2766 H         1 UNK         0.0000 
     39 H39         5.4462   54.3979   28.4168 H         1 UNK         0.0000 
     40 H40         5.5033   52.0928   28.5222 H         1 UNK         0.0000 
     41 H41         4.7049   52.5378   30.0317 H         1 UNK         0.0000 
     42 H42         3.7490   51.9075   28.7064 H         1 UNK         0.0000 
     43 H43         3.4714   53.6300   22.1912 H         1 UNK         0.0000 
     44 H44         4.6119   54.2758   20.2062 H         1 UNK         0.0000 
     45 H45         7.9045   55.7597   22.5348 H         1 UNK         0.0000 
     46 H46         6.7838   55.0874   24.5758 H         1 UNK         0.0000 
     47 H47         1.5787   53.2488   28.1356 H         1 UNK         0.0000 
     48 H48         0.7907   52.2100   24.5676 H         1 UNK         0.0000 
     49 H49        -2.5807   50.2656   27.9809 H         1 UNK         0.0000 
     50 H50        -2.8548   49.7726   26.3377 H         1 UNK         0.0000 
     51 H51        -3.0108   52.9959   25.4782 H         1 UNK         0.0000 
     52 H52        -4.9522   54.4655   25.4553 H         1 UNK         0.0000 
     53 H53        -6.9673   51.8376   28.2215 H         1 UNK         0.0000 
     54 H54        -5.0010   50.3702   28.2449 H         1 UNK         0.0000 
@<TRIPOS>BOND
     1    1    2 1    
     2    1   36 1    
     3    1   37 1    
     4    1   38 1    
     5    2    3 1    
     6    2    4 1    
     7    2   39 1    
     8    3   40 1    
     9    3   41 1    
    10    3   42 1    
    11    4    8 ar   
    12    4    5 ar   
    13    5    6 ar   
    14    5   19 1    
    15    6    7 ar   
    16    6   18 1    
    17    7    8 ar   
    18    7    9 1    
    19    9   14 ar   
    20    9   10 ar   
    21   10   11 ar   
    22   10   43 1    
    23   11   12 ar   
    24   11   44 1    
    25   12   13 ar   
    26   12   15 1    
    27   13   14 ar   
    28   13   45 1    
    29   14   46 1    
    30   15   16 2    
    31   15   17 1    
    32   19   20 2    
    33   19   47 1    
    34   20   26 1    
    35   20   21 1    
    36   21   22 2    
    37   21   23 am   BACKBONE|DICT|INTERRES
    38   23   24 am   BACKBONE|DICT|INTERRES
    39   23   27 1    
    40   24   25 2    
    41   24   26 am   BACKBONE|DICT|INTERRES
    42   26   48 1    
    43   27   28 1    
    44   27   49 1    
    45   27   50 1    
    46   28   33 ar   
    47   28   29 ar   
    48   29   30 ar   
    49   29   51 1    
    50   30   31 ar   
    51   30   52 1    
    52   31   32 ar   
    53   31   34 1    
    54   32   33 ar   
    55   32   53 1    
    56   33   54 1    
    57   34   35 3    
@<TRIPOS>SUBSTRUCTURE
     1 UNK         1 GROUP             0       ****    0 ROOT    
