@<TRIPOS>MOLECULE
ZINC63384544_806
58   64    1
SMALL
USER_CHARGES


@<TRIPOS>ATOM
      1 C1          4.0241   54.8469   28.9105 C.ar      1 UNK         0.0000 
      2 C2          2.6352   54.8675   29.0092 C.ar      1 UNK         0.0000 
      3 C3          1.8663   54.2802   28.0085 C.ar      1 UNK         0.0000 
      4 C4          2.4842   53.6845   26.8965 C.ar      1 UNK         0.0000 
      5 C5          3.8850   53.6971   26.8044 C.ar      1 UNK         0.0000 
      6 C6          4.6526   54.2692   27.8127 C.ar      1 UNK         0.0000 
      7 N7          1.7112   53.0384   25.8948 N.am      1 UNK         0.0000 
      8 C8          1.9172   53.1710   24.5382 C.2       1 UNK         0.0000 
      9 O9          2.7890   53.7911   23.9291 O.2       1 UNK         0.0000 
     10 C10         0.7388   52.4667   23.9055 C.3       1 UNK         0.0000 
     11 H11        -0.0473   53.2214   23.8098 H         1 UNK         0.0000 
     12 C12         0.7494   51.6294   22.6356 C.3       1 UNK         0.0000 
     13 H13         1.6579   51.0195   22.6293 H         1 UNK         0.0000 
     14 N14        -0.4314   50.7650   22.8611 N.3       1 UNK         0.0000 
     15 C15        -0.7422   50.7271   24.3134 C.3       1 UNK         0.0000 
     16 C16         0.5282   51.3905   24.8714 C.3       1 UNK         0.0000 
     17 H17         1.3163   50.6268   24.8809 H         1 UNK         0.0000 
     18 C18         0.7049   52.1410   26.1718 C.2       1 UNK         0.0000 
     19 O19         0.1450   51.8847   27.2375 O.2       1 UNK         0.0000 
     20 C20        -2.0649   51.2872   24.7666 C.ar      1 UNK         0.0000 
     21 C21        -2.7129   52.4992   24.5112 C.ar      1 UNK         0.0000 
     22 C22        -3.9059   52.7944   25.1763 C.ar      1 UNK         0.0000 
     23 C23        -4.4432   51.8859   26.0940 C.ar      1 UNK         0.0000 
     24 C24        -3.8004   50.6693   26.3375 C.ar      1 UNK         0.0000 
     25 C25        -2.6201   50.3839   25.6543 C.ar      1 UNK         0.0000 
     26 N26        -1.8514   49.2308   25.6817 N.am      1 UNK         0.0000 
     27 C27        -0.8351   49.2604   24.8035 C.2       1 UNK         0.0000 
     28 O28        -0.0957   48.3291   24.4821 O.2       1 UNK         0.0000 
     29 C29         0.7043   52.4299   21.3274 C.3       1 UNK         0.0000 
     30 C30         1.2126   51.6674   20.1221 C.2       1 UNK         0.0000 
     31 C31         0.5608   51.0397   19.1271 C.2       1 UNK         0.0000 
     32 C32        -0.8759   50.8408   18.8864 C.2       1 UNK         0.0000 
     33 C33        -1.3034   50.1541   17.8069 C.2       1 UNK         0.0000 
     34 C34        -0.3012   49.6150   16.8954 C.2       1 UNK         0.0000 
     35 C35         1.0303   49.7890   17.1053 C.2       1 UNK         0.0000 
     36 C36         1.4801   50.5061   18.2191 C.2       1 UNK         0.0000 
     37 N37         2.7044   50.7839   18.5877 N.pl3     1 UNK         0.0000 
     38 C38         2.6953   51.5607   19.8337 C.3       1 UNK         0.0000 
     39 H39         4.6300   55.2964   29.6818 H         1 UNK         0.0000 
     40 H40         2.1552   55.3334   29.8574 H         1 UNK         0.0000 
     41 H41         0.7896   54.2923   28.1007 H         1 UNK         0.0000 
     42 H42         4.3905   53.2447   25.9638 H         1 UNK         0.0000 
     43 H43         5.7308   54.2654   27.7445 H         1 UNK         0.0000 
     44 H44        -0.2275   49.8266   22.5395 H         1 UNK         0.0000 
     45 H45        -2.3006   53.2190   23.8213 H         1 UNK         0.0000 
     46 H46        -4.4096   53.7308   24.9872 H         1 UNK         0.0000 
     47 H47        -5.3624   52.1203   26.6099 H         1 UNK         0.0000 
     48 H48        -4.2241   49.9627   27.0367 H         1 UNK         0.0000 
     49 H49        -1.9977   48.4656   26.3288 H         1 UNK         0.0000 
     50 H50         1.3356   53.3092   21.4243 H         1 UNK         0.0000 
     51 H51        -0.3057   52.7896   21.1397 H         1 UNK         0.0000 
     52 H52        -1.6188   51.2305   19.5674 H         1 UNK         0.0000 
     53 H53        -2.3575   50.0000   17.6243 H         1 UNK         0.0000 
     54 H54        -0.6261   49.0575   16.0285 H         1 UNK         0.0000 
     55 H55         1.7397   49.3657   16.4054 H         1 UNK         0.0000 
     56 H56         3.2585   51.0014   20.5820 H         1 UNK         0.0000 
     57 H57         3.1799   52.5194   19.6378 H         1 UNK         0.0000 
     58 H58         3.5659   50.4969   18.0994 H         1 UNK         0.0000 
@<TRIPOS>BOND
     1    1    6 ar   
     2    1    2 ar   
     3    1   39 1    
     4    2    3 ar   
     5    2   40 1    
     6    3    4 ar   
     7    3   41 1    
     8    4    5 ar   
     9    4    7 1    
    10    5    6 ar   
    11    5   42 1    
    12    6   43 1    
    13    7   18 am   BACKBONE|DICT|INTERRES
    14    7    8 am   BACKBONE|DICT|INTERRES
    15    8    9 2    
    16    8   10 1    
    17   10   11 1    
    18   10   16 1    
    19   10   12 1    
    20   12   13 1    
    21   12   14 1    
    22   12   29 1    
    23   14   15 1    
    24   14   44 1    
    25   15   27 1    
    26   15   16 1    
    27   15   20 1    
    28   16   17 1    
    29   16   18 1    
    30   18   19 2    
    31   20   25 ar   
    32   20   21 ar   
    33   21   22 ar   
    34   21   45 1    
    35   22   23 ar   
    36   22   46 1    
    37   23   24 ar   
    38   23   47 1    
    39   24   25 ar   
    40   24   48 1    
    41   25   26 1    
    42   26   27 am   BACKBONE|DICT|INTERRES
    43   26   49 1    
    44   27   28 2    
    45   29   30 1    
    46   29   50 1    
    47   29   51 1    
    48   30   38 1    
    49   30   31 2    
    50   31   36 1    
    51   31   32 1    
    52   32   33 2    
    53   32   52 1    
    54   33   34 1    
    55   33   53 1    
    56   34   35 2    
    57   34   54 1    
    58   35   36 1    
    59   35   55 1    
    60   36   37 2    
    61   37   38 1    
    62   37   58 1    
    63   38   56 1    
    64   38   57 1    
@<TRIPOS>SUBSTRUCTURE
     1 UNK         1 GROUP             0       ****    0 ROOT    
