@<TRIPOS>MOLECULE
ZINC63473004_1259
67   73    1
SMALL
USER_CHARGES


@<TRIPOS>ATOM
      1 C1          0.8784   48.4326   20.0829 C.3       1 UNK         0.0000 
      2 C2          0.6752   49.7539   20.8068 C.ar      1 UNK         0.0000 
      3 C3         -0.6214   50.1993   21.0933 C.ar      1 UNK         0.0000 
      4 C4         -0.8227   51.4060   21.7710 C.ar      1 UNK         0.0000 
      5 C5          0.2712   52.1827   22.1573 C.ar      1 UNK         0.0000 
      6 C6          1.5643   51.7597   21.8517 C.ar      1 UNK         0.0000 
      7 C7          1.7502   50.5502   21.2143 C.ar      1 UNK         0.0000 
      8 N8          3.1044   50.3164   21.1091 N.am      1 UNK         0.0000 
      9 C9          3.8624   51.2966   21.6350 C.2       1 UNK         0.0000 
     10 O10         5.0909   51.3461   21.6816 O.2       1 UNK         0.0000 
     11 C11         2.9046   52.4141   22.0777 C.3       1 UNK         0.0000 
     12 C12         3.2179   53.6883   21.2875 C.3       1 UNK         0.0000 
     13 H13         2.2538   54.0967   21.2818 H         1 UNK         0.0000 
     14 C14         4.0772   54.5493   22.1311 C.3       1 UNK         0.0000 
     15 H15         3.5246   55.4730   22.2694 H         1 UNK         0.0000 
     16 C16         4.2401   53.8106   23.4618 C.3       1 UNK         0.0000 
     17 H17         5.1597   53.2197   23.4485 H         1 UNK         0.0000 
     18 N18         3.1044   52.8967   23.4529 N.3       1 UNK         0.0000 
     19 C19         4.3154   54.7621   24.6759 C.3       1 UNK         0.0000 
     20 C20         4.6232   54.1379   26.0267 C.2       1 UNK         0.0000 
     21 C21         3.8058   53.7335   27.0169 C.2       1 UNK         0.0000 
     22 C22         2.3379   53.6801   27.0888 C.2       1 UNK         0.0000 
     23 C23         1.7179   53.2244   28.1956 C.2       1 UNK         0.0000 
     24 C24         2.5438   52.7903   29.3140 C.2       1 UNK         0.0000 
     25 C25         3.9020   52.8402   29.2685 C.2       1 UNK         0.0000 
     26 C26         4.5548   53.3173   28.1232 C.2       1 UNK         0.0000 
     27 N27         5.8380   53.4546   27.8868 N.pl3     1 UNK         0.0000 
     28 C28         6.0446   53.9999   26.5331 C.3       1 UNK         0.0000 
     29 C29         5.3564   54.7412   21.3226 C.2       1 UNK         0.0000 
     30 O30         6.3680   55.2986   21.7499 O.2       1 UNK         0.0000 
     31 N31         5.1229   54.2752   20.0663 N.am      1 UNK         0.0000 
     32 C32         3.9047   53.6928   19.9099 C.2       1 UNK         0.0000 
     33 O33         3.3927   53.2543   18.8813 O.2       1 UNK         0.0000 
     34 C34         6.0944   54.4731   18.9667 C.3       1 UNK         0.0000 
     35 C35         6.4032   53.2374   18.0751 C.3       1 UNK         0.0000 
     36 C36         7.4785   53.5119   17.0085 C.3       1 UNK         0.0000 
     37 C37         7.1331   54.7438   16.1553 C.3       1 UNK         0.0000 
     38 C38         6.9010   55.9857   17.0323 C.3       1 UNK         0.0000 
     39 C39         5.8366   55.7479   18.1216 C.3       1 UNK         0.0000 
     40 Cl40       -2.4235   51.9481   22.1199 Cl        1 UNK         0.0000 
     41 H41         0.0171   47.7748   20.1940 H         1 UNK         0.0000 
     42 H42         1.0610   48.6050   19.0227 H         1 UNK         0.0000 
     43 H43         1.7383   47.8997   20.4867 H         1 UNK         0.0000 
     44 H44        -1.4756   49.6093   20.7951 H         1 UNK         0.0000 
     45 H45         0.1126   53.1095   22.6854 H         1 UNK         0.0000 
     46 H46         3.5033   49.4761   20.7159 H         1 UNK         0.0000 
     47 H47         2.2702   53.3924   23.7263 H         1 UNK         0.0000 
     48 H48         3.3700   55.2965   24.7641 H         1 UNK         0.0000 
     49 H49         5.0821   55.5168   24.4941 H         1 UNK         0.0000 
     50 H50         1.7217   53.9913   26.2579 H         1 UNK         0.0000 
     51 H51         0.6395   53.1728   28.2502 H         1 UNK         0.0000 
     52 H52         2.0555   52.4144   30.2025 H         1 UNK         0.0000 
     53 H53         4.4638   52.4976   30.1254 H         1 UNK         0.0000 
     54 H54         6.5694   54.9507   26.6288 H         1 UNK         0.0000 
     55 H55         6.6491   53.2937   25.9635 H         1 UNK         0.0000 
     56 H56         7.0499   54.6647   19.4603 H         1 UNK         0.0000 
     57 H57         6.7042   52.3924   18.6902 H         1 UNK         0.0000 
     58 H58         5.5015   52.9123   17.5553 H         1 UNK         0.0000 
     59 H59         8.4441   53.6609   17.4950 H         1 UNK         0.0000 
     60 H60         7.5945   52.6358   16.3688 H         1 UNK         0.0000 
     61 H61         7.9323   54.9386   15.4392 H         1 UNK         0.0000 
     62 H62         6.2378   54.5393   15.5656 H         1 UNK         0.0000 
     63 H63         7.8420   56.2708   17.5049 H         1 UNK         0.0000 
     64 H64         6.6098   56.8318   16.4085 H         1 UNK         0.0000 
     65 H65         4.8602   55.6641   17.6416 H         1 UNK         0.0000 
     66 H66         5.7895   56.6251   18.7691 H         1 UNK         0.0000 
     67 H67         6.5883   53.2255   28.5337 H         1 UNK         0.0000 
@<TRIPOS>BOND
     1    1    2 1    
     2    1   41 1    
     3    1   42 1    
     4    1   43 1    
     5    2    7 ar   
     6    2    3 ar   
     7    3    4 ar   
     8    3   44 1    
     9    4    5 ar   
    10    4   40 1    
    11    5    6 ar   
    12    5   45 1    
    13    6   11 1    
    14    6    7 ar   
    15    7    8 1    
    16    8    9 am   BACKBONE|DICT|INTERRES
    17    8   46 1    
    18    9   10 2    
    19    9   11 1    
    20   11   18 1    
    21   11   12 1    
    22   12   13 1    
    23   12   32 1    
    24   12   14 1    
    25   14   15 1    
    26   14   16 1    
    27   14   29 1    
    28   16   17 1    
    29   16   18 1    
    30   16   19 1    
    31   18   47 1    
    32   19   20 1    
    33   19   48 1    
    34   19   49 1    
    35   20   28 1    
    36   20   21 2    
    37   21   26 1    
    38   21   22 1    
    39   22   23 2    
    40   22   50 1    
    41   23   24 1    
    42   23   51 1    
    43   24   25 2    
    44   24   52 1    
    45   25   26 1    
    46   25   53 1    
    47   26   27 2    
    48   27   28 1    
    49   27   67 1    
    50   28   54 1    
    51   28   55 1    
    52   29   30 2    
    53   29   31 am   BACKBONE|DICT|INTERRES
    54   31   32 am   BACKBONE|DICT|INTERRES
    55   31   34 1    
    56   32   33 2    
    57   34   39 1    
    58   34   35 1    
    59   34   56 1    
    60   35   36 1    
    61   35   57 1    
    62   35   58 1    
    63   36   37 1    
    64   36   59 1    
    65   36   60 1    
    66   37   38 1    
    67   37   61 1    
    68   37   62 1    
    69   38   39 1    
    70   38   63 1    
    71   38   64 1    
    72   39   65 1    
    73   39   66 1    
@<TRIPOS>SUBSTRUCTURE
     1 UNK         1 GROUP             0       ****    0 ROOT    
