@<TRIPOS>MOLECULE
ZINC39656831_3673
65   69    1
SMALL
USER_CHARGES


@<TRIPOS>ATOM
      1 C1          1.1303   51.7216   28.8078 C.3       1 UNK         0.0000 
      2 C2          1.2859   52.7840   27.6945 C.3       1 UNK         0.0000 
      3 H3          0.6703   53.6426   27.9801 H         1 UNK         0.0000 
      4 C4          2.7083   53.3715   27.5474 C.ar      1 UNK         0.0000 
      5 C5          3.1081   53.9418   26.3291 C.ar      1 UNK         0.0000 
      6 C6          4.4068   54.4041   26.1532 C.ar      1 UNK         0.0000 
      7 C7          5.3171   54.3158   27.2029 C.ar      1 UNK         0.0000 
      8 C8          4.9288   53.7944   28.4343 C.ar      1 UNK         0.0000 
      9 C9          3.6298   53.3188   28.6045 C.ar      1 UNK         0.0000 
     10 Br10        7.1043   54.8965   26.9339 Br        1 UNK         0.0000 
     11 N11         0.7682   52.2776   26.4173 N.am      1 UNK         0.0000 
     12 C12        -0.5264   52.1683   26.0657 C.2       1 UNK         0.0000 
     13 O13        -1.4351   52.4947   26.8279 O.2       1 UNK         0.0000 
     14 C14        -0.9025   51.6933   24.6356 C.3       1 UNK         0.0000 
     15 H15        -1.5636   52.4614   24.2295 H         1 UNK         0.0000 
     16 C16         0.3184   51.6497   23.6938 C.3       1 UNK         0.0000 
     17 N17        -0.0567   50.6674   22.6757 N.am      1 UNK         0.0000 
     18 C18        -1.2855   49.9530   23.0558 C.3       1 UNK         0.0000 
     19 C19        -1.5076   50.2735   24.5500 C.3       1 UNK         0.0000 
     20 C20        -2.9844   50.2520   25.0239 C.3       1 UNK         0.0000 
     21 C21        -3.6380   48.8725   24.8496 C.3       1 UNK         0.0000 
     22 N22        -2.8167   47.8619   25.6814 N.4       1 UNK         0.0000 
     23 C23        -1.3318   47.8109   25.2820 C.3       1 UNK         0.0000 
     24 C24        -0.7513   49.2275   25.4295 C.3       1 UNK         0.0000 
     25 C25         0.4999   50.4859   21.4419 C.2       1 UNK         0.0000 
     26 O26         0.0121   49.6614   20.6627 O.2       1 UNK         0.0000 
     27 C27         1.6774   51.3254   20.9533 C.ar      1 UNK         0.0000 
     28 C28         1.8418   51.5043   19.5735 C.ar      1 UNK         0.0000 
     29 C29         2.8548   52.2970   19.0454 C.ar      1 UNK         0.0000 
     30 C30         3.7532   52.9700   19.9044 C.ar      1 UNK         0.0000 
     31 C31         4.7584   53.8350   19.4047 C.ar      1 UNK         0.0000 
     32 C32         5.6128   54.4970   20.2826 C.ar      1 UNK         0.0000 
     33 C33         5.5045   54.3058   21.6571 C.ar      1 UNK         0.0000 
     34 C34         4.5385   53.4461   22.1759 C.ar      1 UNK         0.0000 
     35 C35         3.6379   52.7727   21.3111 C.ar      1 UNK         0.0000 
     36 C36         2.6203   51.9204   21.8086 C.ar      1 UNK         0.0000 
     37 H37         1.2981   52.1406   29.7989 H         1 UNK         0.0000 
     38 H38         0.1233   51.2988   28.8223 H         1 UNK         0.0000 
     39 H39         1.8254   50.8962   28.6601 H         1 UNK         0.0000 
     40 H40         2.4217   54.0192   25.4974 H         1 UNK         0.0000 
     41 H41         4.7140   54.8209   25.2045 H         1 UNK         0.0000 
     42 H42         5.6323   53.7496   29.2556 H         1 UNK         0.0000 
     43 H43         3.3638   52.9040   29.5647 H         1 UNK         0.0000 
     44 H44         1.4733   51.9719   25.7628 H         1 UNK         0.0000 
     45 H45         0.5257   52.6458   23.2941 H         1 UNK         0.0000 
     46 H46         1.1627   51.2014   24.2176 H         1 UNK         0.0000 
     47 H47        -1.3109   48.8938   22.8059 H         1 UNK         0.0000 
     48 H48        -2.0986   50.4099   22.4883 H         1 UNK         0.0000 
     49 H49        -3.0649   50.5814   26.0608 H         1 UNK         0.0000 
     50 H50        -3.5611   50.9761   24.4497 H         1 UNK         0.0000 
     51 H51        -4.6557   48.8425   25.2463 H         1 UNK         0.0000 
     52 H52        -3.6427   48.5158   23.8174 H         1 UNK         0.0000 
     53 H53        -2.8316   48.1282   26.6650 H         1 UNK         0.0000 
     54 H54        -0.8957   47.1327   26.0064 H         1 UNK         0.0000 
     55 H55        -1.2595   47.3773   24.2840 H         1 UNK         0.0000 
     56 H56         0.3055   49.1953   25.1630 H         1 UNK         0.0000 
     57 H57        -0.7648   49.5076   26.4824 H         1 UNK         0.0000 
     58 H58         1.1629   51.0331   18.8778 H         1 UNK         0.0000 
     59 H59         2.9479   52.4148   17.9771 H         1 UNK         0.0000 
     60 H60         4.8565   53.9779   18.3371 H         1 UNK         0.0000 
     61 H61         6.3732   55.1596   19.8953 H         1 UNK         0.0000 
     62 H62         6.1815   54.8193   22.3257 H         1 UNK         0.0000 
     63 H63         4.4661   53.2966   23.2445 H         1 UNK         0.0000 
     64 H64         2.6180   51.7589   22.8710 H         1 UNK         0.0000 
     65 H65        -3.2275   46.9393   25.6353 H         1 UNK         0.0000 
@<TRIPOS>BOND
     1    1    2 1    
     2    1   37 1    
     3    1   38 1    
     4    1   39 1    
     5    2    3 1    
     6    2    4 1    
     7    2   11 1    
     8    4    9 ar   
     9    4    5 ar   
    10    5    6 ar   
    11    5   40 1    
    12    6    7 ar   
    13    6   41 1    
    14    7    8 ar   
    15    7   10 1    
    16    8    9 ar   
    17    8   42 1    
    18    9   43 1    
    19   11   12 am   BACKBONE|DICT|INTERRES
    20   11   44 1    
    21   12   13 2    
    22   12   14 1    
    23   14   15 1    
    24   14   19 1    
    25   14   16 1    
    26   16   17 1    
    27   16   45 1    
    28   16   46 1    
    29   17   18 1    
    30   17   25 am   BACKBONE|DICT|INTERRES
    31   18   19 1    
    32   18   47 1    
    33   18   48 1    
    34   19   24 1    
    35   19   20 1    
    36   20   21 1    
    37   20   49 1    
    38   20   50 1    
    39   21   22 1    
    40   21   51 1    
    41   21   52 1    
    42   22   23 1    
    43   22   53 1    
    44   22   65 1    
    45   23   24 1    
    46   23   54 1    
    47   23   55 1    
    48   24   56 1    
    49   24   57 1    
    50   25   26 2    
    51   25   27 1    
    52   27   36 ar   
    53   27   28 ar   
    54   28   29 ar   
    55   28   58 1    
    56   29   30 ar   
    57   29   59 1    
    58   30   35 ar   
    59   30   31 ar   
    60   31   32 ar   
    61   31   60 1    
    62   32   33 ar   
    63   32   61 1    
    64   33   34 ar   
    65   33   62 1    
    66   34   35 ar   
    67   34   63 1    
    68   35   36 ar   
    69   36   64 1    
@<TRIPOS>SUBSTRUCTURE
     1 UNK         1 GROUP             0       ****    0 ROOT    
