@<TRIPOS>MOLECULE
ZINC20271507_1075
74   78    1
SMALL
USER_CHARGES


@<TRIPOS>ATOM
      1 C1          1.7695   61.7176   14.4470 C.3       1 UNK         0.0000 
      2 C2          1.6761   60.2203   14.7066 C.2       1 UNK         0.0000 
      3 O3          0.7138   59.5882   14.2679 O.2       1 UNK         0.0000 
      4 N4          2.7033   59.6966   15.4009 N.am      1 UNK         0.0000 
      5 C5          2.8801   58.3800   15.8501 C.ar      1 UNK         0.0000 
      6 C6          4.1856   57.9922   16.1412 C.ar      1 UNK         0.0000 
      7 C7          4.4388   56.7290   16.6672 C.ar      1 UNK         0.0000 
      8 C8          3.3802   55.8644   16.9812 C.ar      1 UNK         0.0000 
      9 C9          2.0760   56.2414   16.6362 C.ar      1 UNK         0.0000 
     10 C10         1.8235   57.4911   16.0796 C.ar      1 UNK         0.0000 
     11 C11         3.5953   54.5243   17.6603 C.2       1 UNK         0.0000 
     12 O12         2.9111   53.5760   17.2684 O.2       1 UNK         0.0000 
     13 N13         4.4645   54.4006   18.7087 N.am      1 UNK         0.0000 
     14 C14         5.2346   55.5010   19.3239 C.3       1 UNK         0.0000 
     15 C15         6.7151   55.4288   19.0150 C.2       1 UNK         0.0000 
     16 C16         7.5085   54.6324   18.1993 C.2       1 UNK         0.0000 
     17 C17         8.8252   55.0617   18.3657 C.2       1 UNK         0.0000 
     18 C18         8.7769   56.1006   19.2763 C.2       1 UNK         0.0000 
     19 O19         7.4997   56.3195   19.6752 O.3       1 UNK         0.0000 
     20 C20         4.6566   53.0870   19.3643 C.3       1 UNK         0.0000 
     21 C21         3.8808   52.9228   20.6744 C.ar      1 UNK         0.0000 
     22 C22         4.4270   53.5069   21.8230 C.ar      1 UNK         0.0000 
     23 C23         3.7017   53.5319   23.0350 C.ar      1 UNK         0.0000 
     24 C24         4.2092   54.1060   24.2237 C.ar      1 UNK         0.0000 
     25 C25         3.4698   54.0291   25.4046 C.ar      1 UNK         0.0000 
     26 C26         2.2343   53.3823   25.4578 C.ar      1 UNK         0.0000 
     27 C27         1.6855   52.8473   24.2836 C.ar      1 UNK         0.0000 
     28 C28         2.4186   52.9238   23.0812 C.ar      1 UNK         0.0000 
     29 N29         1.9384   52.3803   21.9172 N.pl3     1 UNK         0.0000 
     30 C30         2.5890   52.3532   20.7346 C.ar      1 UNK         0.0000 
     31 N31         1.9211   51.7351   19.6144 N.pl3     1 UNK         0.0000 
     32 C32         2.5807   50.5446   19.0327 C.3       1 UNK         0.0000 
     33 C33         1.6667   49.3707   18.6237 C.3       1 UNK         0.0000 
     34 C34         0.7048   48.8606   19.7081 C.3       1 UNK         0.0000 
     35 C35        -0.6142   49.6480   19.7818 C.3       1 UNK         0.0000 
     36 C36        -0.4892   51.1036   20.2621 C.3       1 UNK         0.0000 
     37 C37         0.4727   52.0058   19.4501 C.3       1 UNK         0.0000 
     38 O38         1.6343   53.3046   26.6990 O.3       1 UNK         0.0000 
     39 C39         0.4556   52.5219   26.8606 C.3       1 UNK         0.0000 
     40 H40         2.7709   61.9860   14.1047 H         1 UNK         0.0000 
     41 H41         1.5623   62.2680   15.3668 H         1 UNK         0.0000 
     42 H42         1.0489   62.0249   13.6862 H         1 UNK         0.0000 
     43 H43         3.4228   60.3548   15.7006 H         1 UNK         0.0000 
     44 H44         5.0088   58.6701   15.9623 H         1 UNK         0.0000 
     45 H45         5.4626   56.4467   16.8514 H         1 UNK         0.0000 
     46 H46         1.2405   55.5873   16.8422 H         1 UNK         0.0000 
     47 H47         0.7995   57.7733   15.8842 H         1 UNK         0.0000 
     48 H48         4.8311   56.4721   19.0471 H         1 UNK         0.0000 
     49 H49         5.0984   55.4749   20.3996 H         1 UNK         0.0000 
     50 H50         7.1703   53.8317   17.5574 H         1 UNK         0.0000 
     51 H51         9.7051   54.6660   17.8815 H         1 UNK         0.0000 
     52 H52         9.5305   56.7393   19.7126 H         1 UNK         0.0000 
     53 H53         4.4095   52.2856   18.6756 H         1 UNK         0.0000 
     54 H54         5.7153   52.9260   19.5663 H         1 UNK         0.0000 
     55 H55         5.4107   53.9537   21.8009 H         1 UNK         0.0000 
     56 H56         5.1796   54.5814   24.2216 H         1 UNK         0.0000 
     57 H57         3.8774   54.4414   26.3136 H         1 UNK         0.0000 
     58 H58         0.7283   52.3507   24.2815 H         1 UNK         0.0000 
     59 H59         3.1042   50.8845   18.1389 H         1 UNK         0.0000 
     60 H60         3.3372   50.1907   19.7329 H         1 UNK         0.0000 
     61 H61         1.1079   49.6482   17.7268 H         1 UNK         0.0000 
     62 H62         2.3053   48.5468   18.3028 H         1 UNK         0.0000 
     63 H63         0.4646   47.8171   19.4928 H         1 UNK         0.0000 
     64 H64         1.1988   48.8530   20.6809 H         1 UNK         0.0000 
     65 H65        -1.2980   49.1212   20.4499 H         1 UNK         0.0000 
     66 H66        -1.0999   49.6323   18.8030 H         1 UNK         0.0000 
     67 H67        -0.2341   51.1018   21.3208 H         1 UNK         0.0000 
     68 H68        -1.4832   51.5492   20.2158 H         1 UNK         0.0000 
     69 H69         0.3207   53.0511   19.7191 H         1 UNK         0.0000 
     70 H70         0.2603   51.9447   18.3807 H         1 UNK         0.0000 
     71 H71         0.1360   52.5589   27.9016 H         1 UNK         0.0000 
     72 H72        -0.3686   52.8955   26.2550 H         1 UNK         0.0000 
     73 H73         0.6303   51.4766   26.6078 H         1 UNK         0.0000 
     74 H74         1.0282   51.9495   21.9407 H         1 UNK         0.0000 
@<TRIPOS>BOND
     1    1    2 1    
     2    1   40 1    
     3    1   41 1    
     4    1   42 1    
     5    2    3 2    
     6    2    4 am   BACKBONE|DICT|INTERRES
     7    4    5 1    
     8    4   43 1    
     9    5   10 ar   
    10    5    6 ar   
    11    6    7 ar   
    12    6   44 1    
    13    7    8 ar   
    14    7   45 1    
    15    8    9 ar   
    16    8   11 1    
    17    9   10 ar   
    18    9   46 1    
    19   10   47 1    
    20   11   12 2    
    21   11   13 am   BACKBONE|DICT|INTERRES
    22   13   14 1    
    23   13   20 1    
    24   14   15 1    
    25   14   48 1    
    26   14   49 1    
    27   15   19 1    
    28   15   16 2    
    29   16   17 1    
    30   16   50 1    
    31   17   18 2    
    32   17   51 1    
    33   18   19 1    
    34   18   52 1    
    35   20   21 1    
    36   20   53 1    
    37   20   54 1    
    38   21   30 ar   
    39   21   22 ar   
    40   22   23 ar   
    41   22   55 1    
    42   23   28 ar   
    43   23   24 ar   
    44   24   25 ar   
    45   24   56 1    
    46   25   26 ar   
    47   25   57 1    
    48   26   27 ar   
    49   26   38 1    
    50   27   28 ar   
    51   27   58 1    
    52   28   29 ar   
    53   29   30 ar   
    54   29   74 1    
    55   30   31 1    
    56   31   37 1    
    57   31   32 1    
    58   32   33 1    
    59   32   59 1    
    60   32   60 1    
    61   33   34 1    
    62   33   61 1    
    63   33   62 1    
    64   34   35 1    
    65   34   63 1    
    66   34   64 1    
    67   35   36 1    
    68   35   65 1    
    69   35   66 1    
    70   36   37 1    
    71   36   67 1    
    72   36   68 1    
    73   37   69 1    
    74   37   70 1    
    75   38   39 1    
    76   39   71 1    
    77   39   72 1    
    78   39   73 1    
@<TRIPOS>SUBSTRUCTURE
     1 UNK         1 GROUP             0       ****    0 ROOT    
