@<TRIPOS>MOLECULE
ZINC36799233_276
52   55    1
SMALL
USER_CHARGES


@<TRIPOS>ATOM
      1 C1          0.7069   52.3815   31.9271 C.3       1 UNK         0.0000 
      2 C2          1.8042   52.3167   30.8855 C.2       1 UNK         0.0000 
      3 O3          2.9835   52.1109   31.1779 O.2       1 UNK         0.0000 
      4 N4          1.2734   52.4309   29.5840 N.pl3     1 UNK         0.0000 
      5 C5          1.9114   52.8193   28.4796 C.ar      1 UNK         0.0000 
      6 C6          1.1644   52.8280   27.2889 C.ar      1 UNK         0.0000 
      7 C7          1.6962   53.2417   26.1115 C.ar      1 UNK         0.0000 
      8 C8          3.0764   53.6969   26.0118 C.ar      1 UNK         0.0000 
      9 C9          3.6910   54.1721   24.8997 C.2       1 UNK         0.0000 
     10 C10         5.0918   54.5852   25.0355 C.2       1 UNK         0.0000 
     11 C11         5.7188   54.5177   26.2312 C.2       1 UNK         0.0000 
     12 O12         6.9929   54.8967   26.4812 O.3       1 UNK         0.0000 
     13 O13         5.1121   54.0508   27.3512 O.3       1 UNK         0.0000 
     14 C14         3.8204   53.6425   27.2674 C.ar      1 UNK         0.0000 
     15 C15         3.2607   53.2307   28.4245 C.ar      1 UNK         0.0000 
     16 C16         2.9160   54.4602   23.6216 C.3       1 UNK         0.0000 
     17 S17         2.7791   53.0833   22.4499 S.3       1 UNK         0.0000 
     18 C18         4.0225   53.5453   21.2822 C.2       1 UNK         0.0000 
     19 N19         5.0210   54.3756   21.4871 N.2       1 UNK         0.0000 
     20 N20         5.8703   54.4967   20.3968 N.2       1 UNK         0.0000 
     21 C21         5.5047   53.7254   19.4012 C.2       1 UNK         0.0000 
     22 S22         4.0195   52.8769   19.6817 S.3       1 UNK         0.0000 
     23 N23         6.2192   53.4667   18.2609 N.pl3     1 UNK         0.0000 
     24 C24         7.5760   53.9236   17.9867 C.3       1 UNK         0.0000 
     25 C25         8.1634   53.1176   16.8140 C.3       1 UNK         0.0000 
     26 C26         9.6435   53.5125   16.6241 C.3       1 UNK         0.0000 
     27 C27         9.8016   55.0379   16.4074 C.3       1 UNK         0.0000 
     28 C28         9.0677   55.8814   17.4787 C.3       1 UNK         0.0000 
     29 C29         7.6015   55.4297   17.6534 C.3       1 UNK         0.0000 
     30 H30         0.3035   53.3878   32.0353 H         1 UNK         0.0000 
     31 H31         1.1014   52.0605   32.8820 H         1 UNK         0.0000 
     32 H32        -0.0956   51.6965   31.6762 H         1 UNK         0.0000 
     33 H33         0.2882   52.1973   29.5097 H         1 UNK         0.0000 
     34 H34         0.1396   52.4813   27.3060 H         1 UNK         0.0000 
     35 H35         1.0763   53.1966   25.2273 H         1 UNK         0.0000 
     36 H36         5.6363   54.9480   24.1767 H         1 UNK         0.0000 
     37 H37         3.8729   53.2418   29.3114 H         1 UNK         0.0000 
     38 H38         1.9104   54.8077   23.8578 H         1 UNK         0.0000 
     39 H39         3.3723   55.2967   23.1150 H         1 UNK         0.0000 
     40 H40         5.9867   52.6245   17.7466 H         1 UNK         0.0000 
     41 H41         8.1738   53.7414   18.8812 H         1 UNK         0.0000 
     42 H42         8.0926   52.0450   17.0055 H         1 UNK         0.0000 
     43 H43         7.6131   53.3167   15.8925 H         1 UNK         0.0000 
     44 H44        10.2183   53.2066   17.5007 H         1 UNK         0.0000 
     45 H45        10.0692   52.9699   15.7792 H         1 UNK         0.0000 
     46 H46        10.8601   55.3028   16.3875 H         1 UNK         0.0000 
     47 H47         9.4089   55.2986   15.4231 H         1 UNK         0.0000 
     48 H48         9.5938   55.7943   18.4321 H         1 UNK         0.0000 
     49 H49         9.1036   56.9375   17.2084 H         1 UNK         0.0000 
     50 H50         7.0466   55.6285   16.7348 H         1 UNK         0.0000 
     51 H51         7.1307   56.0173   18.4424 H         1 UNK         0.0000 
     52 H52         7.1448   54.8060   27.4272 H         1 UNK         0.0000 
@<TRIPOS>BOND
     1    1    2 1    
     2    1   30 1    
     3    1   31 1    
     4    1   32 1    
     5    2    3 2    
     6    2    4 1    
     7    4    5 2    
     8    4   33 1    
     9    5   15 ar   
    10    5    6 ar   
    11    6    7 ar   
    12    6   34 1    
    13    7    8 ar   
    14    7   35 1    
    15    8   14 ar   
    16    8    9 2    
    17    9   10 1    
    18    9   16 1    
    19   10   11 2    
    20   10   36 1    
    21   11   12 1    
    22   11   13 1    
    23   12   52 1    
    24   13   14 1    
    25   14   15 ar   
    26   15   37 1    
    27   16   17 1    
    28   16   38 1    
    29   16   39 1    
    30   17   18 1    
    31   18   22 1    
    32   18   19 2    
    33   19   20 1    
    34   20   21 2    
    35   21   22 1    
    36   21   23 1    
    37   23   24 1    
    38   23   40 1    
    39   24   29 1    
    40   24   25 1    
    41   24   41 1    
    42   25   26 1    
    43   25   42 1    
    44   25   43 1    
    45   26   27 1    
    46   26   44 1    
    47   26   45 1    
    48   27   28 1    
    49   27   46 1    
    50   27   47 1    
    51   28   29 1    
    52   28   48 1    
    53   28   49 1    
    54   29   50 1    
    55   29   51 1    
@<TRIPOS>SUBSTRUCTURE
     1 UNK         1 GROUP             0       ****    0 ROOT    
