ZINC39779855_2684
                    3D
 Schrodinger Suite 2024-2.
 48 51  0  0  1  0            999 V2000
    4.7034   54.7397   26.9902 C   0  0  0  0  0  0
    3.7154   54.0576   27.9764 C   0  0  0  0  0  0
    4.5637   53.0803   28.8300 C   0  0  0  0  0  0
    3.1116   55.1379   28.9014 C   0  0  0  0  0  0
    2.5589   53.3153   27.2611 C   0  0  0  0  0  0
    2.2882   53.5048   25.8967 C   0  0  0  0  0  0
    1.2332   52.8402   25.2801 C   0  0  0  0  0  0
    0.4397   51.9597   26.0120 C   0  0  0  0  0  0
    0.6907   51.7646   27.3705 C   0  0  0  0  0  0
    1.7316   52.4472   27.9913 C   0  0  0  0  0  0
   -0.6487   51.2139   25.3199 C   0  0  0  0  0  0
   -1.5524   51.7680   24.5457 N   0  0  0  0  0  0
   -2.3549   50.7408   24.0597 N   0  0  0  0  0  0
   -1.8596   49.6044   24.4946 C   0  0  0  0  0  0
   -0.8178   49.8465   25.3598 N   0  0  0  0  0  0
   -0.0810   48.9210   26.0741 N   0  0  0  0  0  0
   -2.3962   47.9886   24.0014 S   0  0  0  0  0  0
   -2.7640   48.1781   22.2082 C   0  0  0  0  0  0
   -1.8173   49.0946   21.4311 C   0  0  0  0  0  0
   -2.3692   50.1593   20.9599 N   0  0  0  0  0  0
   -1.5986   51.1184   20.2946 C   0  0  0  0  0  0
   -2.0219   52.0982   19.6815 O   0  0  0  0  0  0
   -0.0574   50.9166   20.4457 C   0  0  1  0  0  0
    0.2206   51.5630   21.2767 H   0  0  0  0  0  0
    0.3279   49.4720   20.7511 C   0  0  0  0  0  0
   -0.4976   48.6572   21.2966 N   0  0  0  0  0  0
    1.6608   49.1905   20.3412 C   0  0  0  0  0  0
    2.1380   50.1044   19.4712 C   0  0  0  0  0  0
    0.9712   51.3830   19.0447 S   0  0  0  0  0  0
    5.5091   55.2532   27.5169 H   0  0  0  0  0  0
    4.2151   55.4906   26.3706 H   0  0  0  0  0  0
    5.1666   54.0121   26.3206 H   0  0  0  0  0  0
    4.0001   52.6332   29.6477 H   0  0  0  0  0  0
    4.9655   52.2687   28.2245 H   0  0  0  0  0  0
    5.4162   53.5871   29.2800 H   0  0  0  0  0  0
    2.4652   54.7048   29.6658 H   0  0  0  0  0  0
    3.8905   55.6952   29.4199 H   0  0  0  0  0  0
    2.5113   55.8566   28.3408 H   0  0  0  0  0  0
    2.8799   54.1649   25.2826 H   0  0  0  0  0  0
    1.0489   52.9972   24.2268 H   0  0  0  0  0  0
    0.0736   51.0884   27.9471 H   0  0  0  0  0  0
    1.8895   52.2911   29.0464 H   0  0  0  0  0  0
   -0.6190   48.5190   26.8476 H   0  0  0  0  0  0
    0.3570   48.2197   25.4923 H   0  0  0  0  0  0
   -2.7266   47.1831   21.7639 H   0  0  0  0  0  0
   -3.8016   48.5055   22.1184 H   0  0  0  0  0  0
    2.2047   48.2972   20.6088 H   0  0  0  0  0  0
    3.1021   50.0755   18.9772 H   0  0  0  0  0  0
  1  2  1  0  0  0
  1 30  1  0  0  0
  1 31  1  0  0  0
  1 32  1  0  0  0
  2  3  1  0  0  0
  2  4  1  0  0  0
  2  5  1  0  0  0
  3 33  1  0  0  0
  3 34  1  0  0  0
  3 35  1  0  0  0
  4 36  1  0  0  0
  4 37  1  0  0  0
  4 38  1  0  0  0
  5 10  2  0  0  0
  5  6  1  0  0  0
  6  7  2  0  0  0
  6 39  1  0  0  0
  7  8  1  0  0  0
  7 40  1  0  0  0
  8  9  2  0  0  0
  8 11  1  0  0  0
  9 10  1  0  0  0
  9 41  1  0  0  0
 10 42  1  0  0  0
 11 15  1  0  0  0
 11 12  2  0  0  0
 12 13  1  0  0  0
 13 14  2  0  0  0
 14 15  1  0  0  0
 14 17  1  0  0  0
 15 16  1  0  0  0
 16 43  1  0  0  0
 16 44  1  0  0  0
 17 18  1  0  0  0
 18 19  1  0  0  0
 18 45  1  0  0  0
 18 46  1  0  0  0
 19 26  1  0  0  0
 19 20  2  0  0  0
 20 21  1  0  0  0
 21 22  2  0  0  0
 21 23  1  0  0  0
 23 24  1  0  0  0
 23 29  1  0  0  0
 23 25  1  0  0  0
 25 26  2  0  0  0
 25 27  1  0  0  0
 27 28  2  0  0  0
 27 47  1  0  0  0
 28 29  1  0  0  0
 28 48  1  0  0  0
M  END
> <i_i_glide_confnum>
36

> <i_i_glide_lignum>
2685

> <i_i_glide_posenum>
217

> <i_i_glide_rotatable_bonds>
5

> <i_m_Source_File_Index>
3664

> <b_m_subgroup_collapsed>
0

> <r_i_docking_score>
-5.54839

> <r_i_glide_ecoul>
-9.38361

> <r_i_glide_eff_state_penalty>
0

> <r_i_glide_einternal>
4.06009

> <r_i_glide_emodel>
-53.6338

> <r_i_glide_energy>
-40.2165

> <r_i_glide_erotb>
0.463494

> <r_i_glide_esite>
-0.201729

> <r_i_glide_evdw>
-30.8329

> <r_i_glide_gscore>
-5.54839

> <r_i_glide_hbond>
-0.419044

> <r_i_glide_ligand_efficiency>
-0.198157

> <r_i_glide_ligand_efficiency_ln>
-1.28073

> <r_i_glide_ligand_efficiency_sa>
-0.601721

> <r_i_glide_lipo>
-1.84231

> <r_i_glide_metal>
0

> <r_i_glide_rewards>
-0.599617

> <s_i_glide_gridfile>
wee1_glide-grid

> <s_m_Source_File>
wee1_decoys_glide_SP.sdf

> <s_m_Source_Path>
/Users/zhangxujun/Desktop

> <s_m_entry_id>
3939

> <s_m_entry_name>
wee1_decoys_glide_SP.3664

> <s_m_subgroup_title>
wee1_decoys_glide_SP

> <s_m_subgroupid>
wee1_decoys_glide_SP


$$$$
