@<TRIPOS>MOLECULE
ZINC38970847_5269
47   50    1
SMALL
USER_CHARGES


@<TRIPOS>ATOM
      1 C1          1.0011   48.5857   19.4552 C.2       1 UNK         0.0000 
      2 C2          0.1553   48.8961   20.6104 C.2       1 UNK         0.0000 
      3 C3          0.4733   49.9340   21.4211 C.2       1 UNK         0.0000 
      4 C4          1.6334   50.7703   21.1970 C.2       1 UNK         0.0000 
      5 N5          1.9667   51.7277   21.9849 N.2       1 UNK         0.0000 
      6 C6          3.1249   52.4967   21.8137 C.2       1 UNK         0.0000 
      7 N7          3.5865   53.3313   22.6496 N.2       1 UNK         0.0000 
      8 S8          2.6836   53.6628   24.1176 S.o2      1 UNK         0.0000 
      9 O9          1.9051   54.8966   24.0817 O.2       1 UNK         0.0000 
     10 O10         2.0100   52.5255   24.7576 O.2       1 UNK         0.0000 
     11 C11         4.0138   54.0711   25.3020 C.ar      1 UNK         0.0000 
     12 C12         3.6833   53.8806   26.6545 C.ar      1 UNK         0.0000 
     13 C13         4.6133   54.0933   27.6709 C.ar      1 UNK         0.0000 
     14 C14         5.9046   54.4965   27.3525 C.ar      1 UNK         0.0000 
     15 C15         6.2493   54.7071   26.0215 C.ar      1 UNK         0.0000 
     16 C16         5.3244   54.5144   24.9936 C.ar      1 UNK         0.0000 
     17 Cl17        5.9053   54.8967   23.4084 Cl        1 UNK         0.0000 
     18 Cl18        4.1661   53.8567   29.3215 Cl        1 UNK         0.0000 
     19 C19         3.8978   52.3828   20.4626 C.3       1 UNK         0.0000 
     20 H20         4.9559   52.2282   20.6833 H         1 UNK         0.0000 
     21 N21         3.5044   51.1584   19.6817 N.pl3     1 UNK         0.0000 
     22 C22         2.4484   50.4037   19.9557 C.2       1 UNK         0.0000 
     23 C23         2.1045   49.3177   19.1498 C.2       1 UNK         0.0000 
     24 N24         3.7683   53.6379   19.7043 N.3       1 UNK         0.0000 
     25 C25         4.3799   53.6715   18.3761 C.3       1 UNK         0.0000 
     26 C26         5.8799   53.9427   18.3674 C.ar      1 UNK         0.0000 
     27 C27         6.6722   53.2969   17.4143 C.ar      1 UNK         0.0000 
     28 C28         8.0284   53.5934   17.3158 C.ar      1 UNK         0.0000 
     29 C29         8.5909   54.5369   18.1708 C.ar      1 UNK         0.0000 
     30 C30         7.8119   55.1817   19.1300 C.ar      1 UNK         0.0000 
     31 C31         6.4535   54.8860   19.2291 C.ar      1 UNK         0.0000 
     32 F32         9.9055   54.8291   18.0675 F         1 UNK         0.0000 
     33 H33         0.7381   47.7514   18.8197 H         1 UNK         0.0000 
     34 H34        -0.7197   48.2951   20.8157 H         1 UNK         0.0000 
     35 H35        -0.1651   50.1342   22.2708 H         1 UNK         0.0000 
     36 H36         2.6896   53.5549   26.9285 H         1 UNK         0.0000 
     37 H37         6.6327   54.6592   28.1347 H         1 UNK         0.0000 
     38 H38         7.2472   55.0306   25.7770 H         1 UNK         0.0000 
     39 H39         2.7045   49.0744   18.2821 H         1 UNK         0.0000 
     40 H40         2.8171   54.0052   19.6813 H         1 UNK         0.0000 
     41 H41         3.9269   54.5004   17.8303 H         1 UNK         0.0000 
     42 H42         4.1356   52.7825   17.7923 H         1 UNK         0.0000 
     43 H43         6.2376   52.5683   16.7442 H         1 UNK         0.0000 
     44 H44         8.6433   53.0969   16.5800 H         1 UNK         0.0000 
     45 H45         8.2637   55.9093   19.7874 H         1 UNK         0.0000 
     46 H46         5.8453   55.3997   19.9598 H         1 UNK         0.0000 
     47 H47         4.1068   50.8972   18.8869 H         1 UNK         0.0000 
@<TRIPOS>BOND
     1    1   23 2    
     2    1    2 1    
     3    1   33 1    
     4    2    3 2    
     5    2   34 1    
     6    3    4 1    
     7    3   35 1    
     8    4   22 1    
     9    4    5 2    
    10    5    6 1    
    11    6    7 2    
    12    6   19 1    
    13    7    8 1    
    14    8    9 2    
    15    8   10 2    
    16    8   11 1    
    17   11   16 ar   
    18   11   12 ar   
    19   12   13 ar   
    20   12   36 1    
    21   13   14 ar   
    22   13   18 1    
    23   14   15 ar   
    24   14   37 1    
    25   15   16 ar   
    26   15   38 1    
    27   16   17 1    
    28   19   20 1    
    29   19   21 1    
    30   19   24 1    
    31   21   22 2    
    32   21   47 1    
    33   22   23 1    
    34   23   39 1    
    35   24   25 1    
    36   24   40 1    
    37   25   26 1    
    38   25   41 1    
    39   25   42 1    
    40   26   31 ar   
    41   26   27 ar   
    42   27   28 ar   
    43   27   43 1    
    44   28   29 ar   
    45   28   44 1    
    46   29   30 ar   
    47   29   32 1    
    48   30   31 ar   
    49   30   45 1    
    50   31   46 1    
@<TRIPOS>SUBSTRUCTURE
     1 UNK         1 GROUP             0       ****    0 ROOT    
