ZINC49165175_1646
                    3D
 Schrodinger Suite 2024-2.
 33 34  0  0  1  0            999 V2000
    1.5045   56.0399   30.0591 C   0  0  0  0  0  0
    1.1905   54.5605   30.0816 C   0  0  0  0  0  0
    1.9314   53.4113   29.7924 C   0  0  0  0  0  0
    1.0443   52.3457   29.9842 C   0  0  0  0  0  0
   -0.1229   52.8676   30.4816 C   0  0  0  0  0  0
   -0.0503   54.2195   30.5144 O   0  0  0  0  0  0
    3.3268   53.3161   29.3964 C   0  0  0  0  0  0
    3.9044   52.9354   30.4796 O   0  5  0  0  0  0
    3.8719   53.5664   28.1759 C   0  0  0  0  0  0
    5.2827   53.4116   28.0289 C   0  0  0  0  0  0
    6.4336   53.3138   27.9443 N   0  0  0  0  0  0
    3.0710   53.9582   26.9844 C   0  0  0  0  0  0
    1.8530   54.0966   27.0964 O   0  0  0  0  0  0
    3.6432   54.0284   25.5899 C   0  0  0  0  0  0
    4.9321   54.4963   25.2988 C   0  0  0  0  0  0
    5.4058   54.4967   23.9883 C   0  0  0  0  0  0
    4.5806   54.0942   22.9307 C   0  0  0  0  0  0
    3.2673   53.6986   23.2078 C   0  0  0  0  0  0
    2.8077   53.6706   24.5192 C   0  0  0  0  0  0
    5.1046   54.1162   21.5159 C   0  0  0  0  0  0
    5.9851   54.8996   21.1684 O   0  0  0  0  0  0
    4.6039   53.2157   20.6683 N   0  0  0  0  0  0
    0.8158   56.5886   29.4185 H   0  0  0  0  0  0
    1.4441   56.4816   31.0544 H   0  0  0  0  0  0
    2.5078   56.2349   29.6800 H   0  0  0  0  0  0
    1.2623   51.3000   29.8276 H   0  0  0  0  0  0
   -1.0383   52.4110   30.8252 H   0  0  0  0  0  0
    5.5893   54.8668   26.0689 H   0  0  0  0  0  0
    6.4156   54.8356   23.7991 H   0  0  0  0  0  0
    2.5897   53.4128   22.4156 H   0  0  0  0  0  0
    1.7915   53.3435   24.6938 H   0  0  0  0  0  0
    3.8880   52.5736   20.9671 H   0  0  0  0  0  0
    4.9458   53.1804   19.7196 H   0  0  0  0  0  0
  1  2  1  0  0  0
  1 23  1  0  0  0
  1 24  1  0  0  0
  1 25  1  0  0  0
  2  6  1  0  0  0
  2  3  2  0  0  0
  3  4  1  0  0  0
  3  7  1  0  0  0
  4  5  2  0  0  0
  4 26  1  0  0  0
  5  6  1  0  0  0
  5 27  1  0  0  0
  7  8  1  0  0  0
  7  9  2  0  0  0
  9 10  1  0  0  0
  9 12  1  0  0  0
 10 11  3  0  0  0
 12 13  2  0  0  0
 12 14  1  0  0  0
 14 19  2  0  0  0
 14 15  1  0  0  0
 15 16  2  0  0  0
 15 28  1  0  0  0
 16 17  1  0  0  0
 16 29  1  0  0  0
 17 18  2  0  0  0
 17 20  1  0  0  0
 18 19  1  0  0  0
 18 30  1  0  0  0
 19 31  1  0  0  0
 20 21  2  0  0  0
 20 22  1  0  0  0
 22 32  1  0  0  0
 22 33  1  0  0  0
M  CHG  1   8  -1
M  END
> <i_i_glide_confnum>
7

> <i_i_glide_lignum>
1647

> <i_i_glide_posenum>
100

> <i_i_glide_rotatable_bonds>
5

> <i_m_Source_File_Index>
1929

> <b_m_subgroup_collapsed>
0

> <r_i_docking_score>
-6.1266

> <r_i_glide_ecoul>
-0.720963

> <r_i_glide_eff_state_penalty>
0

> <r_i_glide_einternal>
3.32724

> <r_i_glide_emodel>
-55.7858

> <r_i_glide_energy>
-39.5872

> <r_i_glide_erotb>
0.839681

> <r_i_glide_esite>
0

> <r_i_glide_evdw>
-38.8662

> <r_i_glide_gscore>
-6.1266

> <r_i_glide_hbond>
-0.0841369

> <r_i_glide_ligand_efficiency>
-0.278482

> <r_i_glide_ligand_efficiency_ln>
-1.49756

> <r_i_glide_ligand_efficiency_sa>
-0.780316

> <r_i_glide_lipo>
-2.45615

> <r_i_glide_metal>
0

> <r_i_glide_rewards>
-2.37453

> <s_i_glide_gridfile>
wee1_glide-grid

> <s_m_Source_File>
wee1_decoys_glide_SP.sdf

> <s_m_Source_Path>
/Users/zhangxujun/Desktop

> <s_m_entry_id>
2204

> <s_m_entry_name>
wee1_decoys_glide_SP.1929

> <s_m_subgroup_title>
wee1_decoys_glide_SP

> <s_m_subgroupid>
wee1_decoys_glide_SP


$$$$
