@<TRIPOS>MOLECULE
ZINC64930616_2283
56   59    1
SMALL
USER_CHARGES


@<TRIPOS>ATOM
      1 C1          6.8426   55.4355   18.4677 C.3       1 UNK         0.0000 
      2 C2          6.5071   55.1030   19.9105 C.ar      1 UNK         0.0000 
      3 C3          5.4070   54.2948   20.1993 C.ar      1 UNK         0.0000 
      4 C4          5.0970   53.9894   21.5223 C.ar      1 UNK         0.0000 
      5 C5          5.8770   54.4967   22.5646 C.ar      1 UNK         0.0000 
      6 C6          6.9795   55.3081   22.2679 C.ar      1 UNK         0.0000 
      7 C7          7.2942   55.6099   20.9448 C.ar      1 UNK         0.0000 
      8 N8          5.4485   54.1786   23.8655 N.am      1 UNK         0.0000 
      9 C9          5.8812   54.6163   25.0719 C.2       1 UNK         0.0000 
     10 O10         6.8954   55.2837   25.2811 O.2       1 UNK         0.0000 
     11 C11         5.0173   54.2459   26.1681 C.2       1 UNK         0.0000 
     12 N12         5.3104   54.1011   27.4391 N.2       1 UNK         0.0000 
     13 N13         4.2041   53.8300   28.2391 N.2       1 UNK         0.0000 
     14 C14         3.0644   53.7883   27.5833 C.2       1 UNK         0.0000 
     15 S15         3.2981   54.0965   25.8885 S.3       1 UNK         0.0000 
     16 C16         1.6850   53.5374   28.2132 C.3       1 UNK         0.0000 
     17 H17         1.0645   54.3751   27.8897 H         1 UNK         0.0000 
     18 C18         1.6861   53.4991   29.7556 C.3       1 UNK         0.0000 
     19 C19         0.5846   52.5212   30.1082 C.3       1 UNK         0.0000 
     20 C20         0.7006   51.4542   29.0273 C.3       1 UNK         0.0000 
     21 N21         1.0481   52.2500   27.8366 N.am      1 UNK         0.0000 
     22 C22         0.4776   52.0342   26.6176 C.2       1 UNK         0.0000 
     23 O23         0.4684   52.8945   25.7359 O.2       1 UNK         0.0000 
     24 N24         0.0399   50.7699   26.4103 N.am      1 UNK         0.0000 
     25 C25        -0.5778   50.2531   25.2563 C.ar      1 UNK         0.0000 
     26 C26        -1.7523   49.5277   25.4782 C.ar      1 UNK         0.0000 
     27 C27        -2.4424   48.9449   24.4180 C.ar      1 UNK         0.0000 
     28 C28        -1.9590   49.0688   23.1159 C.ar      1 UNK         0.0000 
     29 C29        -0.7717   49.7660   22.8867 C.ar      1 UNK         0.0000 
     30 C30        -0.0673   50.3571   23.9415 C.ar      1 UNK         0.0000 
     31 C31         1.2604   51.0216   23.6069 C.3       1 UNK         0.0000 
     32 C32        -2.6959   48.4177   21.9607 C.3       1 UNK         0.0000 
     33 H33         7.3264   56.4098   18.3901 H         1 UNK         0.0000 
     34 H34         5.9386   55.4863   17.8586 H         1 UNK         0.0000 
     35 H35         7.5043   54.6787   18.0445 H         1 UNK         0.0000 
     36 H36         4.7941   53.8994   19.4015 H         1 UNK         0.0000 
     37 H37         4.2364   53.3687   21.7252 H         1 UNK         0.0000 
     38 H38         7.5913   55.7325   23.0441 H         1 UNK         0.0000 
     39 H39         8.1555   56.2237   20.7266 H         1 UNK         0.0000 
     40 H40         4.6190   53.6065   23.8931 H         1 UNK         0.0000 
     41 H41         2.6296   53.1286   30.1585 H         1 UNK         0.0000 
     42 H42         1.5053   54.4850   30.1868 H         1 UNK         0.0000 
     43 H43         0.6687   52.1083   31.1147 H         1 UNK         0.0000 
     44 H44        -0.3908   53.0079   30.0476 H         1 UNK         0.0000 
     45 H45         1.5552   50.8294   29.2817 H         1 UNK         0.0000 
     46 H46        -0.2369   50.8980   28.9590 H         1 UNK         0.0000 
     47 H47         0.0030   50.1596   27.2150 H         1 UNK         0.0000 
     48 H48        -2.1368   49.4020   26.4817 H         1 UNK         0.0000 
     49 H49        -3.3491   48.3922   24.6167 H         1 UNK         0.0000 
     50 H50        -0.3853   49.8387   21.8801 H         1 UNK         0.0000 
     51 H51         1.8022   50.4512   22.8505 H         1 UNK         0.0000 
     52 H52         1.0997   52.0316   23.2249 H         1 UNK         0.0000 
     53 H53         1.9049   51.0706   24.4790 H         1 UNK         0.0000 
     54 H54        -1.9925   48.0538   21.2119 H         1 UNK         0.0000 
     55 H55        -3.2705   47.5540   22.2947 H         1 UNK         0.0000 
     56 H56        -3.3694   49.1307   21.4852 H         1 UNK         0.0000 
@<TRIPOS>BOND
     1    1    2 1    
     2    1   33 1    
     3    1   34 1    
     4    1   35 1    
     5    2    7 ar   
     6    2    3 ar   
     7    3    4 ar   
     8    3   36 1    
     9    4    5 ar   
    10    4   37 1    
    11    5    6 ar   
    12    5    8 1    
    13    6    7 ar   
    14    6   38 1    
    15    7   39 1    
    16    8    9 am   BACKBONE|DICT|INTERRES
    17    8   40 1    
    18    9   10 2    
    19    9   11 1    
    20   11   15 1    
    21   11   12 2    
    22   12   13 1    
    23   13   14 2    
    24   14   15 1    
    25   14   16 1    
    26   16   17 1    
    27   16   21 1    
    28   16   18 1    
    29   18   19 1    
    30   18   41 1    
    31   18   42 1    
    32   19   20 1    
    33   19   43 1    
    34   19   44 1    
    35   20   21 1    
    36   20   45 1    
    37   20   46 1    
    38   21   22 am   BACKBONE|DICT|INTERRES
    39   22   23 2    
    40   22   24 am   BACKBONE|DICT|INTERRES
    41   24   25 1    
    42   24   47 1    
    43   25   30 ar   
    44   25   26 ar   
    45   26   27 ar   
    46   26   48 1    
    47   27   28 ar   
    48   27   49 1    
    49   28   29 ar   
    50   28   32 1    
    51   29   30 ar   
    52   29   50 1    
    53   30   31 1    
    54   31   51 1    
    55   31   52 1    
    56   31   53 1    
    57   32   54 1    
    58   32   55 1    
    59   32   56 1    
@<TRIPOS>SUBSTRUCTURE
     1 UNK         1 GROUP             0       ****    0 ROOT    
