@<TRIPOS>MOLECULE
ZINC39599589_4077
66   70    1
SMALL
USER_CHARGES


@<TRIPOS>ATOM
      1 C1         -3.9573   51.2857   27.1974 C.ar      1 UNK         0.0000 
      2 C2         -4.8529   50.8850   26.2135 C.ar      1 UNK         0.0000 
      3 C3         -4.4992   50.9454   24.8687 C.ar      1 UNK         0.0000 
      4 C4         -3.2317   51.4507   24.4844 C.ar      1 UNK         0.0000 
      5 C5         -2.8273   51.5029   23.1278 C.ar      1 UNK         0.0000 
      6 C6         -1.5791   52.0227   22.7512 C.ar      1 UNK         0.0000 
      7 C7         -0.7611   52.5582   23.7584 C.ar      1 UNK         0.0000 
      8 C8         -1.1051   52.4815   25.1026 C.ar      1 UNK         0.0000 
      9 C9         -2.3351   51.9095   25.4926 C.ar      1 UNK         0.0000 
     10 C10        -2.7062   51.7879   26.8524 C.ar      1 UNK         0.0000 
     11 C11        -1.2083   52.0372   21.2722 C.2       1 UNK         0.0000 
     12 O12        -2.1227   52.0912   20.4484 O.2       1 UNK         0.0000 
     13 N13         0.0897   52.0004   20.8598 N.am      1 UNK         0.0000 
     14 C14         1.2768   51.8787   21.7005 C.3       1 UNK         0.0000 
     15 C15         2.3628   51.3738   20.7516 C.3       1 UNK         0.0000 
     16 H16         2.5477   50.3521   21.0924 H         1 UNK         0.0000 
     17 C17         1.8331   51.3795   19.2904 C.3       1 UNK         0.0000 
     18 C18         0.4495   52.0556   19.4374 C.3       1 UNK         0.0000 
     19 C19         2.6991   52.0835   18.2075 C.3       1 UNK         0.0000 
     20 C20         2.0801   51.9892   16.7968 C.3       1 UNK         0.0000 
     21 N21         1.9038   50.4966   16.4447 N.4       1 UNK         0.0000 
     22 C22         1.0767   49.7073   17.4769 C.3       1 UNK         0.0000 
     23 C23         1.7630   49.8912   18.8422 C.3       1 UNK         0.0000 
     24 C24         3.7320   52.0151   21.0393 C.2       1 UNK         0.0000 
     25 O25         4.6989   51.2974   21.2742 O.2       1 UNK         0.0000 
     26 N26         3.8080   53.3554   21.0207 N.am      1 UNK         0.0000 
     27 C27         4.9728   54.1188   21.4731 C.3       1 UNK         0.0000 
     28 C28         5.0996   54.2463   22.9933 C.ar      1 UNK         0.0000 
     29 C29         3.9823   54.1226   23.8275 C.ar      1 UNK         0.0000 
     30 C30         4.1088   54.2954   25.2009 C.ar      1 UNK         0.0000 
     31 C31         5.3586   54.5838   25.7655 C.ar      1 UNK         0.0000 
     32 C32         6.4726   54.6793   24.9332 C.ar      1 UNK         0.0000 
     33 C33         6.3509   54.5033   23.5577 C.ar      1 UNK         0.0000 
     34 O34         5.5633   54.8084   27.1134 O.3       1 UNK         0.0000 
     35 C35         4.6357   54.2732   28.0618 C.3       1 UNK         0.0000 
     36 F36         5.1450   54.4655   29.2721 F         1 UNK         0.0000 
     37 F37         4.4695   52.9604   27.9108 F         1 UNK         0.0000 
     38 F38         3.4575   54.8980   28.0261 F         1 UNK         0.0000 
     39 H39        -4.2218   51.1928   28.2401 H         1 UNK         0.0000 
     40 H40        -5.8210   50.4973   26.4971 H         1 UNK         0.0000 
     41 H41        -5.1911   50.6078   24.1106 H         1 UNK         0.0000 
     42 H42        -3.5058   51.1120   22.3818 H         1 UNK         0.0000 
     43 H43         0.1604   53.0694   23.5449 H         1 UNK         0.0000 
     44 H44        -0.4355   52.8666   25.8569 H         1 UNK         0.0000 
     45 H45        -2.0096   52.0827   27.6230 H         1 UNK         0.0000 
     46 H46         1.1315   51.1837   22.5301 H         1 UNK         0.0000 
     47 H47         1.5182   52.8853   22.0407 H         1 UNK         0.0000 
     48 H48         0.5897   53.1162   19.2358 H         1 UNK         0.0000 
     49 H49        -0.2986   51.7092   18.7343 H         1 UNK         0.0000 
     50 H50         2.8146   53.1385   18.4585 H         1 UNK         0.0000 
     51 H51         3.7164   51.6963   18.1939 H         1 UNK         0.0000 
     52 H52         1.1035   52.4672   16.7165 H         1 UNK         0.0000 
     53 H53         2.7445   52.3955   16.0303 H         1 UNK         0.0000 
     54 H54         1.5277   50.3858   15.5143 H         1 UNK         0.0000 
     55 H55         0.0513   50.0722   17.4261 H         1 UNK         0.0000 
     56 H56         1.1058   48.6686   17.1481 H         1 UNK         0.0000 
     57 H57         2.7631   49.4429   18.8435 H         1 UNK         0.0000 
     58 H58         1.1849   49.3166   19.5672 H         1 UNK         0.0000 
     59 H59         2.9836   53.8826   20.7653 H         1 UNK         0.0000 
     60 H60         4.9072   55.1254   21.0596 H         1 UNK         0.0000 
     61 H61         5.8887   53.6848   21.0643 H         1 UNK         0.0000 
     62 H62         3.0010   53.9290   23.4198 H         1 UNK         0.0000 
     63 H63         3.2195   54.2099   25.8044 H         1 UNK         0.0000 
     64 H64         7.4404   54.8951   25.3548 H         1 UNK         0.0000 
     65 H65         7.2293   54.5900   22.9339 H         1 UNK         0.0000 
     66 H66         2.8385   50.0610   16.4399 H         1 UNK         0.0000 
@<TRIPOS>BOND
     1    1   10 ar   
     2    1    2 ar   
     3    1   39 1    
     4    2    3 ar   
     5    2   40 1    
     6    3    4 ar   
     7    3   41 1    
     8    4    9 ar   
     9    4    5 ar   
    10    5    6 ar   
    11    5   42 1    
    12    6    7 ar   
    13    6   11 1    
    14    7    8 ar   
    15    7   43 1    
    16    8    9 ar   
    17    8   44 1    
    18    9   10 ar   
    19   10   45 1    
    20   11   12 2    
    21   11   13 am   BACKBONE|DICT|INTERRES
    22   13   18 1    
    23   13   14 1    
    24   14   15 1    
    25   14   46 1    
    26   14   47 1    
    27   15   16 1    
    28   15   17 1    
    29   15   24 1    
    30   17   23 1    
    31   17   18 1    
    32   17   19 1    
    33   18   48 1    
    34   18   49 1    
    35   19   20 1    
    36   19   50 1    
    37   19   51 1    
    38   20   21 1    
    39   20   52 1    
    40   20   53 1    
    41   21   22 1    
    42   21   54 1    
    43   21   66 1    
    44   22   23 1    
    45   22   55 1    
    46   22   56 1    
    47   23   57 1    
    48   23   58 1    
    49   24   25 2    
    50   24   26 am   BACKBONE|DICT|INTERRES
    51   26   27 1    
    52   26   59 1    
    53   27   28 1    
    54   27   60 1    
    55   27   61 1    
    56   28   33 ar   
    57   28   29 ar   
    58   29   30 ar   
    59   29   62 1    
    60   30   31 ar   
    61   30   63 1    
    62   31   32 ar   
    63   31   34 1    
    64   32   33 ar   
    65   32   64 1    
    66   33   65 1    
    67   34   35 1    
    68   35   36 1    
    69   35   37 1    
    70   35   38 1    
@<TRIPOS>SUBSTRUCTURE
     1 UNK         1 GROUP             0       ****    0 ROOT    
