@<TRIPOS>MOLECULE
ZINC38595784_737
66   70    1
SMALL
USER_CHARGES


@<TRIPOS>ATOM
      1 C1          7.4251   53.9605   23.4642 C.3       1 UNK         0.0000 
      2 C2          5.9408   54.3185   23.4450 C.3       1 UNK         0.0000 
      3 H3          5.9042   55.3891   23.2678 H         1 UNK         0.0000 
      4 C4          5.2259   53.5516   22.2698 C.3       1 UNK         0.0000 
      5 H5          5.6720   52.5563   22.2915 H         1 UNK         0.0000 
      6 C6          5.4835   54.1203   20.8622 C.2       1 UNK         0.0000 
      7 C7          5.2856   53.4983   19.6218 C.2       1 UNK         0.0000 
      8 C8          5.6290   54.2679   18.5095 C.2       1 UNK         0.0000 
      9 C9          6.1232   55.5070   18.8589 C.2       1 UNK         0.0000 
     10 S10         6.1739   55.7039   20.5735 S.3       1 UNK         0.0000 
     11 N11         3.8026   53.2774   22.5546 N.3       1 UNK         0.0000 
     12 C12         3.2097   52.2148   21.7280 C.3       1 UNK         0.0000 
     13 C13         1.9043   51.7079   22.3676 C.3       1 UNK         0.0000 
     14 N14         0.9321   52.8966   22.5270 N.4       1 UNK         0.0000 
     15 C15         1.5896   54.0419   23.3326 C.3       1 UNK         0.0000 
     16 C16         2.9303   54.4499   22.6844 C.3       1 UNK         0.0000 
     17 C17        -0.3979   52.4405   23.1773 C.3       1 UNK         0.0000 
     18 C18        -1.3008   51.5735   22.3055 C.ar      1 UNK         0.0000 
     19 C19        -1.3051   51.6967   20.9087 C.ar      1 UNK         0.0000 
     20 C20        -2.1503   50.9010   20.1407 C.ar      1 UNK         0.0000 
     21 C21        -2.9937   49.9850   20.7664 C.ar      1 UNK         0.0000 
     22 C22        -2.9939   49.8535   22.1536 C.ar      1 UNK         0.0000 
     23 C23        -2.1448   50.6452   22.9224 C.ar      1 UNK         0.0000 
     24 N24         5.3135   54.0969   24.7568 N.am      1 UNK         0.0000 
     25 C25         5.6099   54.6954   25.9250 C.2       1 UNK         0.0000 
     26 O26         6.5542   55.4765   26.0583 O.2       1 UNK         0.0000 
     27 C27         4.7359   54.3604   27.1492 C.3       1 UNK         0.0000 
     28 H28         4.5132   55.3013   27.6431 H         1 UNK         0.0000 
     29 C29         5.5036   53.4338   28.1212 C.3       1 UNK         0.0000 
     30 O30         4.6978   53.1872   29.2816 O.3       1 UNK         0.0000 
     31 C31         3.3607   52.9542   29.0209 C.ar      1 UNK         0.0000 
     32 C32         2.5668   52.4965   30.0722 C.ar      1 UNK         0.0000 
     33 C33         1.1967   52.3063   29.8710 C.ar      1 UNK         0.0000 
     34 C34         0.6266   52.5624   28.6215 C.ar      1 UNK         0.0000 
     35 C35         1.4170   53.0326   27.5699 C.ar      1 UNK         0.0000 
     36 C36         2.7791   53.2467   27.7738 C.ar      1 UNK         0.0000 
     37 O37         3.5289   53.7115   26.7106 O.3       1 UNK         0.0000 
     38 H38         7.9045   54.3197   22.5550 H         1 UNK         0.0000 
     39 H39         7.9044   54.3917   24.3346 H         1 UNK         0.0000 
     40 H40         7.6028   52.8967   23.5060 H         1 UNK         0.0000 
     41 H41         4.9066   52.4919   19.5143 H         1 UNK         0.0000 
     42 H42         5.5252   53.9220   17.4906 H         1 UNK         0.0000 
     43 H43         6.4643   56.2933   18.2016 H         1 UNK         0.0000 
     44 H44         2.9958   52.6294   20.7415 H         1 UNK         0.0000 
     45 H45         3.9004   51.3789   21.6012 H         1 UNK         0.0000 
     46 H46         2.0630   51.2605   23.3513 H         1 UNK         0.0000 
     47 H47         1.4150   50.9913   21.7057 H         1 UNK         0.0000 
     48 H48         1.7125   53.7040   24.3629 H         1 UNK         0.0000 
     49 H49         0.8899   54.8731   23.2835 H         1 UNK         0.0000 
     50 H50         3.3930   55.2383   23.2758 H         1 UNK         0.0000 
     51 H51         2.7572   54.8358   21.6818 H         1 UNK         0.0000 
     52 H52        -0.1163   51.9297   24.1021 H         1 UNK         0.0000 
     53 H53        -0.9369   53.3465   23.4567 H         1 UNK         0.0000 
     54 H54        -0.6566   52.4024   20.4093 H         1 UNK         0.0000 
     55 H55        -2.1509   50.9900   19.0624 H         1 UNK         0.0000 
     56 H56        -3.6507   49.3679   20.1695 H         1 UNK         0.0000 
     57 H57        -3.6504   49.1400   22.6316 H         1 UNK         0.0000 
     58 H58        -2.1518   50.5373   23.9981 H         1 UNK         0.0000 
     59 H59         4.5083   53.4851   24.7429 H         1 UNK         0.0000 
     60 H60         6.4319   53.8980   28.4602 H         1 UNK         0.0000 
     61 H61         5.7427   52.4943   27.6274 H         1 UNK         0.0000 
     62 H62         3.0055   52.3031   31.0404 H         1 UNK         0.0000 
     63 H63         0.5736   51.9567   30.6825 H         1 UNK         0.0000 
     64 H64        -0.4303   52.3953   28.4727 H         1 UNK         0.0000 
     65 H65         0.9734   53.2342   26.6081 H         1 UNK         0.0000 
     66 H66         0.7488   53.2536   21.5983 H         1 UNK         0.0000 
@<TRIPOS>BOND
     1    1    2 1    
     2    1   38 1    
     3    1   39 1    
     4    1   40 1    
     5    2    3 1    
     6    2    4 1    
     7    2   24 1    
     8    4    5 1    
     9    4    6 1    
    10    4   11 1    
    11    6   10 1    
    12    6    7 2    
    13    7    8 1    
    14    7   41 1    
    15    8    9 2    
    16    8   42 1    
    17    9   10 1    
    18    9   43 1    
    19   11   16 1    
    20   11   12 1    
    21   12   13 1    
    22   12   44 1    
    23   12   45 1    
    24   13   14 1    
    25   13   46 1    
    26   13   47 1    
    27   14   15 1    
    28   14   17 1    
    29   14   66 1    
    30   15   16 1    
    31   15   48 1    
    32   15   49 1    
    33   16   50 1    
    34   16   51 1    
    35   17   18 1    
    36   17   52 1    
    37   17   53 1    
    38   18   23 ar   
    39   18   19 ar   
    40   19   20 ar   
    41   19   54 1    
    42   20   21 ar   
    43   20   55 1    
    44   21   22 ar   
    45   21   56 1    
    46   22   23 ar   
    47   22   57 1    
    48   23   58 1    
    49   24   25 am   BACKBONE|DICT|INTERRES
    50   24   59 1    
    51   25   26 2    
    52   25   27 1    
    53   27   28 1    
    54   27   37 1    
    55   27   29 1    
    56   29   30 1    
    57   29   60 1    
    58   29   61 1    
    59   30   31 1    
    60   31   36 ar   
    61   31   32 ar   
    62   32   33 ar   
    63   32   62 1    
    64   33   34 ar   
    65   33   63 1    
    66   34   35 ar   
    67   34   64 1    
    68   35   36 ar   
    69   35   65 1    
    70   36   37 1    
@<TRIPOS>SUBSTRUCTURE
     1 UNK         1 GROUP             0       ****    0 ROOT    
