ZINC21163011_6041
                    3D
 Schrodinger Suite 2024-2.
 81 87  0  0  1  0            999 V2000
    2.0977   53.0755   26.9803 C   0  0  0  0  0  0
    3.4280   53.6938   26.6002 C   0  0  0  0  0  0
    4.4150   53.7353   27.5951 C   0  0  0  0  0  0
    5.6534   54.3219   27.3534 C   0  0  0  0  0  0
    5.9087   54.8878   26.1111 C   0  0  0  0  0  0
    4.9332   54.8467   25.1198 C   0  0  0  0  0  0
    3.6872   54.2330   25.3193 C   0  0  0  0  0  0
    2.6662   54.2871   24.1528 C   0  0  0  0  0  0
    2.2991   53.0429   23.4418 N   0  0  0  0  0  0
    1.1540   52.2634   23.6855 C   0  0  0  0  0  0
    0.0836   52.4122   24.5807 C   0  0  0  0  0  0
   -0.8786   51.4002   24.6077 C   0  0  0  0  0  0
   -0.8095   50.3018   23.7543 C   0  0  0  0  0  0
    0.2085   50.1732   22.8080 C   0  0  0  0  0  0
    1.1739   51.1815   22.7842 C   0  0  0  0  0  0
    2.2424   51.3873   21.9377 N   0  3  0  0  0  0
    2.9172   52.5224   22.3081 C   0  0  0  0  0  0
    3.9616   53.0548   21.6054 N   0  0  0  0  0  0
    5.2969   53.2022   22.2178 C   0  0  0  0  0  0
    5.9777   54.4841   21.6850 C   0  0  0  0  0  0
    5.9745   54.5860   20.1364 C   0  0  0  0  0  0
    4.6339   54.1419   19.4934 C   0  0  0  0  0  0
    4.0874   52.8520   20.1448 C   0  0  0  0  0  0
    6.3981   55.9875   19.6414 C   0  0  0  0  0  0
    6.7046   56.8799   20.4376 O   0  0  0  0  0  0
    6.4907   56.1378   18.3100 N   0  0  0  0  0  0
    6.8772   57.3491   17.5770 C   0  0  2  0  0  0
    7.8083   57.6986   18.0341 H   0  0  0  0  0  0
    5.8248   58.4635   17.7971 C   0  0  0  0  0  0
    7.2184   57.0435   16.0721 C   0  0  0  0  0  0
    7.8547   58.2842   15.3591 C   0  0  0  0  0  0
    8.2006   57.9707   13.8775 C   0  0  1  0  0  0
    9.2190   56.8055   13.8219 C   0  0  0  0  0  0
    8.6046   55.5506   14.4868 C   0  0  1  0  0  0
    8.2570   55.8705   15.9640 C   0  0  0  0  0  0
    7.3101   55.1397   13.7393 C   0  0  0  0  0  0
    6.2874   56.3048   13.7913 C   0  0  2  0  0  0
    6.9063   57.5614   13.1250 C   0  0  0  0  0  0
    5.9402   56.6235   15.2712 C   0  0  0  0  0  0
    2.0606   52.7802   28.0289 H   0  0  0  0  0  0
    1.2981   53.7945   26.8277 H   0  0  0  0  0  0
    1.9082   52.1835   26.3877 H   0  0  0  0  0  0
    4.2258   53.3099   28.5709 H   0  0  0  0  0  0
    6.4054   54.3516   28.1300 H   0  0  0  0  0  0
    6.8585   55.3587   25.9124 H   0  0  0  0  0  0
    5.1678   55.2990   24.1752 H   0  0  0  0  0  0
    3.0257   54.9879   23.3969 H   0  0  0  0  0  0
    1.7419   54.7473   24.4988 H   0  0  0  0  0  0
   -0.0049   53.2594   25.2369 H   0  0  0  0  0  0
   -1.6990   51.4680   25.3089 H   0  0  0  0  0  0
   -1.5765   49.5421   23.8193 H   0  0  0  0  0  0
    0.2370   49.3380   22.1255 H   0  0  0  0  0  0
    5.8897   52.3094   22.0136 H   0  0  0  0  0  0
    5.1996   53.2115   23.2970 H   0  0  0  0  0  0
    6.9901   54.5202   22.0894 H   0  0  0  0  0  0
    5.3717   55.2965   22.0758 H   0  0  0  0  0  0
    6.7046   53.9131   19.6853 H   0  0  0  0  0  0
    3.8616   54.8916   19.6789 H   0  0  0  0  0  0
    4.7346   53.9450   18.4238 H   0  0  0  0  0  0
    4.7338   51.9919   19.9549 H   0  0  0  0  0  0
    3.1068   52.6186   19.7202 H   0  0  0  0  0  0
    6.2933   55.3345   17.7320 H   0  0  0  0  0  0
    5.9459   59.2968   17.1122 H   0  0  0  0  0  0
    4.8057   58.0945   17.6790 H   0  0  0  0  0  0
    5.9050   58.8947   18.7948 H   0  0  0  0  0  0
    8.7564   58.6037   15.8836 H   0  0  0  0  0  0
    7.1797   59.1376   15.3764 H   0  0  0  0  0  0
    8.6305   58.8578   13.4093 H   0  0  0  0  0  0
    9.4954   56.5870   12.7878 H   0  0  0  0  0  0
   10.1456   57.0868   14.3282 H   0  0  0  0  0  0
    9.3261   54.7329   14.4463 H   0  0  0  0  0  0
    7.8742   54.9619   16.4306 H   0  0  0  0  0  0
    9.1692   56.1183   16.5106 H   0  0  0  0  0  0
    6.8856   54.2423   14.1887 H   0  0  0  0  0  0
    7.5351   54.8853   12.7035 H   0  0  0  0  0  0
    5.3812   56.0115   13.2557 H   0  0  0  0  0  0
    7.1224   57.3637   12.0734 H   0  0  0  0  0  0
    6.1875   58.3829   13.1318 H   0  0  0  0  0  0
    5.1897   57.4164   15.2998 H   0  0  0  0  0  0
    5.4675   55.7571   15.7340 H   0  0  0  0  0  0
    2.5139   50.8273   21.1410 H   0  0  0  0  0  0
  1  2  1  0  0  0
  1 40  1  0  0  0
  1 41  1  0  0  0
  1 42  1  0  0  0
  2  7  2  0  0  0
  2  3  1  0  0  0
  3  4  2  0  0  0
  3 43  1  0  0  0
  4  5  1  0  0  0
  4 44  1  0  0  0
  5  6  2  0  0  0
  5 45  1  0  0  0
  6  7  1  0  0  0
  6 46  1  0  0  0
  7  8  1  0  0  0
  8  9  1  0  0  0
  8 47  1  0  0  0
  8 48  1  0  0  0
  9 17  1  0  0  0
  9 10  1  0  0  0
 10 15  2  0  0  0
 10 11  1  0  0  0
 11 12  2  0  0  0
 11 49  1  0  0  0
 12 13  1  0  0  0
 12 50  1  0  0  0
 13 14  2  0  0  0
 13 51  1  0  0  0
 14 15  1  0  0  0
 14 52  1  0  0  0
 15 16  1  0  0  0
 16 17  2  0  0  0
 16 81  1  0  0  0
 17 18  1  0  0  0
 18 23  1  0  0  0
 18 19  1  0  0  0
 19 20  1  0  0  0
 19 53  1  0  0  0
 19 54  1  0  0  0
 20 21  1  0  0  0
 20 55  1  0  0  0
 20 56  1  0  0  0
 21 22  1  0  0  0
 21 24  1  0  0  0
 21 57  1  0  0  0
 22 23  1  0  0  0
 22 58  1  0  0  0
 22 59  1  0  0  0
 23 60  1  0  0  0
 23 61  1  0  0  0
 24 25  2  0  0  0
 24 26  1  0  0  0
 26 27  1  0  0  0
 26 62  1  0  0  0
 27 28  1  0  0  0
 27 29  1  0  0  0
 27 30  1  0  0  0
 29 63  1  0  0  0
 29 64  1  0  0  0
 29 65  1  0  0  0
 30 35  1  0  0  0
 30 39  1  0  0  0
 30 31  1  0  0  0
 31 32  1  0  0  0
 31 66  1  0  0  0
 31 67  1  0  0  0
 32 38  1  0  0  0
 32 33  1  0  0  0
 32 68  1  0  0  0
 33 34  1  0  0  0
 33 69  1  0  0  0
 33 70  1  0  0  0
 34 35  1  0  0  0
 34 36  1  0  0  0
 34 71  1  0  0  0
 35 72  1  0  0  0
 35 73  1  0  0  0
 36 37  1  0  0  0
 36 74  1  0  0  0
 36 75  1  0  0  0
 37 38  1  0  0  0
 37 39  1  0  0  0
 37 76  1  0  0  0
 38 77  1  0  0  0
 38 78  1  0  0  0
 39 79  1  0  0  0
 39 80  1  0  0  0
M  CHG  1  16   1
M  END
> <i_i_glide_confnum>
190

> <i_i_glide_lignum>
6042

> <i_i_glide_posenum>
346

> <i_i_glide_rotatable_bonds>
7

> <i_m_Source_File_Index>
1189

> <b_m_subgroup_collapsed>
0

> <r_i_docking_score>
-5.56397

> <r_i_glide_ecoul>
-3.07361

> <r_i_glide_eff_state_penalty>
0

> <r_i_glide_einternal>
5.37836

> <r_i_glide_emodel>
-53.9104

> <r_i_glide_energy>
-39.9026

> <r_i_glide_erotb>
0.469603

> <r_i_glide_esite>
0

> <r_i_glide_evdw>
-36.829

> <r_i_glide_gscore>
-5.56397

> <r_i_glide_hbond>
-0.32

> <r_i_glide_ligand_efficiency>
-0.14642

> <r_i_glide_ligand_efficiency_ln>
-1.19976

> <r_i_glide_ligand_efficiency_sa>
-0.492261

> <r_i_glide_lipo>
-2.81538

> <r_i_glide_metal>
0

> <r_i_glide_rewards>
-0.595708

> <s_i_glide_gridfile>
wee1_glide-grid

> <s_m_Source_File>
wee1_decoys_glide_SP.sdf

> <s_m_Source_Path>
/Users/zhangxujun/Desktop

> <s_m_entry_id>
1464

> <s_m_entry_name>
wee1_decoys_glide_SP.1189

> <s_m_subgroup_title>
wee1_decoys_glide_SP

> <s_m_subgroupid>
wee1_decoys_glide_SP


$$$$
