ZINC20877125_615
                    3D
 Schrodinger Suite 2024-2.
 59 62  0  0  1  0            999 V2000
    7.1801   55.4473   22.2879 C   0  0  0  0  0  0
    6.4745   54.7601   23.3126 O   0  0  0  0  0  0
    5.2345   54.2434   23.0079 C   0  0  0  0  0  0
    4.8703   53.8562   21.7071 C   0  0  0  0  0  0
    3.5701   53.4352   21.4227 C   0  0  0  0  0  0
    2.6264   53.4086   22.4521 C   0  0  0  0  0  0
    2.9839   53.7465   23.7563 C   0  0  0  0  0  0
    4.2901   54.1621   24.0430 C   0  0  0  0  0  0
    4.6054   54.5775   25.3208 O   0  0  0  0  0  0
    5.4514   53.6967   26.0586 C   0  0  0  0  0  0
    5.6124   54.0638   27.5423 C   0  0  2  0  0  0
    6.2799   53.3205   27.9842 H   0  0  0  0  0  0
    4.2804   54.0294   28.2969 C   0  0  0  0  0  0
    3.2323   54.8966   27.9624 C   0  0  0  0  0  0
    2.0089   54.8485   28.6277 C   0  0  0  0  0  0
    1.8087   53.8940   29.6172 C   0  0  0  0  0  0
    2.8385   52.9988   29.9495 C   0  0  0  0  0  0
    4.0666   53.0666   29.2916 C   0  0  0  0  0  0
    2.6661   51.9885   30.8688 O   0  0  0  0  0  0
    1.5417   52.1745   31.7339 C   0  0  0  0  0  0
    0.3029   52.6956   30.9741 C   0  0  0  0  0  0
    0.6003   53.9105   30.2799 O   0  0  0  0  0  0
    6.3035   55.2965   27.6275 O   0  0  0  0  0  0
    1.6594   53.6693   25.1198 Br  0  0  0  0  0  0
    3.1611   53.1373   19.9834 C   0  0  0  0  0  0
    3.4105   51.6994   19.4933 N   0  3  0  0  0  0
    2.4568   50.6270   20.0425 C   0  0  0  0  0  0
    2.4794   49.2773   19.3225 C   0  0  0  0  0  0
    1.7456   48.3428   20.2831 C   0  0  0  0  0  0
    2.1988   48.7985   21.6767 C   0  0  0  0  0  0
    2.5125   50.2927   21.5455 C   0  0  0  0  0  0
    7.9044   56.0973   22.7658 H   0  0  0  0  0  0
    7.7281   54.7708   21.6367 H   0  0  0  0  0  0
    6.5330   56.0854   21.6821 H   0  0  0  0  0  0
    5.5882   53.9147   20.9026 H   0  0  0  0  0  0
    1.6017   53.1384   22.2405 H   0  0  0  0  0  0
    6.4294   53.5983   25.5843 H   0  0  0  0  0  0
    4.9848   52.7243   26.0818 H   0  0  0  0  0  0
    3.3468   55.5979   27.1538 H   0  0  0  0  0  0
    1.2154   55.5328   28.3623 H   0  0  0  0  0  0
    4.8389   52.3543   29.5459 H   0  0  0  0  0  0
    1.3170   51.2732   32.2908 H   0  0  0  0  0  0
    1.8137   52.8967   32.4828 H   0  0  0  0  0  0
   -0.0446   51.9387   30.2677 H   0  0  0  0  0  0
   -0.4961   52.8967   31.6812 H   0  0  0  0  0  0
    6.6258   55.4424   28.5288 H   0  0  0  0  0  0
    2.0980   53.2966   19.8115 H   0  0  0  0  0  0
    3.7180   53.7602   19.2814 H   0  0  0  0  0  0
    3.3205   51.6781   18.4847 H   0  0  0  0  0  0
    1.4579   51.0348   19.8556 H   0  0  0  0  0  0
    2.0180   49.3135   18.3342 H   0  0  0  0  0  0
    3.5040   48.9301   19.1872 H   0  0  0  0  0  0
    0.6661   48.4658   20.1770 H   0  0  0  0  0  0
    1.9767   47.2964   20.0868 H   0  0  0  0  0  0
    1.4395   48.6152   22.4397 H   0  0  0  0  0  0
    3.0935   48.2553   21.9822 H   0  0  0  0  0  0
    3.5041   50.4911   21.9516 H   0  0  0  0  0  0
    1.8029   50.8906   22.1172 H   0  0  0  0  0  0
    4.3713   51.4196   19.6458 H   0  0  0  0  0  0
  1  2  1  0  0  0
  1 32  1  0  0  0
  1 33  1  0  0  0
  1 34  1  0  0  0
  2  3  1  0  0  0
  3  8  2  0  0  0
  3  4  1  0  0  0
  4  5  2  0  0  0
  4 35  1  0  0  0
  5  6  1  0  0  0
  5 25  1  0  0  0
  6  7  2  0  0  0
  6 36  1  0  0  0
  7  8  1  0  0  0
  7 24  1  0  0  0
  8  9  1  0  0  0
  9 10  1  0  0  0
 10 11  1  0  0  0
 10 37  1  0  0  0
 10 38  1  0  0  0
 11 12  1  0  0  0
 11 13  1  0  0  0
 11 23  1  0  0  0
 13 18  2  0  0  0
 13 14  1  0  0  0
 14 15  2  0  0  0
 14 39  1  0  0  0
 15 16  1  0  0  0
 15 40  1  0  0  0
 16 22  1  0  0  0
 16 17  2  0  0  0
 17 18  1  0  0  0
 17 19  1  0  0  0
 18 41  1  0  0  0
 19 20  1  0  0  0
 20 21  1  0  0  0
 20 42  1  0  0  0
 20 43  1  0  0  0
 21 22  1  0  0  0
 21 44  1  0  0  0
 21 45  1  0  0  0
 23 46  1  0  0  0
 25 26  1  0  0  0
 25 47  1  0  0  0
 25 48  1  0  0  0
 26 27  1  0  0  0
 26 49  1  0  0  0
 26 59  1  0  0  0
 27 31  1  0  0  0
 27 28  1  0  0  0
 27 50  1  0  0  0
 28 29  1  0  0  0
 28 51  1  0  0  0
 28 52  1  0  0  0
 29 30  1  0  0  0
 29 53  1  0  0  0
 29 54  1  0  0  0
 30 31  1  0  0  0
 30 55  1  0  0  0
 30 56  1  0  0  0
 31 57  1  0  0  0
 31 58  1  0  0  0
M  CHG  1  26   1
M  END
> <i_i_glide_confnum>
227

> <i_i_glide_lignum>
616

> <i_i_glide_posenum>
290

> <i_i_glide_rotatable_bonds>
9

> <i_m_Source_File_Index>
3879

> <b_m_subgroup_collapsed>
0

> <r_i_docking_score>
-6.84643

> <r_i_glide_ecoul>
-11.1799

> <r_i_glide_eff_state_penalty>
0

> <r_i_glide_einternal>
3.96246

> <r_i_glide_emodel>
-67.5667

> <r_i_glide_energy>
-47.2416

> <r_i_glide_erotb>
0.529258

> <r_i_glide_esite>
-0.0891514

> <r_i_glide_evdw>
-36.0617

> <r_i_glide_gscore>
-6.84643

> <r_i_glide_hbond>
-0.372922

> <r_i_glide_ligand_efficiency>
-0.228214

> <r_i_glide_ligand_efficiency_ln>
-1.55558

> <r_i_glide_ligand_efficiency_sa>
-0.709115

> <r_i_glide_lipo>
-3.23194

> <r_i_glide_metal>
0

> <r_i_glide_rewards>
-0.201604

> <s_i_glide_gridfile>
wee1_glide-grid

> <s_m_Source_File>
wee1_decoys_glide_SP.sdf

> <s_m_Source_Path>
/Users/zhangxujun/Desktop

> <s_m_entry_id>
4154

> <s_m_entry_name>
wee1_decoys_glide_SP.3879

> <s_m_subgroup_title>
wee1_decoys_glide_SP

> <s_m_subgroupid>
wee1_decoys_glide_SP


$$$$
