@<TRIPOS>MOLECULE
ZINC13266873_5887
50   53    1
SMALL
USER_CHARGES


@<TRIPOS>ATOM
      1 C1          2.3040   51.2986   17.4086 C.3       1 UNK         0.0000 
      2 C2          1.9164   51.1877   18.8709 C.ar      1 UNK         0.0000 
      3 C3          1.1846   52.2064   19.4787 C.ar      1 UNK         0.0000 
      4 C4          0.8486   52.1270   20.8300 C.ar      1 UNK         0.0000 
      5 C5          1.2373   51.0174   21.5922 C.ar      1 UNK         0.0000 
      6 C6          1.9468   49.9841   20.9685 C.ar      1 UNK         0.0000 
      7 C7          2.2894   50.0695   19.6179 C.ar      1 UNK         0.0000 
      8 F8          2.3054   48.8927   21.6807 F         1 UNK         0.0000 
      9 N9          0.9916   50.8698   22.9700 N.am      1 UNK         0.0000 
     10 C10         0.2070   51.5917   23.8001 C.2       1 UNK         0.0000 
     11 O11        -0.5366   52.5137   23.4569 O.2       1 UNK         0.0000 
     12 C12         0.2684   51.1597   25.2691 C.3       1 UNK         0.0000 
     13 S13         0.3429   52.4946   26.5177 S.3       1 UNK         0.0000 
     14 C14         2.0183   53.2004   26.3498 C.ar      1 UNK         0.0000 
     15 N15         2.5004   53.2972   25.1637 N.2       1 UNK         0.0000 
     16 C16         3.7628   53.8550   24.9388 C.ar      1 UNK         0.0000 
     17 C17         4.2217   53.9707   23.6288 C.ar      1 UNK         0.0000 
     18 C18         5.4998   54.4967   23.3652 C.ar      1 UNK         0.0000 
     19 C19         6.3029   54.8946   24.4476 C.ar      1 UNK         0.0000 
     20 C20         5.8462   54.7907   25.7599 C.ar      1 UNK         0.0000 
     21 C21         4.5711   54.2706   25.9953 C.ar      1 UNK         0.0000 
     22 C22         4.0400   54.1406   27.4016 C.ar      1 UNK         0.0000 
     23 O23         4.6955   54.4967   28.3874 O.2       1 UNK         0.0000 
     24 N24         2.7677   53.5912   27.4622 N.pl3     1 UNK         0.0000 
     25 C25         2.2491   53.3766   28.7635 C.ar      1 UNK         0.0000 
     26 C26         1.1502   54.1238   29.2100 C.ar      1 UNK         0.0000 
     27 C27         0.6084   53.8689   30.4644 C.ar      1 UNK         0.0000 
     28 C28         1.1862   52.8972   31.2781 C.ar      1 UNK         0.0000 
     29 C29         2.3125   52.1935   30.8696 C.ar      1 UNK         0.0000 
     30 C30         2.8309   52.4087   29.5983 C.ar      1 UNK         0.0000 
     31 F31         0.7044   52.7043   32.5170 F         1 UNK         0.0000 
     32 C32         5.9796   54.6980   21.9571 C.2       1 UNK         0.0000 
     33 O33         6.8339   55.5946   21.7559 O.co2     1 UNK         0.0000 
     34 H34         1.6810   52.0196   16.8784 H         1 UNK         0.0000 
     35 H35         2.1807   50.3392   16.9055 H         1 UNK         0.0000 
     36 H36         3.3477   51.5951   17.3154 H         1 UNK         0.0000 
     37 H37         0.9051   53.0850   18.9157 H         1 UNK         0.0000 
     38 H38         0.3216   52.9586   21.2691 H         1 UNK         0.0000 
     39 H39         2.8615   49.2770   19.1542 H         1 UNK         0.0000 
     40 H40         1.4798   50.0855   23.3812 H         1 UNK         0.0000 
     41 H41        -0.6316   50.5783   25.4665 H         1 UNK         0.0000 
     42 H42         1.1043   50.4844   25.4356 H         1 UNK         0.0000 
     43 H43         3.5805   53.6579   22.8159 H         1 UNK         0.0000 
     44 H44         7.2884   55.3041   24.2624 H         1 UNK         0.0000 
     45 H45         6.4819   55.1071   26.5755 H         1 UNK         0.0000 
     46 H46         0.7083   54.8802   28.5770 H         1 UNK         0.0000 
     47 H47        -0.2401   54.4336   30.8176 H         1 UNK         0.0000 
     48 H48         2.7791   51.5040   31.5561 H         1 UNK         0.0000 
     49 H49         3.6911   51.8429   29.2671 H         1 UNK         0.0000 
     50 O50         5.5017   53.9642   21.0627 O.co2     1 UNK         0.0000 
@<TRIPOS>BOND
     1    1    2 1    
     2    1   34 1    
     3    1   35 1    
     4    1   36 1    
     5    2    7 ar   
     6    2    3 ar   
     7    3    4 ar   
     8    3   37 1    
     9    4    5 ar   
    10    4   38 1    
    11    5    6 ar   
    12    5    9 1    
    13    6    7 ar   
    14    6    8 1    
    15    7   39 1    
    16    9   10 am   BACKBONE|DICT|INTERRES
    17    9   40 1    
    18   10   11 2    
    19   10   12 1    
    20   12   13 1    
    21   12   41 1    
    22   12   42 1    
    23   13   14 1    
    24   14   24 ar   
    25   14   15 ar   
    26   15   16 ar   
    27   16   21 ar   
    28   16   17 ar   
    29   17   18 ar   
    30   17   43 1    
    31   18   19 ar   
    32   18   32 1    
    33   19   20 ar   
    34   19   44 1    
    35   20   21 ar   
    36   20   45 1    
    37   21   22 ar   
    38   22   23 2    
    39   22   24 ar   
    40   24   25 1    
    41   25   30 ar   
    42   25   26 ar   
    43   26   27 ar   
    44   26   46 1    
    45   27   28 ar   
    46   27   47 1    
    47   28   29 ar   
    48   28   31 1    
    49   29   30 ar   
    50   29   48 1    
    51   30   49 1    
    52   32   33 2    
    53   32   50 1    
@<TRIPOS>SUBSTRUCTURE
     1 UNK         1 GROUP             0       ****    0 ROOT    
