@<TRIPOS>MOLECULE
ZINC13096565_4423
54   58    1
SMALL
USER_CHARGES


@<TRIPOS>ATOM
      1 C1          0.7039   54.2385   30.7756 C.ar      1 UNK         0.0000 
      2 C2          1.3169   55.3436   30.1873 C.ar      1 UNK         0.0000 
      3 C3          2.3496   55.1541   29.2756 C.ar      1 UNK         0.0000 
      4 C4          2.7500   53.8594   28.9242 C.ar      1 UNK         0.0000 
      5 C5          2.1323   52.7547   29.5238 C.ar      1 UNK         0.0000 
      6 C6          1.1135   52.9443   30.4544 C.ar      1 UNK         0.0000 
      7 C7          3.7883   53.6502   27.8223 C.3       1 UNK         0.0000 
      8 H8          4.0868   52.6009   27.8613 H         1 UNK         0.0000 
      9 C9          3.1519   53.9480   26.4426 C.3       1 UNK         0.0000 
     10 C10         4.1878   54.0872   25.3412 C.ar      1 UNK         0.0000 
     11 C11         3.8268   53.9385   24.0042 C.ar      1 UNK         0.0000 
     12 C12         4.7771   53.9892   22.9711 C.ar      1 UNK         0.0000 
     13 C13         6.1032   54.2851   23.3072 C.ar      1 UNK         0.0000 
     14 C14         6.4736   54.4610   24.6384 C.ar      1 UNK         0.0000 
     15 C15         5.5283   54.3301   25.6645 C.ar      1 UNK         0.0000 
     16 C16         5.9421   54.3948   27.0965 C.2       1 UNK         0.0000 
     17 O17         7.1047   54.4964   27.4748 O.2       1 UNK         0.0000 
     18 O18         4.9675   54.4362   28.0512 O.3       1 UNK         0.0000 
     19 C19         4.3999   53.6975   21.5350 C.2       1 UNK         0.0000 
     20 O20         5.1073   54.1030   20.6112 O.2       1 UNK         0.0000 
     21 N21         3.2802   52.9531   21.3957 N.am      1 UNK         0.0000 
     22 C22         2.6371   52.4966   20.2468 C.2       1 UNK         0.0000 
     23 C23         1.3714   51.8731   20.2058 C.2       1 UNK         0.0000 
     24 C24         0.9412   51.6326   18.8737 C.2       1 UNK         0.0000 
     25 C25         1.9162   51.9840   17.9279 C.2       1 UNK         0.0000 
     26 S26         3.3022   52.7164   18.6511 S.3       1 UNK         0.0000 
     27 C27         1.7820   51.8212   16.4226 C.3       1 UNK         0.0000 
     28 C28         0.6565   50.8123   16.1250 C.3       1 UNK         0.0000 
     29 C29        -0.6170   51.1388   16.9207 C.3       1 UNK         0.0000 
     30 C30        -0.4063   51.0303   18.4474 C.3       1 UNK         0.0000 
     31 C31         0.5445   51.6088   21.3709 C.2       1 UNK         0.0000 
     32 O32        -0.6659   51.8228   21.3905 O.2       1 UNK         0.0000 
     33 N33         1.1860   51.1242   22.4379 N.am      1 UNK         0.0000 
     34 H34        -0.0914   54.3823   31.4941 H         1 UNK         0.0000 
     35 H35         0.9993   56.3425   30.4490 H         1 UNK         0.0000 
     36 H36         2.8168   56.0140   28.8211 H         1 UNK         0.0000 
     37 H37         2.4215   51.7484   29.2551 H         1 UNK         0.0000 
     38 H38         0.6291   52.0983   30.9187 H         1 UNK         0.0000 
     39 H39         2.6425   54.8963   26.5030 H         1 UNK         0.0000 
     40 H40         2.4004   53.1971   26.1935 H         1 UNK         0.0000 
     41 H41         2.7850   53.7519   23.7855 H         1 UNK         0.0000 
     42 H42         6.8631   54.3589   22.5413 H         1 UNK         0.0000 
     43 H43         7.5135   54.6538   24.8583 H         1 UNK         0.0000 
     44 H44         2.7843   52.7514   22.2489 H         1 UNK         0.0000 
     45 H45         2.7182   51.4773   15.9816 H         1 UNK         0.0000 
     46 H46         1.5436   52.7813   15.9638 H         1 UNK         0.0000 
     47 H47         0.9917   49.8013   16.3665 H         1 UNK         0.0000 
     48 H48         0.4405   50.8111   15.0551 H         1 UNK         0.0000 
     49 H49        -1.4284   50.4763   16.6183 H         1 UNK         0.0000 
     50 H50        -0.9467   52.1492   16.6699 H         1 UNK         0.0000 
     51 H51        -1.2379   51.5256   18.9463 H         1 UNK         0.0000 
     52 H52        -0.4428   49.9830   18.7483 H         1 UNK         0.0000 
     53 H53         2.1298   50.7766   22.3436 H         1 UNK         0.0000 
     54 H54         0.6584   50.9222   23.2755 H         1 UNK         0.0000 
@<TRIPOS>BOND
     1    1    6 ar   
     2    1    2 ar   
     3    1   34 1    
     4    2    3 ar   
     5    2   35 1    
     6    3    4 ar   
     7    3   36 1    
     8    4    5 ar   
     9    4    7 1    
    10    5    6 ar   
    11    5   37 1    
    12    6   38 1    
    13    7    8 1    
    14    7   18 1    
    15    7    9 1    
    16    9   10 1    
    17    9   39 1    
    18    9   40 1    
    19   10   15 ar   
    20   10   11 ar   
    21   11   12 ar   
    22   11   41 1    
    23   12   13 ar   
    24   12   19 1    
    25   13   14 ar   
    26   13   42 1    
    27   14   15 ar   
    28   14   43 1    
    29   15   16 1    
    30   16   17 2    
    31   16   18 1    
    32   19   20 2    
    33   19   21 am   BACKBONE|DICT|INTERRES
    34   21   22 am   BACKBONE|DICT|INTERRES
    35   21   44 1    
    36   22   26 1    
    37   22   23 2    
    38   23   24 1    
    39   23   31 1    
    40   24   30 1    
    41   24   25 2    
    42   25   26 1    
    43   25   27 1    
    44   27   28 1    
    45   27   45 1    
    46   27   46 1    
    47   28   29 1    
    48   28   47 1    
    49   28   48 1    
    50   29   30 1    
    51   29   49 1    
    52   29   50 1    
    53   30   51 1    
    54   30   52 1    
    55   31   32 2    
    56   31   33 am   BACKBONE|DICT|INTERRES
    57   33   53 1    
    58   33   54 1    
@<TRIPOS>SUBSTRUCTURE
     1 UNK         1 GROUP             0       ****    0 ROOT    
