ZINC16573745_4483
                    3D
 Schrodinger Suite 2024-2.
 58 60  0  0  1  0            999 V2000
    2.5536   53.8299   16.0497 C   0  0  0  0  0  0
    4.0014   53.3494   16.2356 C   0  0  0  0  0  0
    4.6971   53.8630   17.5207 C   0  0  2  0  0  0
    4.7050   54.9541   17.4349 H   0  0  0  0  0  0
    6.1860   53.4219   17.4898 C   0  0  0  0  0  0
    3.8914   53.5245   18.8328 C   0  0  2  0  0  0
    2.9614   54.0918   18.7685 H   0  0  0  0  0  0
    4.5623   54.0852   20.1267 C   0  0  0  0  0  0
    5.4890   54.8959   20.0537 O   0  0  0  0  0  0
    4.0346   53.6560   21.2909 N   0  0  0  0  0  0
    4.4816   53.9827   22.5566 C   0  0  0  0  0  0
    5.7090   54.2856   22.9197 N   0  0  0  0  0  0
    5.8154   54.4963   24.2882 N   0  0  0  0  0  0
    4.6716   54.3489   24.9206 C   0  0  0  0  0  0
    3.3344   53.9761   23.8537 S   0  0  0  0  0  0
    4.5090   54.4149   26.4097 C   0  0  0  0  0  0
    5.6405   54.4260   27.2373 C   0  0  0  0  0  0
    5.5041   54.4668   28.6231 C   0  0  0  0  0  0
    4.2387   54.4961   29.2034 C   0  0  0  0  0  0
    3.1050   54.4986   28.3960 C   0  0  0  0  0  0
    3.2418   54.4527   27.0086 C   0  0  0  0  0  0
    1.3727   54.5834   29.1810 Br  0  0  0  0  0  0
    3.5044   52.0971   18.8926 N   0  0  0  0  0  0
    2.4495   51.5750   19.5366 C   0  0  0  0  0  0
    1.7153   52.2398   20.2671 O   0  0  0  0  0  0
    2.3047   50.2613   19.2676 N   0  0  0  0  0  0
    1.3000   49.3714   19.7128 C   0  0  0  0  0  0
    0.4999   49.6237   20.8418 C   0  0  0  0  0  0
   -0.5093   48.7403   21.2162 C   0  0  0  0  0  0
   -0.7325   47.5797   20.4805 C   0  0  0  0  0  0
    0.0705   47.3024   19.3711 C   0  0  0  0  0  0
    1.0896   48.1812   18.9882 C   0  0  0  0  0  0
    1.9398   47.8176   17.7784 C   0  0  0  0  0  0
   -1.8376   46.6225   20.8850 C   0  0  0  0  0  0
    2.1811   53.5601   15.0609 H   0  0  0  0  0  0
    1.8819   53.3824   16.7845 H   0  0  0  0  0  0
    2.4820   54.9135   16.1445 H   0  0  0  0  0  0
    4.5750   53.6687   15.3628 H   0  0  0  0  0  0
    4.0215   52.2583   16.2140 H   0  0  0  0  0  0
    6.3034   52.3473   17.6102 H   0  0  0  0  0  0
    6.6437   53.6827   16.5336 H   0  0  0  0  0  0
    6.7953   53.8998   18.2540 H   0  0  0  0  0  0
    3.1956   53.0919   21.2229 H   0  0  0  0  0  0
    6.6328   54.3918   26.8148 H   0  0  0  0  0  0
    6.3823   54.4771   29.2500 H   0  0  0  0  0  0
    4.1442   54.5210   30.2766 H   0  0  0  0  0  0
    2.3492   54.4489   26.4038 H   0  0  0  0  0  0
    4.1809   51.4529   18.4830 H   0  0  0  0  0  0
    2.9305   49.8831   18.5662 H   0  0  0  0  0  0
    0.6485   50.4992   21.4550 H   0  0  0  0  0  0
   -1.1127   48.9613   22.0851 H   0  0  0  0  0  0
   -0.0974   46.3963   18.8067 H   0  0  0  0  0  0
    1.9005   48.6134   17.0314 H   0  0  0  0  0  0
    2.9830   47.6957   18.0805 H   0  0  0  0  0  0
    1.6201   46.8907   17.2968 H   0  0  0  0  0  0
   -2.7012   47.1761   21.2571 H   0  0  0  0  0  0
   -1.4907   45.9532   21.6731 H   0  0  0  0  0  0
   -2.1819   46.0309   20.0357 H   0  0  0  0  0  0
  1  2  1  0  0  0
  1 35  1  0  0  0
  1 36  1  0  0  0
  1 37  1  0  0  0
  2  3  1  0  0  0
  2 38  1  0  0  0
  2 39  1  0  0  0
  3  4  1  0  0  0
  3  5  1  0  0  0
  3  6  1  0  0  0
  5 40  1  0  0  0
  5 41  1  0  0  0
  5 42  1  0  0  0
  6  7  1  0  0  0
  6  8  1  0  0  0
  6 23  1  0  0  0
  8  9  2  0  0  0
  8 10  1  0  0  0
 10 11  1  0  0  0
 10 43  1  0  0  0
 11 15  1  0  0  0
 11 12  2  0  0  0
 12 13  1  0  0  0
 13 14  2  0  0  0
 14 15  1  0  0  0
 14 16  1  0  0  0
 16 21  2  0  0  0
 16 17  1  0  0  0
 17 18  2  0  0  0
 17 44  1  0  0  0
 18 19  1  0  0  0
 18 45  1  0  0  0
 19 20  2  0  0  0
 19 46  1  0  0  0
 20 21  1  0  0  0
 20 22  1  0  0  0
 21 47  1  0  0  0
 23 24  1  0  0  0
 23 48  1  0  0  0
 24 25  2  0  0  0
 24 26  1  0  0  0
 26 27  1  0  0  0
 26 49  1  0  0  0
 27 32  2  0  0  0
 27 28  1  0  0  0
 28 29  2  0  0  0
 28 50  1  0  0  0
 29 30  1  0  0  0
 29 51  1  0  0  0
 30 31  2  0  0  0
 30 34  1  0  0  0
 31 32  1  0  0  0
 31 52  1  0  0  0
 32 33  1  0  0  0
 33 53  1  0  0  0
 33 54  1  0  0  0
 33 55  1  0  0  0
 34 56  1  0  0  0
 34 57  1  0  0  0
 34 58  1  0  0  0
M  END
> <i_i_glide_confnum>
194

> <i_i_glide_lignum>
4484

> <i_i_glide_posenum>
275

> <i_i_glide_rotatable_bonds>
10

> <i_m_Source_File_Index>
271

> <b_m_subgroup_collapsed>
0

> <r_i_docking_score>
-5.03127

> <r_i_glide_ecoul>
-5.32628

> <r_i_glide_eff_state_penalty>
0

> <r_i_glide_einternal>
6.72999

> <r_i_glide_emodel>
-59.7016

> <r_i_glide_energy>
-46.6898

> <r_i_glide_erotb>
0.692588

> <r_i_glide_esite>
-0.212518

> <r_i_glide_evdw>
-41.3635

> <r_i_glide_gscore>
-5.03127

> <r_i_glide_hbond>
-0.175991

> <r_i_glide_ligand_efficiency>
-0.157227

> <r_i_glide_ligand_efficiency_ln>
-1.12664

> <r_i_glide_ligand_efficiency_sa>
-0.499165

> <r_i_glide_lipo>
-2.34806

> <r_i_glide_metal>
0

> <r_i_glide_rewards>
-0.12017

> <s_i_glide_gridfile>
wee1_glide-grid

> <s_m_Source_File>
wee1_decoys_glide_SP.sdf

> <s_m_Source_Path>
/Users/zhangxujun/Desktop

> <s_m_entry_id>
546

> <s_m_entry_name>
wee1_decoys_glide_SP.271

> <s_m_subgroup_title>
wee1_decoys_glide_SP

> <s_m_subgroupid>
wee1_decoys_glide_SP


$$$$
