ZINC40112198_3333
                    3D
 Schrodinger Suite 2024-2.
 61 64  0  0  1  0            999 V2000
    2.7144   53.8258   26.5743 C   0  0  0  0  0  0
    2.7051   53.8664   25.0662 C   0  0  0  0  0  0
    1.7269   54.0558   24.1100 C   0  0  0  0  0  0
    2.3671   54.0011   22.8760 C   0  0  0  0  0  0
    3.7183   53.7835   23.1044 C   0  0  0  0  0  0
    3.9025   53.6968   24.4504 O   0  0  0  0  0  0
    4.9633   53.5924   22.2245 C   0  0  1  0  0  0
    5.2736   52.5543   22.3596 H   0  0  0  0  0  0
    4.8302   53.9085   20.7496 C   0  0  0  0  0  0
    5.6627   54.9354   20.4892 C   0  0  0  0  0  0
    6.4957   55.2756   21.6282 C   0  0  0  0  0  0
    7.4132   56.0967   21.7012 O   0  0  0  0  0  0
    6.0686   54.4535   22.6149 N   0  0  0  0  0  0
    6.7066   54.3765   23.9354 C   0  0  0  0  0  0
    6.3832   55.5757   24.8466 C   0  0  0  0  0  0
    6.7046   55.2912   26.1900 O   0  0  0  0  0  0
    5.8580   55.5978   19.4016 O   0  5  0  0  0  0
    3.9232   53.1399   19.8677 C   0  0  0  0  0  0
    3.0719   52.4134   20.3838 O   0  0  0  0  0  0
    3.9505   53.2845   18.3715 C   0  0  0  0  0  0
    5.1584   53.2982   17.6599 C   0  0  0  0  0  0
    5.1629   53.3207   16.2678 C   0  0  0  0  0  0
    3.9558   53.2982   15.5693 C   0  0  0  0  0  0
    2.7463   53.2654   16.2653 C   0  0  0  0  0  0
    2.7445   53.2542   17.6584 C   0  0  0  0  0  0
    3.9622   53.3050   13.7755 S   0  0  0  0  0  0
    2.5930   53.0092   13.3342 O   0  0  0  0  0  0
    4.6193   54.5520   13.3670 O   0  0  0  0  0  0
    4.9983   51.9438   13.2886 N   0  0  0  0  0  0
    6.4318   52.2355   13.0020 C   0  0  0  0  0  0
    7.4354   51.1555   13.4469 C   0  0  0  0  0  0
    7.4837   49.8930   12.5650 C   0  0  0  0  0  0
    6.2867   48.9376   12.6882 C   0  0  0  0  0  0
    4.9042   49.5565   12.4182 C   0  0  0  0  0  0
    4.4521   50.5743   13.4782 C   0  0  0  0  0  0
    1.7089   53.9061   26.9888 H   0  0  0  0  0  0
    3.3008   54.6482   26.9865 H   0  0  0  0  0  0
    3.1441   52.8968   26.9484 H   0  0  0  0  0  0
    0.6741   54.2149   24.2874 H   0  0  0  0  0  0
    1.8999   54.0968   21.9096 H   0  0  0  0  0  0
    6.3926   53.4505   24.4184 H   0  0  0  0  0  0
    7.7831   54.2882   23.7960 H   0  0  0  0  0  0
    6.8363   56.4959   24.4813 H   0  0  0  0  0  0
    5.3123   55.7671   24.8292 H   0  0  0  0  0  0
    6.0896   54.6286   26.5171 H   0  0  0  0  0  0
    6.1044   53.2574   18.1796 H   0  0  0  0  0  0
    6.1043   53.3324   15.7398 H   0  0  0  0  0  0
    1.8058   53.2410   15.7337 H   0  0  0  0  0  0
    1.7985   53.2114   18.1803 H   0  0  0  0  0  0
    6.5326   52.3398   11.9207 H   0  0  0  0  0  0
    6.6987   53.1916   13.4550 H   0  0  0  0  0  0
    8.4295   51.6049   13.4187 H   0  0  0  0  0  0
    7.2678   50.8982   14.4904 H   0  0  0  0  0  0
    7.6094   50.1852   11.5215 H   0  0  0  0  0  0
    8.3852   49.3325   12.8179 H   0  0  0  0  0  0
    6.2902   48.4884   13.6818 H   0  0  0  0  0  0
    6.4383   48.1054   11.9990 H   0  0  0  0  0  0
    4.1786   48.7416   12.4100 H   0  0  0  0  0  0
    4.8634   49.9981   11.4207 H   0  0  0  0  0  0
    4.6982   50.2287   14.4817 H   0  0  0  0  0  0
    3.3650   50.6431   13.4330 H   0  0  0  0  0  0
  1  2  1  0  0  0
  1 36  1  0  0  0
  1 37  1  0  0  0
  1 38  1  0  0  0
  2  6  1  0  0  0
  2  3  2  0  0  0
  3  4  1  0  0  0
  3 39  1  0  0  0
  4  5  2  0  0  0
  4 40  1  0  0  0
  5  6  1  0  0  0
  5  7  1  0  0  0
  7  8  1  0  0  0
  7 13  1  0  0  0
  7  9  1  0  0  0
  9 10  2  0  0  0
  9 18  1  0  0  0
 10 11  1  0  0  0
 10 17  1  0  0  0
 11 12  2  0  0  0
 11 13  1  0  0  0
 13 14  1  0  0  0
 14 15  1  0  0  0
 14 41  1  0  0  0
 14 42  1  0  0  0
 15 16  1  0  0  0
 15 43  1  0  0  0
 15 44  1  0  0  0
 16 45  1  0  0  0
 18 19  2  0  0  0
 18 20  1  0  0  0
 20 25  2  0  0  0
 20 21  1  0  0  0
 21 22  2  0  0  0
 21 46  1  0  0  0
 22 23  1  0  0  0
 22 47  1  0  0  0
 23 24  2  0  0  0
 23 26  1  0  0  0
 24 25  1  0  0  0
 24 48  1  0  0  0
 25 49  1  0  0  0
 26 27  2  0  0  0
 26 28  2  0  0  0
 26 29  1  0  0  0
 29 35  1  0  0  0
 29 30  1  0  0  0
 30 31  1  0  0  0
 30 50  1  0  0  0
 30 51  1  0  0  0
 31 32  1  0  0  0
 31 52  1  0  0  0
 31 53  1  0  0  0
 32 33  1  0  0  0
 32 54  1  0  0  0
 32 55  1  0  0  0
 33 34  1  0  0  0
 33 56  1  0  0  0
 33 57  1  0  0  0
 34 35  1  0  0  0
 34 58  1  0  0  0
 34 59  1  0  0  0
 35 60  1  0  0  0
 35 61  1  0  0  0
M  CHG  1  17  -1
M  END
> <i_i_glide_confnum>
891

> <i_i_glide_lignum>
3334

> <i_i_glide_posenum>
370

> <i_i_glide_rotatable_bonds>
8

> <i_m_Source_File_Index>
4294

> <b_m_subgroup_collapsed>
0

> <r_i_docking_score>
-4.46357

> <r_i_glide_ecoul>
-4.70143

> <r_i_glide_eff_state_penalty>
0

> <r_i_glide_einternal>
5.87244

> <r_i_glide_emodel>
-47.5158

> <r_i_glide_energy>
-40.4432

> <r_i_glide_erotb>
0.598696

> <r_i_glide_esite>
-0.0190396

> <r_i_glide_evdw>
-35.7418

> <r_i_glide_gscore>
-4.46357

> <r_i_glide_hbond>
-0.375145

> <r_i_glide_ligand_efficiency>
-0.131281

> <r_i_glide_ligand_efficiency_ln>
-0.986128

> <r_i_glide_ligand_efficiency_sa>
-0.425301

> <r_i_glide_lipo>
-2.26775

> <r_i_glide_metal>
0

> <r_i_glide_rewards>
0.0919716

> <s_i_glide_gridfile>
wee1_glide-grid

> <s_m_Source_File>
wee1_decoys_glide_SP.sdf

> <s_m_Source_Path>
/Users/zhangxujun/Desktop

> <s_m_entry_id>
4569

> <s_m_entry_name>
wee1_decoys_glide_SP.4294

> <s_m_subgroup_title>
wee1_decoys_glide_SP

> <s_m_subgroupid>
wee1_decoys_glide_SP


$$$$
