@<TRIPOS>MOLECULE
ZINC17082478_2601
53   56    1
SMALL
USER_CHARGES


@<TRIPOS>ATOM
      1 C1          7.5332   52.7501   16.7478 C.3       1 UNK         0.0000 
      2 C2          6.6601   53.8510   17.3447 C.2       1 UNK         0.0000 
      3 C3          6.1956   54.9339   16.6570 C.2       1 UNK         0.0000 
      4 C4          5.3725   56.0433   17.3313 C.3       1 UNK         0.0000 
      5 C5          5.4959   56.0466   18.8787 C.3       1 UNK         0.0000 
      6 H6          4.7043   56.6970   19.2402 H         1 UNK         0.0000 
      7 C7          5.3396   54.5934   19.4275 C.3       1 UNK         0.0000 
      8 H8          4.3914   54.1889   19.0704 H         1 UNK         0.0000 
      9 C9          6.4653   53.6964   18.8549 C.3       1 UNK         0.0000 
     10 C10         5.2881   54.4969   20.9826 C.2       1 UNK         0.0000 
     11 O11         6.3044   54.6714   21.6572 O.2       1 UNK         0.0000 
     12 N12         4.0880   54.1590   21.5049 N.am      1 UNK         0.0000 
     13 C13         3.7383   53.9422   22.8423 C.2       1 UNK         0.0000 
     14 C14         2.5676   53.2824   23.2988 C.2       1 UNK         0.0000 
     15 C15         2.4434   53.4106   24.6997 C.2       1 UNK         0.0000 
     16 C16         3.5254   53.9989   25.3068 C.2       1 UNK         0.0000 
     17 S17         4.7332   54.4967   24.1860 S.3       1 UNK         0.0000 
     18 C18         3.4283   54.0247   26.8066 C.3       1 UNK         0.0000 
     19 C19         1.9663   53.6106   27.0365 C.3       1 UNK         0.0000 
     20 C20         1.4654   52.9299   25.7490 C.3       1 UNK         0.0000 
     21 C21         1.5648   52.6184   22.4810 C.2       1 UNK         0.0000 
     22 O22         0.3944   52.4992   22.8498 O.2       1 UNK         0.0000 
     23 N23         2.0355   52.0855   21.3391 N.am      1 UNK         0.0000 
     24 C24         1.2361   51.3692   20.3549 C.3       1 UNK         0.0000 
     25 C25         1.8721   50.2000   19.6404 C.3       1 UNK         0.0000 
     26 C26         0.7903   49.9595   20.6699 C.3       1 UNK         0.0000 
     27 C27         6.7689   56.8031   19.3552 C.2       1 UNK         0.0000 
     28 O28         6.7042   57.3432   20.4815 O.co2     1 UNK         0.0000 
     29 C29         6.3497   55.1408   15.1533 C.3       1 UNK         0.0000 
     30 H30         7.1004   51.7674   16.9465 H         1 UNK         0.0000 
     31 H31         7.6996   52.8079   15.6711 H         1 UNK         0.0000 
     32 H32         8.5202   52.7708   17.2204 H         1 UNK         0.0000 
     33 H33         4.3287   55.8911   17.0521 H         1 UNK         0.0000 
     34 H34         5.6269   57.0168   16.9011 H         1 UNK         0.0000 
     35 H35         7.4301   53.9711   19.2823 H         1 UNK         0.0000 
     36 H36         6.3048   52.6516   19.1307 H         1 UNK         0.0000 
     37 H37         3.3378   54.0211   20.8436 H         1 UNK         0.0000 
     38 H38         4.1218   53.3222   27.2684 H         1 UNK         0.0000 
     39 H39         3.6245   55.0086   27.2333 H         1 UNK         0.0000 
     40 H40         1.8641   52.9556   27.9020 H         1 UNK         0.0000 
     41 H41         1.3687   54.4964   27.2501 H         1 UNK         0.0000 
     42 H42         0.4283   53.1946   25.5293 H         1 UNK         0.0000 
     43 H43         1.5033   51.8458   25.8580 H         1 UNK         0.0000 
     44 H44         2.9754   52.3193   21.0569 H         1 UNK         0.0000 
     45 H45         0.5443   52.0068   19.8021 H         1 UNK         0.0000 
     46 H46         2.9024   49.9307   19.8762 H         1 UNK         0.0000 
     47 H47         1.6513   50.0620   18.5816 H         1 UNK         0.0000 
     48 H48        -0.2009   49.6496   20.3404 H         1 UNK         0.0000 
     49 H49         1.0585   49.5274   21.6351 H         1 UNK         0.0000 
     50 H50         6.9146   56.0576   14.9674 H         1 UNK         0.0000 
     51 H51         6.8515   54.3398   14.6122 H         1 UNK         0.0000 
     52 H52         5.3657   55.2606   14.6922 H         1 UNK         0.0000 
     53 O53         7.8027   56.7768   18.6501 O.co2     1 UNK         0.0000 
@<TRIPOS>BOND
     1    1    2 1    
     2    1   30 1    
     3    1   31 1    
     4    1   32 1    
     5    2    9 1    
     6    2    3 2    
     7    3    4 1    
     8    3   29 1    
     9    4    5 1    
    10    4   33 1    
    11    4   34 1    
    12    5    6 1    
    13    5    7 1    
    14    5   27 1    
    15    7    8 1    
    16    7    9 1    
    17    7   10 1    
    18    9   35 1    
    19    9   36 1    
    20   10   11 2    
    21   10   12 am   BACKBONE|DICT|INTERRES
    22   12   13 am   BACKBONE|DICT|INTERRES
    23   12   37 1    
    24   13   17 1    
    25   13   14 2    
    26   14   15 1    
    27   14   21 1    
    28   15   20 1    
    29   15   16 2    
    30   16   17 1    
    31   16   18 1    
    32   18   19 1    
    33   18   38 1    
    34   18   39 1    
    35   19   20 1    
    36   19   40 1    
    37   19   41 1    
    38   20   42 1    
    39   20   43 1    
    40   21   22 2    
    41   21   23 am   BACKBONE|DICT|INTERRES
    42   23   24 1    
    43   23   44 1    
    44   24   26 1    
    45   24   25 1    
    46   24   45 1    
    47   25   26 1    
    48   25   46 1    
    49   25   47 1    
    50   26   48 1    
    51   26   49 1    
    52   27   28 2    
    53   27   53 1    
    54   29   50 1    
    55   29   51 1    
    56   29   52 1    
@<TRIPOS>SUBSTRUCTURE
     1 UNK         1 GROUP             0       ****    0 ROOT    
