@<TRIPOS>MOLECULE
ZINC17094003_2606
53   56    1
SMALL
USER_CHARGES


@<TRIPOS>ATOM
      1 C1          2.7046   51.9204   18.6899 C.3       1 UNK         0.0000 
      2 C2          1.2725   51.7950   19.1776 C.ar      1 UNK         0.0000 
      3 C3          0.2346   51.6072   18.2626 C.ar      1 UNK         0.0000 
      4 C4         -1.0772   51.4611   18.7109 C.ar      1 UNK         0.0000 
      5 C5         -1.3563   51.4996   20.0767 C.ar      1 UNK         0.0000 
      6 C6         -0.3296   51.6960   21.0056 C.ar      1 UNK         0.0000 
      7 C7          0.9910   51.8375   20.5463 C.ar      1 UNK         0.0000 
      8 N8         -0.7121   51.7062   22.3581 N.am      1 UNK         0.0000 
      9 C9         -0.0174   52.0799   23.4541 C.2       1 UNK         0.0000 
     10 O10         1.1325   52.5235   23.4370 O.2       1 UNK         0.0000 
     11 C11        -0.7419   51.9155   24.7108 C.2       1 UNK         0.0000 
     12 C12        -2.1254   51.6244   24.8404 C.2       1 UNK         0.0000 
     13 C13        -2.5540   51.5165   26.1445 C.2       1 UNK         0.0000 
     14 S14        -1.2954   51.7494   27.2927 S.3       1 UNK         0.0000 
     15 C15        -0.1716   52.0971   25.9925 C.2       1 UNK         0.0000 
     16 N16         1.1521   52.4164   26.2660 N.am      1 UNK         0.0000 
     17 C17         1.6153   53.1625   27.2913 C.2       1 UNK         0.0000 
     18 O18         0.8872   53.7409   28.0985 O.2       1 UNK         0.0000 
     19 C19         3.1633   53.2627   27.4003 C.3       1 UNK         0.0000 
     20 H20         3.5038   52.2371   27.2817 H         1 UNK         0.0000 
     21 C21         3.6974   53.9972   26.1294 C.3       1 UNK         0.0000 
     22 C22         5.1010   54.5491   26.3121 C.2       1 UNK         0.0000 
     23 C23         5.8008   54.4966   27.4570 C.2       1 UNK         0.0000 
     24 C24         5.2789   53.9111   28.7563 C.3       1 UNK         0.0000 
     25 C25         3.7237   53.7774   28.7677 C.3       1 UNK         0.0000 
     26 H26         3.3151   54.7644   28.9951 H         1 UNK         0.0000 
     27 C27         3.3331   52.8082   29.9168 C.2       1 UNK         0.0000 
     28 O28         3.9046   51.6968   30.0007 O.co2     1 UNK         0.0000 
     29 C29        -4.0218   51.2175   26.2670 C.3       1 UNK         0.0000 
     30 C30        -4.5033   51.5130   24.8391 C.3       1 UNK         0.0000 
     31 C31        -3.2892   51.3480   23.9112 C.3       1 UNK         0.0000 
     32 H32         2.8534   51.3847   17.7509 H         1 UNK         0.0000 
     33 H33         3.4010   51.4790   19.4042 H         1 UNK         0.0000 
     34 H34         2.9713   52.9677   18.5472 H         1 UNK         0.0000 
     35 H35         0.4461   51.5662   17.2036 H         1 UNK         0.0000 
     36 H36        -1.8743   51.3077   17.9986 H         1 UNK         0.0000 
     37 H37        -2.3775   51.3708   20.4048 H         1 UNK         0.0000 
     38 H38         1.8150   51.9674   21.2300 H         1 UNK         0.0000 
     39 H39        -1.6491   51.3810   22.5367 H         1 UNK         0.0000 
     40 H40         1.7887   52.2655   25.4961 H         1 UNK         0.0000 
     41 H41         3.5967   53.3931   25.2259 H         1 UNK         0.0000 
     42 H42         3.1044   54.8960   25.9531 H         1 UNK         0.0000 
     43 H43         5.5833   55.0009   25.4573 H         1 UNK         0.0000 
     44 H44         6.8013   54.9043   27.4523 H         1 UNK         0.0000 
     45 H45         5.5923   54.5428   29.5882 H         1 UNK         0.0000 
     46 H46         5.7843   52.9520   28.8815 H         1 UNK         0.0000 
     47 H47        -4.2021   50.1804   26.5538 H         1 UNK         0.0000 
     48 H48        -4.5323   51.8564   26.9884 H         1 UNK         0.0000 
     49 H49        -5.3407   50.8787   24.5452 H         1 UNK         0.0000 
     50 H50        -4.8579   52.5445   24.7849 H         1 UNK         0.0000 
     51 H51        -3.3522   52.0294   23.0626 H         1 UNK         0.0000 
     52 H52        -3.2539   50.3287   23.5233 H         1 UNK         0.0000 
     53 O53         2.3905   53.1636   30.6517 O.co2     1 UNK         0.0000 
@<TRIPOS>BOND
     1    1    2 1    
     2    1   32 1    
     3    1   33 1    
     4    1   34 1    
     5    2    7 ar   
     6    2    3 ar   
     7    3    4 ar   
     8    3   35 1    
     9    4    5 ar   
    10    4   36 1    
    11    5    6 ar   
    12    5   37 1    
    13    6    7 ar   
    14    6    8 1    
    15    7   38 1    
    16    8    9 am   BACKBONE|DICT|INTERRES
    17    8   39 1    
    18    9   10 2    
    19    9   11 1    
    20   11   15 2    
    21   11   12 1    
    22   12   31 1    
    23   12   13 2    
    24   13   14 1    
    25   13   29 1    
    26   14   15 1    
    27   15   16 am   BACKBONE|DICT|INTERRES
    28   16   17 am   BACKBONE|DICT|INTERRES
    29   16   40 1    
    30   17   18 2    
    31   17   19 1    
    32   19   20 1    
    33   19   25 1    
    34   19   21 1    
    35   21   22 1    
    36   21   41 1    
    37   21   42 1    
    38   22   23 2    
    39   22   43 1    
    40   23   24 1    
    41   23   44 1    
    42   24   25 1    
    43   24   45 1    
    44   24   46 1    
    45   25   26 1    
    46   25   27 1    
    47   27   28 2    
    48   27   53 1    
    49   29   30 1    
    50   29   47 1    
    51   29   48 1    
    52   30   31 1    
    53   30   49 1    
    54   30   50 1    
    55   31   51 1    
    56   31   52 1    
@<TRIPOS>SUBSTRUCTURE
     1 UNK         1 GROUP             0       ****    0 ROOT    
