ZINC63571867_1152
                    3D
 Schrodinger Suite 2024-2.
 68 72  0  0  1  0            999 V2000
    0.5527   52.1741   29.7262 C   0  0  0  0  0  0
    1.3690   53.2751   30.4239 C   0  0  0  0  0  0
    2.2647   53.9118   29.5157 O   0  0  0  0  0  0
    3.4710   53.3718   29.2131 C   0  0  0  0  0  0
    3.9579   52.3715   29.7476 O   0  0  0  0  0  0
    4.1980   54.1672   28.1047 C   0  0  1  0  0  0
    5.7090   53.8126   28.0095 C   0  0  0  0  0  0
    6.3758   54.6267   26.8783 C   0  0  0  0  0  0
    5.7050   54.3224   25.5161 C   0  0  1  0  0  0
    4.2007   54.6756   25.6056 C   0  0  0  0  0  0
    3.4973   53.9052   26.7433 C   0  0  0  0  0  0
    6.4292   54.9956   24.3306 C   0  0  0  0  0  0
    5.9017   54.5857   23.0222 N   0  0  0  0  0  0
    6.4416   54.9308   21.8374 C   0  0  0  0  0  0
    7.5037   55.5537   21.7845 O   0  0  0  0  0  0
    5.7868   54.5004   20.7152 N   0  0  0  0  0  0
    4.3033   54.4224   20.6831 C   0  0  0  0  0  0
    3.8556   53.2070   19.8545 C   0  0  0  0  0  0
    4.4159   53.4120   18.4747 C   0  0  0  0  0  0
    3.8846   53.5857   17.2553 C   0  0  0  0  0  0
    2.4937   53.6124   16.7919 C   0  0  0  0  0  0
    2.2111   53.8125   15.4868 C   0  0  0  0  0  0
    3.3258   53.9980   14.5678 C   0  0  0  0  0  0
    4.6197   53.9793   14.9845 C   0  0  0  0  0  0
    4.9229   53.7792   16.3378 C   0  0  0  0  0  0
    6.0922   53.7411   16.9450 N   0  3  0  0  0  0
    5.9151   53.4932   18.3958 C   0  0  1  0  0  0
    6.3055   52.4985   18.5856 H   0  0  0  0  0  0
    6.5470   54.5073   19.4233 C   0  0  1  0  0  0
    7.5296   54.0967   19.6477 H   0  0  0  0  0  0
    6.8673   55.8750   18.8005 C   0  0  0  0  0  0
    5.8658   56.7713   18.4131 C   0  0  0  0  0  0
    6.2165   57.9877   17.8253 C   0  0  0  0  0  0
    7.5593   58.3029   17.6270 C   0  0  0  0  0  0
    8.5576   57.4212   18.0272 C   0  0  0  0  0  0
    8.2118   56.2093   18.6110 C   0  0  0  0  0  0
    7.9068   59.4677   17.0319 F   0  0  0  0  0  0
   -0.1717   51.7323   30.4111 H   0  0  0  0  0  0
    1.1915   51.3708   29.3568 H   0  0  0  0  0  0
    0.0002   52.5782   28.8765 H   0  0  0  0  0  0
    0.6886   54.0339   30.8067 H   0  0  0  0  0  0
    1.9010   52.8743   31.2888 H   0  0  0  0  0  0
    4.1065   55.2234   28.3606 H   0  0  0  0  0  0
    6.2149   54.0546   28.9458 H   0  0  0  0  0  0
    5.8551   52.7469   27.8242 H   0  0  0  0  0  0
    6.3566   55.6963   27.0892 H   0  0  0  0  0  0
    7.4346   54.3692   26.8319 H   0  0  0  0  0  0
    5.7793   53.2514   25.3724 H   0  0  0  0  0  0
    4.0806   55.7476   25.7350 H   0  0  0  0  0  0
    3.7046   54.4539   24.6598 H   0  0  0  0  0  0
    3.4962   52.8447   26.5041 H   0  0  0  0  0  0
    2.4575   54.2303   26.7789 H   0  0  0  0  0  0
    6.3290   56.0784   24.4202 H   0  0  0  0  0  0
    7.5026   54.8105   24.3986 H   0  0  0  0  0  0
    5.0833   53.9975   23.0323 H   0  0  0  0  0  0
    3.8445   54.3423   21.6693 H   0  0  0  0  0  0
    3.9161   55.2944   20.1677 H   0  0  0  0  0  0
    4.2021   52.2714   20.2945 H   0  0  0  0  0  0
    2.7643   53.1571   19.8317 H   0  0  0  0  0  0
    1.6691   53.4708   17.4775 H   0  0  0  0  0  0
    1.1896   53.8282   15.1351 H   0  0  0  0  0  0
    3.1131   54.1535   13.5186 H   0  0  0  0  0  0
    5.4038   54.1199   14.2531 H   0  0  0  0  0  0
    4.8219   56.5271   18.5490 H   0  0  0  0  0  0
    5.4543   58.6907   17.5127 H   0  0  0  0  0  0
    9.5974   57.6752   17.8758 H   0  0  0  0  0  0
    9.0016   55.5338   18.9174 H   0  0  0  0  0  0
    6.9967   53.8601   16.4958 H   0  0  0  0  0  0
  1  2  1  0  0  0
  1 38  1  0  0  0
  1 39  1  0  0  0
  1 40  1  0  0  0
  2  3  1  0  0  0
  2 41  1  0  0  0
  2 42  1  0  0  0
  3  4  1  0  0  0
  4  5  2  0  0  0
  4  6  1  0  0  0
  6 11  1  0  0  0
  6  7  1  0  0  0
  6 43  1  0  0  0
  7  8  1  0  0  0
  7 44  1  0  0  0
  7 45  1  0  0  0
  8  9  1  0  0  0
  8 46  1  0  0  0
  8 47  1  0  0  0
  9 10  1  0  0  0
  9 12  1  0  0  0
  9 48  1  0  0  0
 10 11  1  0  0  0
 10 49  1  0  0  0
 10 50  1  0  0  0
 11 51  1  0  0  0
 11 52  1  0  0  0
 12 13  1  0  0  0
 12 53  1  0  0  0
 12 54  1  0  0  0
 13 14  1  0  0  0
 13 55  1  0  0  0
 14 15  2  0  0  0
 14 16  1  0  0  0
 16 29  1  0  0  0
 16 17  1  0  0  0
 17 18  1  0  0  0
 17 56  1  0  0  0
 17 57  1  0  0  0
 18 19  1  0  0  0
 18 58  1  0  0  0
 18 59  1  0  0  0
 19 27  1  0  0  0
 19 20  2  0  0  0
 20 25  1  0  0  0
 20 21  1  0  0  0
 21 22  2  0  0  0
 21 60  1  0  0  0
 22 23  1  0  0  0
 22 61  1  0  0  0
 23 24  2  0  0  0
 23 62  1  0  0  0
 24 25  1  0  0  0
 24 63  1  0  0  0
 25 26  2  0  0  0
 26 27  1  0  0  0
 26 68  1  0  0  0
 27 28  1  0  0  0
 27 29  1  0  0  0
 29 30  1  0  0  0
 29 31  1  0  0  0
 31 36  2  0  0  0
 31 32  1  0  0  0
 32 33  2  0  0  0
 32 64  1  0  0  0
 33 34  1  0  0  0
 33 65  1  0  0  0
 34 35  2  0  0  0
 34 37  1  0  0  0
 35 36  1  0  0  0
 35 66  1  0  0  0
 36 67  1  0  0  0
M  CHG  1  26   1
M  END
> <i_i_glide_confnum>
110

> <i_i_glide_lignum>
1153

> <i_i_glide_posenum>
221

> <i_i_glide_rotatable_bonds>
8

> <i_m_Source_File_Index>
5051

> <b_m_subgroup_collapsed>
0

> <r_i_docking_score>
-5.23026

> <r_i_glide_ecoul>
-2.78762

> <r_i_glide_eff_state_penalty>
0

> <r_i_glide_einternal>
4.31093

> <r_i_glide_emodel>
-55.8788

> <r_i_glide_energy>
-43.3607

> <r_i_glide_erotb>
0.619368

> <r_i_glide_esite>
-0.111797

> <r_i_glide_evdw>
-40.573

> <r_i_glide_gscore>
-5.23026

> <r_i_glide_hbond>
0

> <r_i_glide_ligand_efficiency>
-0.149436

> <r_i_glide_ligand_efficiency_ln>
-1.14816

> <r_i_glide_ligand_efficiency_sa>
-0.488815

> <r_i_glide_lipo>
-2.28999

> <r_i_glide_metal>
0

> <r_i_glide_rewards>
-1.00105

> <s_i_glide_gridfile>
wee1_glide-grid

> <s_m_Source_File>
wee1_decoys_glide_SP.sdf

> <s_m_Source_Path>
/Users/zhangxujun/Desktop

> <s_m_entry_id>
5326

> <s_m_entry_name>
wee1_decoys_glide_SP.5051

> <s_m_subgroup_title>
wee1_decoys_glide_SP

> <s_m_subgroupid>
wee1_decoys_glide_SP


$$$$
