@<TRIPOS>MOLECULE
ZINC08965442_5024
57   59    1
SMALL
USER_CHARGES


@<TRIPOS>ATOM
      1 C1         -0.1910   49.3376   17.6525 C.3       1 UNK         0.0000 
      2 C2         -0.3949   49.8235   19.0911 C.ar      1 UNK         0.0000 
      3 C3         -0.5626   48.9148   20.1586 C.ar      1 UNK         0.0000 
      4 C4         -0.7323   49.4173   21.4732 C.ar      1 UNK         0.0000 
      5 C5         -0.7299   50.8170   21.6541 C.ar      1 UNK         0.0000 
      6 N6         -0.6282   51.6832   20.6227 N.ar      1 UNK         0.0000 
      7 C7         -0.4354   51.1970   19.3761 C.ar      1 UNK         0.0000 
      8 C8         -0.2337   52.2651   18.3131 C.3       1 UNK         0.0000 
      9 S9         -0.8553   51.6075   23.2414 S.3       1 UNK         0.0000 
     10 C10         0.5957   51.0654   24.1961 C.3       1 UNK         0.0000 
     11 C11         0.8677   51.9262   25.4268 C.2       1 UNK         0.0000 
     12 C12         1.6605   53.0290   25.6053 C.2       1 UNK         0.0000 
     13 C13         1.7814   53.6799   27.0236 C.3       1 UNK         0.0000 
     14 H14         1.4373   54.7035   26.9306 H         1 UNK         0.0000 
     15 C15         0.7676   53.0538   27.9994 C.2       1 UNK         0.0000 
     16 C16         0.0587   51.9671   27.6453 C.2       1 UNK         0.0000 
     17 O17         0.1430   51.3750   26.4370 O.3       1 UNK         0.0000 
     18 N18        -0.8732   51.2968   28.3893 N.pl3     1 UNK         0.0000 
     19 C19         0.5557   53.6323   29.2889 C.1       1 UNK         0.0000 
     20 N20         0.3475   54.0977   30.3281 N.1       1 UNK         0.0000 
     21 C21         3.1971   53.8308   27.5981 C.2       1 UNK         0.0000 
     22 C22         4.4298   53.4178   27.0841 C.2       1 UNK         0.0000 
     23 C23         5.5486   53.7665   27.8298 C.2       1 UNK         0.0000 
     24 C24         5.2046   54.4967   28.9386 C.2       1 UNK         0.0000 
     25 S25         3.4996   54.7206   29.0697 S.3       1 UNK         0.0000 
     26 C26         2.4423   53.6948   24.5160 C.2       1 UNK         0.0000 
     27 O27         3.0643   54.7427   24.7026 O.2       1 UNK         0.0000 
     28 O28         2.4626   53.0612   23.3183 O.3       1 UNK         0.0000 
     29 C29         3.1704   53.5826   22.1869 C.3       1 UNK         0.0000 
     30 C30         4.7049   53.5108   22.3463 C.3       1 UNK         0.0000 
     31 C31         2.7158   52.7854   20.9594 C.3       1 UNK         0.0000 
     32 C32        -0.9423   48.5142   22.6072 C.1       1 UNK         0.0000 
     33 N33        -1.1096   47.7973   23.5005 N.1       1 UNK         0.0000 
     34 C34        -0.5429   47.4081   19.8575 C.3       1 UNK         0.0000 
     35 H35        -0.5335   50.0650   16.9165 H         1 UNK         0.0000 
     36 H36         0.8633   49.1227   17.4667 H         1 UNK         0.0000 
     37 H37        -0.7692   48.4381   17.4440 H         1 UNK         0.0000 
     38 H38         0.6345   52.0328   17.6933 H         1 UNK         0.0000 
     39 H39        -1.1151   52.3276   17.6720 H         1 UNK         0.0000 
     40 H40        -0.0598   53.2501   18.7524 H         1 UNK         0.0000 
     41 H41         0.4133   50.0474   24.5424 H         1 UNK         0.0000 
     42 H42         1.4597   50.9597   23.5459 H         1 UNK         0.0000 
     43 H43        -1.0682   51.5791   29.3388 H         1 UNK         0.0000 
     44 H44        -1.1184   50.3387   28.1523 H         1 UNK         0.0000 
     45 H45         4.5228   52.8970   26.1515 H         1 UNK         0.0000 
     46 H46         6.5630   53.5125   27.5576 H         1 UNK         0.0000 
     47 H47         5.8716   54.8966   29.6818 H         1 UNK         0.0000 
     48 H48         2.8762   54.6245   22.0429 H         1 UNK         0.0000 
     49 H49         5.2046   53.9127   21.4639 H         1 UNK         0.0000 
     50 H50         5.0560   54.0907   23.1998 H         1 UNK         0.0000 
     51 H51         5.0486   52.4858   22.4774 H         1 UNK         0.0000 
     52 H52         3.2042   53.1402   20.0507 H         1 UNK         0.0000 
     53 H53         2.9288   51.7210   21.0654 H         1 UNK         0.0000 
     54 H54         1.6446   52.8966   20.8091 H         1 UNK         0.0000 
     55 H55         0.3298   47.1602   19.2512 H         1 UNK         0.0000 
     56 H56        -0.4958   46.7661   20.7368 H         1 UNK         0.0000 
     57 H57        -1.4305   47.1284   19.2876 H         1 UNK         0.0000 
@<TRIPOS>BOND
     1    1    2 1    
     2    1   35 1    
     3    1   36 1    
     4    1   37 1    
     5    2    7 ar   
     6    2    3 ar   
     7    3    4 ar   
     8    3   34 1    
     9    4    5 ar   
    10    4   32 1    
    11    5    6 ar   
    12    5    9 1    
    13    6    7 ar   
    14    7    8 1    
    15    8   38 1    
    16    8   39 1    
    17    8   40 1    
    18    9   10 1    
    19   10   11 1    
    20   10   41 1    
    21   10   42 1    
    22   11   17 1    
    23   11   12 2    
    24   12   13 1    
    25   12   26 1    
    26   13   14 1    
    27   13   15 1    
    28   13   21 1    
    29   15   16 2    
    30   15   19 1    
    31   16   17 1    
    32   16   18 1    
    33   18   43 1    
    34   18   44 1    
    35   19   20 3    
    36   21   25 1    
    37   21   22 2    
    38   22   23 1    
    39   22   45 1    
    40   23   24 2    
    41   23   46 1    
    42   24   25 1    
    43   24   47 1    
    44   26   27 2    
    45   26   28 1    
    46   28   29 1    
    47   29   30 1    
    48   29   31 1    
    49   29   48 1    
    50   30   49 1    
    51   30   50 1    
    52   30   51 1    
    53   31   52 1    
    54   31   53 1    
    55   31   54 1    
    56   32   33 3    
    57   34   55 1    
    58   34   56 1    
    59   34   57 1    
@<TRIPOS>SUBSTRUCTURE
     1 UNK         1 GROUP             0       ****    0 ROOT    
