@<TRIPOS>MOLECULE
ZINC63237000_3499
60   65    1
SMALL
USER_CHARGES


@<TRIPOS>ATOM
      1 C1         -4.1761   50.0273   26.9846 C.ar      1 UNK         0.0000 
      2 C2         -4.9391   48.8766   27.1547 C.ar      1 UNK         0.0000 
      3 C3         -4.5382   47.6822   26.5600 C.ar      1 UNK         0.0000 
      4 C4         -3.3677   47.6263   25.7990 C.ar      1 UNK         0.0000 
      5 C5         -2.5762   48.7842   25.6321 C.ar      1 UNK         0.0000 
      6 C6         -3.0078   49.9832   26.2241 C.ar      1 UNK         0.0000 
      7 C7         -1.2728   48.7552   24.8104 C.3       1 UNK         0.0000 
      8 H8         -0.9796   47.7103   24.7314 H         1 UNK         0.0000 
      9 C9         -0.0403   49.4472   25.4739 C.3       1 UNK         0.0000 
     10 N10         0.0404   50.9058   25.2862 N.3       1 UNK         0.0000 
     11 C11        -0.1326   51.3931   23.9092 C.3       1 UNK         0.0000 
     12 H12        -0.2864   52.4692   24.0100 H         1 UNK         0.0000 
     13 C13        -1.4359   50.8197   23.2708 C.3       1 UNK         0.0000 
     14 H14        -2.3172   51.2750   23.7247 H         1 UNK         0.0000 
     15 C15        -1.4809   49.3139   23.4130 C.2       1 UNK         0.0000 
     16 C16        -1.6332   48.7538   22.2024 C.2       1 UNK         0.0000 
     17 C17        -1.6969   47.3488   21.7754 C.2       1 UNK         0.0000 
     18 C18        -1.8314   47.0355   20.4717 C.2       1 UNK         0.0000 
     19 C19        -1.9075   48.1268   19.5089 C.2       1 UNK         0.0000 
     20 C20        -1.8439   49.4302   19.8889 C.2       1 UNK         0.0000 
     21 C21        -1.7006   49.7674   21.2412 C.2       1 UNK         0.0000 
     22 N22        -1.5909   50.9522   21.8042 N.pl3     1 UNK         0.0000 
     23 C23         1.1144   51.2839   23.0135 C.ar      1 UNK         0.0000 
     24 C24         1.5852   50.0383   22.5726 C.ar      1 UNK         0.0000 
     25 C25         2.6504   49.9533   21.6821 C.ar      1 UNK         0.0000 
     26 C26         3.2905   51.1085   21.2493 C.ar      1 UNK         0.0000 
     27 C27         2.8653   52.3577   21.7119 C.ar      1 UNK         0.0000 
     28 C28         1.7671   52.4472   22.5729 C.ar      1 UNK         0.0000 
     29 N29         3.5311   53.5125   21.2907 N.am      1 UNK         0.0000 
     30 C30         4.8345   53.7461   21.5645 C.2       1 UNK         0.0000 
     31 O31         5.4489   53.1536   22.4569 O.2       1 UNK         0.0000 
     32 C32         5.5585   54.7500   20.6948 C.ar      1 UNK         0.0000 
     33 C33         5.1020   55.0687   19.4055 C.ar      1 UNK         0.0000 
     34 C34         5.8414   55.9180   18.5856 C.ar      1 UNK         0.0000 
     35 C35         7.0592   56.4221   19.0333 C.ar      1 UNK         0.0000 
     36 C36         7.5343   56.0992   20.2991 C.ar      1 UNK         0.0000 
     37 C37         6.7718   55.2974   21.1404 C.ar      1 UNK         0.0000 
     38 Cl38        7.9898   57.4542   18.0105 Cl        1 UNK         0.0000 
     39 Cl39       -2.9571   46.0987   25.0874 Cl        1 UNK         0.0000 
     40 H40        -4.4819   50.9527   27.4513 H         1 UNK         0.0000 
     41 H41        -5.8401   48.9091   27.7509 H         1 UNK         0.0000 
     42 H42        -5.1357   46.7923   26.6948 H         1 UNK         0.0000 
     43 H43        -2.4399   50.8931   26.1201 H         1 UNK         0.0000 
     44 H44        -0.0365   49.2125   26.5414 H         1 UNK         0.0000 
     45 H45         0.8661   49.0049   25.0576 H         1 UNK         0.0000 
     46 H46        -0.6104   51.3553   25.9136 H         1 UNK         0.0000 
     47 H47        -1.6326   46.5394   22.4879 H         1 UNK         0.0000 
     48 H48        -1.8758   46.0062   20.1444 H         1 UNK         0.0000 
     49 H49        -2.0131   47.8901   18.4591 H         1 UNK         0.0000 
     50 H50        -1.8998   50.1955   19.1282 H         1 UNK         0.0000 
     51 H51         1.1176   49.1202   22.8892 H         1 UNK         0.0000 
     52 H52         2.9868   48.9873   21.3350 H         1 UNK         0.0000 
     53 H53         4.1219   51.0311   20.5609 H         1 UNK         0.0000 
     54 H54         1.4336   53.4207   22.9037 H         1 UNK         0.0000 
     55 H55         3.0204   54.1414   20.6842 H         1 UNK         0.0000 
     56 H56         4.1837   54.6531   19.0145 H         1 UNK         0.0000 
     57 H57         5.4820   56.1647   17.5972 H         1 UNK         0.0000 
     58 H58         8.4959   56.4623   20.6303 H         1 UNK         0.0000 
     59 H59         7.1644   55.0523   22.1190 H         1 UNK         0.0000 
     60 H60        -1.5845   51.8392   21.3111 H         1 UNK         0.0000 
@<TRIPOS>BOND
     1    1    6 ar   
     2    1    2 ar   
     3    1   40 1    
     4    2    3 ar   
     5    2   41 1    
     6    3    4 ar   
     7    3   42 1    
     8    4    5 ar   
     9    4   39 1    
    10    5    6 ar   
    11    5    7 1    
    12    6   43 1    
    13    7    8 1    
    14    7   15 1    
    15    7    9 1    
    16    9   10 1    
    17    9   44 1    
    18    9   45 1    
    19   10   11 1    
    20   10   46 1    
    21   11   12 1    
    22   11   13 1    
    23   11   23 1    
    24   13   14 1    
    25   13   22 1    
    26   13   15 1    
    27   15   16 2    
    28   16   21 1    
    29   16   17 1    
    30   17   18 2    
    31   17   47 1    
    32   18   19 1    
    33   18   48 1    
    34   19   20 2    
    35   19   49 1    
    36   20   21 1    
    37   20   50 1    
    38   21   22 2    
    39   22   60 1    
    40   23   28 ar   
    41   23   24 ar   
    42   24   25 ar   
    43   24   51 1    
    44   25   26 ar   
    45   25   52 1    
    46   26   27 ar   
    47   26   53 1    
    48   27   28 ar   
    49   27   29 1    
    50   28   54 1    
    51   29   30 am   BACKBONE|DICT|INTERRES
    52   29   55 1    
    53   30   31 2    
    54   30   32 1    
    55   32   37 ar   
    56   32   33 ar   
    57   33   34 ar   
    58   33   56 1    
    59   34   35 ar   
    60   34   57 1    
    61   35   36 ar   
    62   35   38 1    
    63   36   37 ar   
    64   36   58 1    
    65   37   59 1    
@<TRIPOS>SUBSTRUCTURE
     1 UNK         1 GROUP             0       ****    0 ROOT    
