@<TRIPOS>MOLECULE
ZINC02962134_4363
47   50    1
SMALL
USER_CHARGES


@<TRIPOS>ATOM
      1 C1          6.6226   53.6701   23.8948 C.3       1 UNK         0.0000 
      2 C2          5.8525   54.9840   23.9907 C.3       1 UNK         0.0000 
      3 O3          4.7345   54.8966   24.8793 O.3       1 UNK         0.0000 
      4 C4          3.6025   54.1966   24.5072 C.ar      1 UNK         0.0000 
      5 C5          3.1889   54.0096   23.1829 C.ar      1 UNK         0.0000 
      6 C6          2.0640   53.2400   22.9057 C.ar      1 UNK         0.0000 
      7 C7          1.3942   52.5864   23.9452 C.ar      1 UNK         0.0000 
      8 C8          1.6804   52.8872   25.2904 C.ar      1 UNK         0.0000 
      9 C9          2.8022   53.6992   25.5371 C.ar      1 UNK         0.0000 
     10 C10         0.6878   52.4137   26.3322 C.2       1 UNK         0.0000 
     11 C11        -0.5446   52.0044   25.8979 C.2       1 UNK         0.0000 
     12 S12        -1.7621   51.6313   27.1276 S.3       1 UNK         0.0000 
     13 S13        -0.4958   51.8361   28.6546 S.3       1 UNK         0.0000 
     14 C14         0.9331   52.3315   27.7598 C.2       1 UNK         0.0000 
     15 S15         2.2874   52.5805   28.6988 S.2       1 UNK         0.0000 
     16 C16        -0.9305   51.9215   24.3791 C.3       1 UNK         0.0000 
     17 N17         0.3773   51.6427   23.6789 N.am      1 UNK         0.0000 
     18 C18         0.8200   50.3486   23.4873 C.2       1 UNK         0.0000 
     19 O19         0.2364   49.3494   23.9067 O.2       1 UNK         0.0000 
     20 C20         2.1379   50.0661   22.7414 C.3       1 UNK         0.0000 
     21 S21         1.8769   49.4981   21.0318 S.3       1 UNK         0.0000 
     22 C22         2.4174   50.9371   20.1772 C.2       1 UNK         0.0000 
     23 N23         1.7384   51.5130   19.2147 N.2       1 UNK         0.0000 
     24 N24         2.3801   52.6259   18.6857 N.2       1 UNK         0.0000 
     25 C25         3.5370   52.8474   19.2530 C.2       1 UNK         0.0000 
     26 S26         3.9586   51.6981   20.4819 S.3       1 UNK         0.0000 
     27 N27         4.3784   53.8720   18.9370 N.pl3     1 UNK         0.0000 
     28 C28        -1.4858   53.2965   23.9431 C.3       1 UNK         0.0000 
     29 C29        -2.0767   50.8809   24.1504 C.3       1 UNK         0.0000 
     30 H30         7.5245   53.7893   23.2949 H         1 UNK         0.0000 
     31 H31         6.9217   53.3181   24.8820 H         1 UNK         0.0000 
     32 H32         6.0149   52.8971   23.4231 H         1 UNK         0.0000 
     33 H33         5.5742   55.2937   22.9873 H         1 UNK         0.0000 
     34 H34         6.5145   55.7607   24.3749 H         1 UNK         0.0000 
     35 H35         3.7259   54.4428   22.3537 H         1 UNK         0.0000 
     36 H36         1.7642   53.0850   21.8793 H         1 UNK         0.0000 
     37 H37         3.0924   53.9912   26.5288 H         1 UNK         0.0000 
     38 H38         2.6662   49.2962   23.2826 H         1 UNK         0.0000 
     39 H39         2.8445   50.8771   22.7904 H         1 UNK         0.0000 
     40 H40         4.0929   54.5489   18.2449 H         1 UNK         0.0000 
     41 H41         5.3747   53.7636   19.0522 H         1 UNK         0.0000 
     42 H42        -2.3937   53.5610   24.4844 H         1 UNK         0.0000 
     43 H43        -0.7629   54.0967   24.0812 H         1 UNK         0.0000 
     44 H44        -1.7454   53.2845   22.8854 H         1 UNK         0.0000 
     45 H45        -3.0514   51.2764   24.4395 H         1 UNK         0.0000 
     46 H46        -2.1523   50.6018   23.0983 H         1 UNK         0.0000 
     47 H47        -1.9487   49.9654   24.7284 H         1 UNK         0.0000 
@<TRIPOS>BOND
     1    1    2 1    
     2    1   30 1    
     3    1   31 1    
     4    1   32 1    
     5    2    3 1    
     6    2   33 1    
     7    2   34 1    
     8    3    4 1    
     9    4    9 ar   
    10    4    5 ar   
    11    5    6 ar   
    12    5   35 1    
    13    6    7 ar   
    14    6   36 1    
    15    7   17 1    
    16    7    8 ar   
    17    8    9 ar   
    18    8   10 1    
    19    9   37 1    
    20   10   14 1    
    21   10   11 2    
    22   11   12 1    
    23   11   16 1    
    24   12   13 1    
    25   13   14 1    
    26   14   15 2    
    27   16   17 1    
    28   16   28 1    
    29   16   29 1    
    30   17   18 am   BACKBONE|DICT|INTERRES
    31   18   19 2    
    32   18   20 1    
    33   20   21 1    
    34   20   38 1    
    35   20   39 1    
    36   21   22 1    
    37   22   26 1    
    38   22   23 2    
    39   23   24 1    
    40   24   25 2    
    41   25   26 1    
    42   25   27 1    
    43   27   40 1    
    44   27   41 1    
    45   28   42 1    
    46   28   43 1    
    47   28   44 1    
    48   29   45 1    
    49   29   46 1    
    50   29   47 1    
@<TRIPOS>SUBSTRUCTURE
     1 UNK         1 GROUP             0       ****    0 ROOT    
