@<TRIPOS>MOLECULE
ZINC34863248_4237
68   71    1
SMALL
USER_CHARGES


@<TRIPOS>ATOM
      1 C1          5.3254   54.1755   22.5094 C.3       1 UNK         0.0000 
      2 C2          4.5729   53.6072   21.3200 C.ar      1 UNK         0.0000 
      3 C3          4.7343   54.1546   20.0478 C.ar      1 UNK         0.0000 
      4 C4          4.0323   53.6223   18.9664 C.ar      1 UNK         0.0000 
      5 C5          3.1710   52.5298   19.1390 C.ar      1 UNK         0.0000 
      6 C6          3.0193   52.0000   20.4291 C.ar      1 UNK         0.0000 
      7 C7          3.7049   52.5341   21.5071 C.ar      1 UNK         0.0000 
      8 C8          2.3812   51.9277   17.9506 C.3       1 UNK         0.0000 
      9 C9          0.8962   52.2612   18.0442 C.2       1 UNK         0.0000 
     10 O10         0.3808   53.3663   17.8831 O.2       1 UNK         0.0000 
     11 N11         0.2706   51.0910   18.3008 N.am      1 UNK         0.0000 
     12 C12         1.0977   50.0162   18.3612 C.2       1 UNK         0.0000 
     13 O13         0.8668   48.9176   18.8549 O.2       1 UNK         0.0000 
     14 N14         2.3042   50.4949   18.0391 N.am      1 UNK         0.0000 
     15 C15        -1.1809   51.0077   18.5913 C.3       1 UNK         0.0000 
     16 C16        -1.4893   51.2754   20.0835 C.2       1 UNK         0.0000 
     17 O17        -2.6019   51.6976   20.3868 O.2       1 UNK         0.0000 
     18 N18        -0.5223   50.9885   20.9765 N.am      1 UNK         0.0000 
     19 C19        -0.4568   51.2111   22.3575 C.ar      1 UNK         0.0000 
     20 C20         0.5484   50.5084   23.0172 C.ar      1 UNK         0.0000 
     21 C21         0.7347   50.6780   24.3811 C.ar      1 UNK         0.0000 
     22 C22        -0.0595   51.5787   25.0934 C.ar      1 UNK         0.0000 
     23 C23        -1.0704   52.2877   24.4397 C.ar      1 UNK         0.0000 
     24 C24        -1.2756   52.1003   23.0707 C.ar      1 UNK         0.0000 
     25 S25         0.2138   51.7809   26.8539 S.o2      1 UNK         0.0000 
     26 O26        -1.1056   51.9421   27.4754 O.2       1 UNK         0.0000 
     27 O27         1.1044   50.7009   27.2819 O.2       1 UNK         0.0000 
     28 N28         1.1050   53.2968   27.0836 N.pl3     1 UNK         0.0000 
     29 C29         0.7931   54.1607   28.2558 C.3       1 UNK         0.0000 
     30 C30         1.8898   54.0539   29.3431 C.3       1 UNK         0.0000 
     31 H31         1.6823   54.8348   30.0746 H         1 UNK         0.0000 
     32 C32         3.2552   54.3869   28.6920 C.3       1 UNK         0.0000 
     33 C33         3.5817   53.4710   27.4824 C.3       1 UNK         0.0000 
     34 H34         3.6413   52.4427   27.8405 H         1 UNK         0.0000 
     35 C35         2.4291   53.5220   26.4459 C.3       1 UNK         0.0000 
     36 C36         4.9297   53.8566   26.8452 C.3       1 UNK         0.0000 
     37 C37         1.8769   52.7031   30.0935 C.3       1 UNK         0.0000 
     38 C38         2.8877   52.3271   16.5390 C.3       1 UNK         0.0000 
     39 H39         5.9514   53.4052   22.9598 H         1 UNK         0.0000 
     40 H40         4.6193   54.5079   23.2732 H         1 UNK         0.0000 
     41 H41         5.9578   55.0179   22.2325 H         1 UNK         0.0000 
     42 H42         5.3982   54.9914   19.8863 H         1 UNK         0.0000 
     43 H43         4.1756   54.0703   17.9952 H         1 UNK         0.0000 
     44 H44         2.3640   51.1633   20.6101 H         1 UNK         0.0000 
     45 H45         3.5512   52.1074   22.4824 H         1 UNK         0.0000 
     46 H46         3.0448   49.9175   17.6344 H         1 UNK         0.0000 
     47 H47        -1.6845   51.7840   18.0119 H         1 UNK         0.0000 
     48 H48        -1.6058   50.0507   18.2810 H         1 UNK         0.0000 
     49 H49         0.2516   50.4572   20.6073 H         1 UNK         0.0000 
     50 H50         1.1869   49.8183   22.4840 H         1 UNK         0.0000 
     51 H51         1.5038   50.1012   24.8711 H         1 UNK         0.0000 
     52 H52        -1.6985   52.9749   24.9919 H         1 UNK         0.0000 
     53 H53        -2.0551   52.6661   22.5798 H         1 UNK         0.0000 
     54 H54         0.7045   55.1877   27.8960 H         1 UNK         0.0000 
     55 H55        -0.1754   53.8720   28.6664 H         1 UNK         0.0000 
     56 H56         3.2505   55.4260   28.3558 H         1 UNK         0.0000 
     57 H57         4.0626   54.3259   29.4243 H         1 UNK         0.0000 
     58 H58         2.5775   52.7711   25.6689 H         1 UNK         0.0000 
     59 H59         2.3868   54.4942   25.9521 H         1 UNK         0.0000 
     60 H60         4.9590   54.9138   26.5790 H         1 UNK         0.0000 
     61 H61         5.7569   53.6653   27.5323 H         1 UNK         0.0000 
     62 H62         5.1234   53.2964   25.9339 H         1 UNK         0.0000 
     63 H63         2.0645   51.8609   29.4308 H         1 UNK         0.0000 
     64 H64         2.6336   52.6742   30.8758 H         1 UNK         0.0000 
     65 H65         0.9112   52.5302   30.5690 H         1 UNK         0.0000 
     66 H66         2.7724   53.3941   16.3397 H         1 UNK         0.0000 
     67 H67         3.9441   52.0787   16.4285 H         1 UNK         0.0000 
     68 H68         2.3602   51.7965   15.7441 H         1 UNK         0.0000 
@<TRIPOS>BOND
     1    1    2 1    
     2    1   39 1    
     3    1   40 1    
     4    1   41 1    
     5    2    7 ar   
     6    2    3 ar   
     7    3    4 ar   
     8    3   42 1    
     9    4    5 ar   
    10    4   43 1    
    11    5    6 ar   
    12    5    8 1    
    13    6    7 ar   
    14    6   44 1    
    15    7   45 1    
    16    8   14 1    
    17    8    9 1    
    18    8   38 1    
    19    9   10 2    
    20    9   11 am   BACKBONE|DICT|INTERRES
    21   11   12 am   BACKBONE|DICT|INTERRES
    22   11   15 1    
    23   12   13 2    
    24   12   14 am   BACKBONE|DICT|INTERRES
    25   14   46 1    
    26   15   16 1    
    27   15   47 1    
    28   15   48 1    
    29   16   17 2    
    30   16   18 am   BACKBONE|DICT|INTERRES
    31   18   19 1    
    32   18   49 1    
    33   19   24 ar   
    34   19   20 ar   
    35   20   21 ar   
    36   20   50 1    
    37   21   22 ar   
    38   21   51 1    
    39   22   23 ar   
    40   22   25 1    
    41   23   24 ar   
    42   23   52 1    
    43   24   53 1    
    44   25   26 2    
    45   25   27 2    
    46   25   28 1    
    47   28   35 1    
    48   28   29 1    
    49   29   30 1    
    50   29   54 1    
    51   29   55 1    
    52   30   31 1    
    53   30   32 1    
    54   30   37 1    
    55   32   33 1    
    56   32   56 1    
    57   32   57 1    
    58   33   34 1    
    59   33   35 1    
    60   33   36 1    
    61   35   58 1    
    62   35   59 1    
    63   36   60 1    
    64   36   61 1    
    65   36   62 1    
    66   37   63 1    
    67   37   64 1    
    68   37   65 1    
    69   38   66 1    
    70   38   67 1    
    71   38   68 1    
@<TRIPOS>SUBSTRUCTURE
     1 UNK         1 GROUP             0       ****    0 ROOT    
