@<TRIPOS>MOLECULE
ZINC48832367_4691
31   32    1
SMALL
USER_CHARGES


@<TRIPOS>ATOM
      1 C1          6.5509   55.2990   25.1393 C.3       1 UNK         0.0000 
      2 N2          5.3280   54.4945   24.9778 N.am      1 UNK         0.0000 
      3 C3          4.6876   54.1092   26.1996 C.ar      1 UNK         0.0000 
      4 C4          3.2938   54.1385   26.3589 C.ar      1 UNK         0.0000 
      5 C5          2.6964   53.7155   27.5432 C.ar      1 UNK         0.0000 
      6 C6          3.4777   53.2629   28.6158 C.ar      1 UNK         0.0000 
      7 C7          4.8716   53.2800   28.4788 C.ar      1 UNK         0.0000 
      8 C8          5.4672   53.6963   27.2909 C.ar      1 UNK         0.0000 
      9 C9          2.8540   52.7314   29.8901 C.2       1 UNK         0.0000 
     10 O10         3.5060   52.1036   30.7211 O.2       1 UNK         0.0000 
     11 N11         1.5602   52.9802   30.0966 N.am      1 UNK         0.0000 
     12 C12         4.8084   54.1523   23.7436 C.2       1 UNK         0.0000 
     13 O13         3.7386   53.5489   23.6135 O.2       1 UNK         0.0000 
     14 C14         5.4925   54.4992   22.4961 C.ar      1 UNK         0.0000 
     15 C15         6.7185   55.1072   22.1751 C.ar      1 UNK         0.0000 
     16 C16         6.8228   55.2967   20.7939 C.ar      1 UNK         0.0000 
     17 C17         5.6740   54.7594   20.2475 C.ar      1 UNK         0.0000 
     18 N18         4.9004   54.2798   21.2708 N.pl3     1 UNK         0.0000 
     19 H19         3.9930   53.8508   21.1525 H         1 UNK         0.0000 
     20 Br20        8.2755   56.0941   19.8617 Br        1 UNK         0.0000 
     21 H21         6.6725   55.6592   26.1625 H         1 UNK         0.0000 
     22 H22         7.4374   54.7154   24.8839 H         1 UNK         0.0000 
     23 H23         6.5076   56.1977   24.5239 H         1 UNK         0.0000 
     24 H24         2.6550   54.4926   25.5648 H         1 UNK         0.0000 
     25 H25         1.6167   53.7274   27.5932 H         1 UNK         0.0000 
     26 H26         5.5068   52.9324   29.2803 H         1 UNK         0.0000 
     27 H27         6.5433   53.6491   27.2167 H         1 UNK         0.0000 
     28 H28         1.0159   53.4835   29.4150 H         1 UNK         0.0000 
     29 H29         1.1115   52.6264   30.9286 H         1 UNK         0.0000 
     30 H30         7.5038   55.4156   22.8436 H         1 UNK         0.0000 
     31 H31         5.3411   54.6752   19.2225 H         1 UNK         0.0000 
@<TRIPOS>BOND
     1    1    2 1    
     2    1   21 1    
     3    1   22 1    
     4    1   23 1    
     5    2    3 1    
     6    2   12 am   BACKBONE|DICT|INTERRES
     7    3    8 ar   
     8    3    4 ar   
     9    4    5 ar   
    10    4   24 1    
    11    5    6 ar   
    12    5   25 1    
    13    6    7 ar   
    14    6    9 1    
    15    7    8 ar   
    16    7   26 1    
    17    8   27 1    
    18    9   10 2    
    19    9   11 am   BACKBONE|DICT|INTERRES
    20   11   28 1    
    21   11   29 1    
    22   12   13 2    
    23   12   14 1    
    24   14   18 ar   
    25   14   15 ar   
    26   15   16 ar   
    27   15   30 1    
    28   16   17 ar   
    29   16   20 1    
    30   17   18 ar   
    31   17   31 1    
    32   18   19 1    
@<TRIPOS>SUBSTRUCTURE
     1 UNK         1 GROUP             0       ****    0 ROOT    
