ZINC03012269_2431
                    3D
 Schrodinger Suite 2024-2.
 54 58  0  0  1  0            999 V2000
    6.9882   55.4688   25.2458 C   0  0  0  0  0  0
    5.6187   54.8275   25.2104 C   0  0  0  0  0  0
    4.9108   54.5997   26.3899 C   0  0  0  0  0  0
    3.6621   53.9814   26.3454 C   0  0  0  0  0  0
    3.1060   53.5929   25.1222 C   0  0  0  0  0  0
    3.8174   53.8300   23.9225 C   0  0  0  0  0  0
    5.0687   54.4497   23.9873 C   0  0  0  0  0  0
    3.3309   53.3696   22.5534 C   0  0  0  0  0  0
    1.8848   52.8982   25.1910 N   0  0  0  0  0  0
    0.7674   53.1896   24.5010 C   0  0  0  0  0  0
    0.7044   54.0968   23.6809 O   0  0  0  0  0  0
   -0.4002   52.3992   24.8321 C   0  0  0  0  0  0
   -0.4901   51.3666   25.7904 C   0  0  0  0  0  0
   -1.8099   50.9684   25.8039 C   0  0  0  0  0  0
   -2.4384   51.7310   24.8452 N   0  0  0  0  0  0
   -1.5804   52.5917   24.2717 N   0  0  0  0  0  0
   -3.8738   51.7453   24.5473 C   0  0  1  0  0  0
   -3.9870   51.8240   23.4636 H   0  0  0  0  0  0
   -4.4504   50.3763   25.0124 C   0  0  0  0  0  0
   -3.9407   49.9093   26.3999 C   0  0  2  0  0  0
   -4.3118   50.5895   27.1665 H   0  0  0  0  0  0
   -2.4790   49.9714   26.4788 N   0  0  0  0  0  0
   -4.4936   48.5372   26.7804 C   0  0  0  0  0  0
   -5.5018   48.4311   27.7590 C   0  0  0  0  0  0
   -5.9876   47.1796   28.1647 C   0  0  0  0  0  0
   -5.4510   46.0511   27.5504 C   0  0  0  0  0  0
   -4.4884   46.1437   26.5871 C   0  0  0  0  0  0
   -3.9782   47.3714   26.1792 C   0  0  0  0  0  0
   -4.1393   44.8958   26.1734 O   0  0  0  0  0  0
   -5.0326   44.0157   26.8121 C   0  0  0  0  0  0
   -5.7287   44.7435   27.7898 O   0  0  0  0  0  0
   -4.6105   52.9675   25.1524 C   0  0  0  0  0  0
   -5.9165   52.9142   24.9008 F   0  0  0  0  0  0
   -4.4707   53.0352   26.4777 F   0  0  0  0  0  0
   -4.1670   54.1152   24.6414 F   0  0  0  0  0  0
    7.0984   56.0971   26.1277 H   0  0  0  0  0  0
    7.1468   56.0973   24.3700 H   0  0  0  0  0  0
    7.7503   54.6947   25.2534 H   0  0  0  0  0  0
    5.3297   54.8824   27.3451 H   0  0  0  0  0  0
    3.1312   53.8024   27.2699 H   0  0  0  0  0  0
    5.6330   54.6202   23.0812 H   0  0  0  0  0  0
    2.6403   54.0999   22.1273 H   0  0  0  0  0  0
    4.1613   53.2266   21.8582 H   0  0  0  0  0  0
    2.8237   52.4028   22.6228 H   0  0  0  0  0  0
    1.8076   52.2067   25.9164 H   0  0  0  0  0  0
    0.2950   50.9592   26.4154 H   0  0  0  0  0  0
   -5.5403   50.4104   25.0157 H   0  0  0  0  0  0
   -4.2133   49.6246   24.2596 H   0  0  0  0  0  0
   -2.0987   49.5763   27.3438 H   0  0  0  0  0  0
   -5.8957   49.3186   28.2316 H   0  0  0  0  0  0
   -6.7423   47.1020   28.9361 H   0  0  0  0  0  0
   -3.1951   47.4312   25.4386 H   0  0  0  0  0  0
   -4.4956   43.1891   27.2827 H   0  0  0  0  0  0
   -5.7524   43.6352   26.0842 H   0  0  0  0  0  0
  1  2  1  0  0  0
  1 36  1  0  0  0
  1 37  1  0  0  0
  1 38  1  0  0  0
  2  7  2  0  0  0
  2  3  1  0  0  0
  3  4  2  0  0  0
  3 39  1  0  0  0
  4  5  1  0  0  0
  4 40  1  0  0  0
  5  6  2  0  0  0
  5  9  1  0  0  0
  6  7  1  0  0  0
  6  8  1  0  0  0
  7 41  1  0  0  0
  8 42  1  0  0  0
  8 43  1  0  0  0
  8 44  1  0  0  0
  9 10  1  0  0  0
  9 45  1  0  0  0
 10 11  2  0  0  0
 10 12  1  0  0  0
 12 16  2  0  0  0
 12 13  1  0  0  0
 13 14  2  0  0  0
 13 46  1  0  0  0
 14 22  1  0  0  0
 14 15  1  0  0  0
 15 16  1  0  0  0
 15 17  1  0  0  0
 17 18  1  0  0  0
 17 19  1  0  0  0
 17 32  1  0  0  0
 19 20  1  0  0  0
 19 47  1  0  0  0
 19 48  1  0  0  0
 20 21  1  0  0  0
 20 22  1  0  0  0
 20 23  1  0  0  0
 22 49  1  0  0  0
 23 28  2  0  0  0
 23 24  1  0  0  0
 24 25  2  0  0  0
 24 50  1  0  0  0
 25 26  1  0  0  0
 25 51  1  0  0  0
 26 31  1  0  0  0
 26 27  2  0  0  0
 27 28  1  0  0  0
 27 29  1  0  0  0
 28 52  1  0  0  0
 29 30  1  0  0  0
 30 31  1  0  0  0
 30 53  1  0  0  0
 30 54  1  0  0  0
 32 33  1  0  0  0
 32 34  1  0  0  0
 32 35  1  0  0  0
M  END
> <i_i_glide_confnum>
9

> <i_i_glide_lignum>
2432

> <i_i_glide_posenum>
257

> <i_i_glide_rotatable_bonds>
5

> <i_m_Source_File_Index>
1072

> <b_m_subgroup_collapsed>
0

> <r_i_docking_score>
-5.32648

> <r_i_glide_ecoul>
-5.28992

> <r_i_glide_eff_state_penalty>
0

> <r_i_glide_einternal>
3.57906

> <r_i_glide_emodel>
-48.9573

> <r_i_glide_energy>
-36.9432

> <r_i_glide_erotb>
0.382806

> <r_i_glide_esite>
-0.187456

> <r_i_glide_evdw>
-31.6533

> <r_i_glide_gscore>
-5.32648

> <r_i_glide_hbond>
-0.44884

> <r_i_glide_ligand_efficiency>
-0.161408

> <r_i_glide_ligand_efficiency_ln>
-1.18458

> <r_i_glide_ligand_efficiency_sa>
-0.517723

> <r_i_glide_lipo>
-1.79321

> <r_i_glide_metal>
0

> <r_i_glide_rewards>
-0.903624

> <s_i_glide_gridfile>
wee1_glide-grid

> <s_m_Source_File>
wee1_decoys_glide_SP.sdf

> <s_m_Source_Path>
/Users/zhangxujun/Desktop

> <s_m_entry_id>
1347

> <s_m_entry_name>
wee1_decoys_glide_SP.1072

> <s_m_subgroup_title>
wee1_decoys_glide_SP

> <s_m_subgroupid>
wee1_decoys_glide_SP


$$$$
