ZINC39850363_4297
                    3D
 Schrodinger Suite 2024-2.
 48 50  0  0  1  0            999 V2000
    2.8672   52.3354   29.2112 C   0  0  0  0  0  0
    1.6546   53.2704   29.0377 C   0  0  0  0  0  0
    1.9874   54.7778   29.0291 C   0  0  0  0  0  0
    0.7717   52.8709   27.9838 O   0  0  0  0  0  0
    1.1048   52.8964   26.6406 C   0  0  0  0  0  0
    2.3316   53.3099   26.1068 C   0  0  0  0  0  0
    2.5445   53.2942   24.7308 C   0  0  0  0  0  0
    1.5410   52.8561   23.8560 C   0  0  0  0  0  0
    0.2959   52.5073   24.3894 C   0  0  0  0  0  0
    0.0955   52.4964   25.7665 C   0  0  0  0  0  0
    1.8044   52.7244   22.3379 C   0  0  2  0  0  0
    1.2702   53.5902   21.9428 H   0  0  0  0  0  0
    1.2059   51.4505   21.6242 C   0  0  1  0  0  0
    0.1280   51.5958   21.5853 H   0  0  0  0  0  0
    1.6923   51.3436   20.1311 C   0  0  1  0  0  0
    3.1630   51.4615   20.1409 N   0  0  0  0  0  0
    3.8837   52.2844   20.9334 C   0  0  0  0  0  0
    5.1017   52.3880   20.8440 O   0  0  0  0  0  0
    3.2031   52.9318   21.9036 N   0  0  0  0  0  0
    1.1921   50.0752   19.3560 C   0  0  0  0  0  0
    1.7305   48.9417   19.8078 F   0  0  0  0  0  0
   -0.1339   49.9363   19.4354 F   0  0  0  0  0  0
    1.5015   50.1341   18.0586 F   0  0  0  0  0  0
    1.1437   52.4572   19.4335 O   0  0  0  0  0  0
    1.4336   50.1529   22.4598 C   0  0  0  0  0  0
    2.5686   49.6982   22.5759 O   0  0  0  0  0  0
    0.3066   49.5488   23.1726 C   0  0  0  0  0  0
    0.3068   48.9663   24.4390 C   0  0  0  0  0  0
   -0.9522   48.5251   24.8537 C   0  0  0  0  0  0
   -1.9286   48.7442   23.8935 C   0  0  0  0  0  0
   -1.2906   49.5197   22.4782 S   0  0  0  0  0  0
    3.4359   52.5953   30.1048 H   0  0  0  0  0  0
    3.5594   52.3580   28.3738 H   0  0  0  0  0  0
    2.5349   51.3034   29.3195 H   0  0  0  0  0  0
    1.0516   53.1186   29.9346 H   0  0  0  0  0  0
    2.6250   55.0443   29.8718 H   0  0  0  0  0  0
    2.4946   55.1106   28.1270 H   0  0  0  0  0  0
    1.0757   55.3704   29.1128 H   0  0  0  0  0  0
    3.1454   53.6355   26.7299 H   0  0  0  0  0  0
    3.5169   53.5903   24.3660 H   0  0  0  0  0  0
   -0.5135   52.1965   23.7475 H   0  0  0  0  0  0
   -0.8595   52.1853   26.1641 H   0  0  0  0  0  0
    3.6632   51.1033   19.3356 H   0  0  0  0  0  0
    3.7055   53.6952   22.3291 H   0  0  0  0  0  0
    1.5140   53.2715   19.7900 H   0  0  0  0  0  0
    1.1911   48.8954   25.0567 H   0  0  0  0  0  0
   -1.1357   48.0738   25.8206 H   0  0  0  0  0  0
   -2.9776   48.5017   23.9545 H   0  0  0  0  0  0
  1  2  1  0  0  0
  1 32  1  0  0  0
  1 33  1  0  0  0
  1 34  1  0  0  0
  2  3  1  0  0  0
  2  4  1  0  0  0
  2 35  1  0  0  0
  3 36  1  0  0  0
  3 37  1  0  0  0
  3 38  1  0  0  0
  4  5  1  0  0  0
  5 10  2  0  0  0
  5  6  1  0  0  0
  6  7  2  0  0  0
  6 39  1  0  0  0
  7  8  1  0  0  0
  7 40  1  0  0  0
  8  9  2  0  0  0
  8 11  1  0  0  0
  9 10  1  0  0  0
  9 41  1  0  0  0
 10 42  1  0  0  0
 11 12  1  0  0  0
 11 19  1  0  0  0
 11 13  1  0  0  0
 13 14  1  0  0  0
 13 15  1  0  0  0
 13 25  1  0  0  0
 15 16  1  0  0  0
 15 20  1  0  0  0
 15 24  1  0  0  0
 16 17  1  0  0  0
 16 43  1  0  0  0
 17 18  2  0  0  0
 17 19  1  0  0  0
 19 44  1  0  0  0
 20 21  1  0  0  0
 20 22  1  0  0  0
 20 23  1  0  0  0
 24 45  1  0  0  0
 25 26  2  0  0  0
 25 27  1  0  0  0
 27 31  1  0  0  0
 27 28  2  0  0  0
 28 29  1  0  0  0
 28 46  1  0  0  0
 29 30  2  0  0  0
 29 47  1  0  0  0
 30 31  1  0  0  0
 30 48  1  0  0  0
M  END
> <i_i_glide_confnum>
5

> <i_i_glide_lignum>
4298

> <i_i_glide_posenum>
394

> <i_i_glide_rotatable_bonds>
7

> <i_m_Source_File_Index>
2919

> <b_m_subgroup_collapsed>
0

> <r_i_docking_score>
-4.98904

> <r_i_glide_ecoul>
-5.0856

> <r_i_glide_eff_state_penalty>
0

> <r_i_glide_einternal>
5.7561

> <r_i_glide_emodel>
-51.0628

> <r_i_glide_energy>
-41.4084

> <r_i_glide_erotb>
0.432878

> <r_i_glide_esite>
-0.169973

> <r_i_glide_evdw>
-36.3228

> <r_i_glide_gscore>
-4.98904

> <r_i_glide_hbond>
-0.391379

> <r_i_glide_ligand_efficiency>
-0.172036

> <r_i_glide_ligand_efficiency_ln>
-1.14236

> <r_i_glide_ligand_efficiency_sa>
-0.528548

> <r_i_glide_lipo>
-1.6124

> <r_i_glide_metal>
0

> <r_i_glide_rewards>
-0.669177

> <s_i_glide_gridfile>
wee1_glide-grid

> <s_m_Source_File>
wee1_decoys_glide_SP.sdf

> <s_m_Source_Path>
/Users/zhangxujun/Desktop

> <s_m_entry_id>
3194

> <s_m_entry_name>
wee1_decoys_glide_SP.2919

> <s_m_subgroup_title>
wee1_decoys_glide_SP

> <s_m_subgroupid>
wee1_decoys_glide_SP


$$$$
