ZINC39750064_5607
                    3D
 Schrodinger Suite 2024-2.
 54 59  0  0  1  0            999 V2000
   -2.9988   52.7185   17.7920 C   0  0  0  0  0  0
   -3.0641   51.6478   18.8719 C   0  0  0  0  0  0
   -4.2367   50.8974   19.0215 C   0  0  0  0  0  0
   -4.3524   49.8975   19.9867 C   0  0  0  0  0  0
   -3.3010   49.5892   20.8475 C   0  0  0  0  0  0
   -2.1155   50.3196   20.7126 C   0  0  0  0  0  0
   -1.9908   51.3479   19.7371 C   0  0  0  0  0  0
   -0.7930   51.9941   19.7366 N   0  0  0  0  0  0
    0.0138   51.5145   20.6380 C   0  0  0  0  0  0
   -0.6124   50.1911   21.6155 S   0  0  0  0  0  0
    1.2544   52.0984   20.8048 N   0  0  0  0  0  0
    2.2740   51.6845   21.5844 C   0  0  0  0  0  0
    2.3213   50.6222   22.2027 O   0  0  0  0  0  0
    3.4566   52.6486   21.6657 C   0  0  0  0  0  0
    3.1126   54.2031   22.5723 S   0  0  0  0  0  0
    2.3564   53.6680   24.0824 C   0  0  0  0  0  0
    1.1184   53.2476   24.1206 N   0  0  0  0  0  0
    0.8295   52.8967   25.4265 N   0  0  0  0  0  0
    1.8778   53.1812   26.1592 C   0  0  0  0  0  0
    2.9101   53.6854   25.3604 N   0  0  0  0  0  0
    4.2074   54.1160   25.7652 C   0  0  0  0  0  0
    5.3343   53.8578   24.9751 C   0  0  0  0  0  0
    6.6127   54.0971   25.4682 C   0  0  0  0  0  0
    6.7638   54.5697   26.7675 C   0  0  0  0  0  0
    5.6581   54.8965   27.5349 C   0  0  0  0  0  0
    4.3830   54.7327   27.0090 C   0  0  0  0  0  0
    1.8719   52.9494   27.6517 C   0  0  0  0  0  0
    0.6935   53.1652   28.4013 C   0  0  0  0  0  0
    0.6517   52.9304   29.7849 C   0  0  0  0  0  0
    1.8145   52.4725   30.3932 C   0  0  0  0  0  0
    2.9542   52.2447   29.6819 C   0  0  0  0  0  0
    3.0163   52.4779   28.3172 C   0  0  0  0  0  0
    3.9048   51.7122   30.4944 O   0  0  0  0  0  0
    3.3926   51.8222   31.7934 C   0  0  0  0  0  0
    2.0181   52.0967   31.6819 O   0  0  0  0  0  0
   -2.7613   53.6885   18.2285 H   0  0  0  0  0  0
   -3.9353   52.8149   17.2404 H   0  0  0  0  0  0
   -2.2079   52.4819   17.0782 H   0  0  0  0  0  0
   -5.0821   51.0904   18.3760 H   0  0  0  0  0  0
   -5.2810   49.3488   20.0644 H   0  0  0  0  0  0
   -3.3974   48.8115   21.5941 H   0  0  0  0  0  0
    1.3998   52.9471   20.2728 H   0  0  0  0  0  0
    4.3229   52.1409   22.0855 H   0  0  0  0  0  0
    3.7555   52.9137   20.6518 H   0  0  0  0  0  0
    5.2469   53.3865   24.0099 H   0  0  0  0  0  0
    7.4771   53.8594   24.8648 H   0  0  0  0  0  0
    7.7466   54.6914   27.1957 H   0  0  0  0  0  0
    5.7932   55.2955   28.5301 H   0  0  0  0  0  0
    3.5365   55.0105   27.6184 H   0  0  0  0  0  0
   -0.2038   53.5064   27.9060 H   0  0  0  0  0  0
   -0.2581   53.0740   30.3491 H   0  0  0  0  0  0
    3.9195   52.2503   27.7726 H   0  0  0  0  0  0
    3.9056   52.6435   32.2933 H   0  0  0  0  0  0
    3.5544   50.9177   32.3799 H   0  0  0  0  0  0
  1  2  1  0  0  0
  1 36  1  0  0  0
  1 37  1  0  0  0
  1 38  1  0  0  0
  2  7  2  0  0  0
  2  3  1  0  0  0
  3  4  2  0  0  0
  3 39  1  0  0  0
  4  5  1  0  0  0
  4 40  1  0  0  0
  5  6  2  0  0  0
  5 41  1  0  0  0
  6 10  1  0  0  0
  6  7  1  0  0  0
  7  8  1  0  0  0
  8  9  2  0  0  0
  9 10  1  0  0  0
  9 11  1  0  0  0
 11 12  1  0  0  0
 11 42  1  0  0  0
 12 13  2  0  0  0
 12 14  1  0  0  0
 14 15  1  0  0  0
 14 43  1  0  0  0
 14 44  1  0  0  0
 15 16  1  0  0  0
 16 20  1  0  0  0
 16 17  2  0  0  0
 17 18  1  0  0  0
 18 19  2  0  0  0
 19 20  1  0  0  0
 19 27  1  0  0  0
 20 21  1  0  0  0
 21 26  2  0  0  0
 21 22  1  0  0  0
 22 23  2  0  0  0
 22 45  1  0  0  0
 23 24  1  0  0  0
 23 46  1  0  0  0
 24 25  2  0  0  0
 24 47  1  0  0  0
 25 26  1  0  0  0
 25 48  1  0  0  0
 26 49  1  0  0  0
 27 32  2  0  0  0
 27 28  1  0  0  0
 28 29  2  0  0  0
 28 50  1  0  0  0
 29 30  1  0  0  0
 29 51  1  0  0  0
 30 35  1  0  0  0
 30 31  2  0  0  0
 31 32  1  0  0  0
 31 33  1  0  0  0
 32 52  1  0  0  0
 33 34  1  0  0  0
 34 35  1  0  0  0
 34 53  1  0  0  0
 34 54  1  0  0  0
M  END
> <i_i_glide_confnum>
180

> <i_i_glide_lignum>
5608

> <i_i_glide_posenum>
72

> <i_i_glide_rotatable_bonds>
7

> <i_m_Source_File_Index>
1562

> <b_m_subgroup_collapsed>
0

> <r_i_docking_score>
-6.27092

> <r_i_glide_ecoul>
-2.54041

> <r_i_glide_eff_state_penalty>
0

> <r_i_glide_einternal>
6.06918

> <r_i_glide_emodel>
-65.2176

> <r_i_glide_energy>
-47.3599

> <r_i_glide_erotb>
0.568365

> <r_i_glide_esite>
-0.017262

> <r_i_glide_evdw>
-44.8195

> <r_i_glide_gscore>
-6.27092

> <r_i_glide_hbond>
-0.524914

> <r_i_glide_ligand_efficiency>
-0.179169

> <r_i_glide_ligand_efficiency_ln>
-1.37661

> <r_i_glide_ligand_efficiency_sa>
-0.586074

> <r_i_glide_lipo>
-2.43102

> <r_i_glide_metal>
0

> <r_i_glide_rewards>
-1.24405

> <s_i_glide_gridfile>
wee1_glide-grid

> <s_m_Source_File>
wee1_decoys_glide_SP.sdf

> <s_m_Source_Path>
/Users/zhangxujun/Desktop

> <s_m_entry_id>
1837

> <s_m_entry_name>
wee1_decoys_glide_SP.1562

> <s_m_subgroup_title>
wee1_decoys_glide_SP

> <s_m_subgroupid>
wee1_decoys_glide_SP


$$$$
