@<TRIPOS>MOLECULE
ZINC14667004_2960
50   51    1
SMALL
USER_CHARGES


@<TRIPOS>ATOM
      1 C1         -2.3952   52.7171   23.6327 C.3       1 UNK         0.0000 
      2 C2         -1.4343   51.9524   24.5301 C.ar      1 UNK         0.0000 
      3 C3         -1.4239   52.2143   25.9053 C.ar      1 UNK         0.0000 
      4 C4         -0.5481   51.5344   26.7484 C.ar      1 UNK         0.0000 
      5 C5          0.3045   50.5688   26.2236 C.ar      1 UNK         0.0000 
      6 C6          0.3046   50.3024   24.8550 C.ar      1 UNK         0.0000 
      7 C7         -0.5588   50.9958   23.9879 C.ar      1 UNK         0.0000 
      8 O8         -0.6127   50.7830   22.6168 O.3       1 UNK         0.0000 
      9 C9          0.3124   49.8933   21.9765 C.3       1 UNK         0.0000 
     10 C10         1.6860   50.5591   21.7947 C.2       1 UNK         0.0000 
     11 O11         2.7044   49.9314   22.0915 O.2       1 UNK         0.0000 
     12 N12         1.6868   51.8096   21.2857 N.am      1 UNK         0.0000 
     13 N13         2.8903   52.4973   21.1035 N.am      1 UNK         0.0000 
     14 C14         3.3700   53.2907   22.0911 C.2       1 UNK         0.0000 
     15 O15         2.8126   53.4396   23.1813 O.2       1 UNK         0.0000 
     16 C16         4.6379   54.0514   21.7561 C.ar      1 UNK         0.0000 
     17 C17         4.8514   54.4966   20.4393 C.ar      1 UNK         0.0000 
     18 C18         5.9795   55.2390   20.1047 C.ar      1 UNK         0.0000 
     19 C19         6.9247   55.5412   21.0750 C.ar      1 UNK         0.0000 
     20 C20         6.7341   55.1149   22.3844 C.ar      1 UNK         0.0000 
     21 C21         5.5912   54.3768   22.7490 C.ar      1 UNK         0.0000 
     22 O22         5.3811   53.9440   24.0466 O.3       1 UNK         0.0000 
     23 C23         6.1620   54.4804   25.1098 C.3       1 UNK         0.0000 
     24 C24         5.6242   53.9765   26.4654 C.3       1 UNK         0.0000 
     25 C25         6.4263   54.5703   27.6356 C.3       1 UNK         0.0000 
     26 C26         4.1155   54.2323   26.6433 C.3       1 UNK         0.0000 
     27 Br27        6.2187   55.8516   18.3218 Br        1 UNK         0.0000 
     28 Br28       -0.4958   51.9387   28.6078 Br        1 UNK         0.0000 
     29 H29        -3.0419   53.3965   24.1911 H         1 UNK         0.0000 
     30 H30        -1.8373   53.2948   22.8967 H         1 UNK         0.0000 
     31 H31        -3.0274   52.0207   23.0826 H         1 UNK         0.0000 
     32 H32        -2.0886   52.9561   26.3246 H         1 UNK         0.0000 
     33 H33         0.9686   50.0254   26.8805 H         1 UNK         0.0000 
     34 H34         0.9960   49.5555   24.4956 H         1 UNK         0.0000 
     35 H35        -0.0793   49.6426   20.9908 H         1 UNK         0.0000 
     36 H36         0.3905   48.9368   22.4962 H         1 UNK         0.0000 
     37 H37         0.8694   52.3363   21.0099 H         1 UNK         0.0000 
     38 H38         3.4274   52.1614   20.3180 H         1 UNK         0.0000 
     39 H39         4.1281   54.2965   19.6608 H         1 UNK         0.0000 
     40 H40         7.8141   56.0964   20.8110 H         1 UNK         0.0000 
     41 H41         7.5032   55.3612   23.1005 H         1 UNK         0.0000 
     42 H42         6.1323   55.5733   25.0837 H         1 UNK         0.0000 
     43 H43         7.2014   54.1689   24.9904 H         1 UNK         0.0000 
     44 H44         5.7709   52.8966   26.4836 H         1 UNK         0.0000 
     45 H45         6.3082   55.6531   27.6814 H         1 UNK         0.0000 
     46 H46         7.4906   54.3514   27.5471 H         1 UNK         0.0000 
     47 H47         6.0917   54.1653   28.5919 H         1 UNK         0.0000 
     48 H48         3.8848   55.2972   26.6074 H         1 UNK         0.0000 
     49 H49         3.5313   53.7429   25.8637 H         1 UNK         0.0000 
     50 H50         3.7581   53.8453   27.5990 H         1 UNK         0.0000 
@<TRIPOS>BOND
     1    1    2 1    
     2    1   29 1    
     3    1   30 1    
     4    1   31 1    
     5    2    7 ar   
     6    2    3 ar   
     7    3    4 ar   
     8    3   32 1    
     9    4    5 ar   
    10    4   28 1    
    11    5    6 ar   
    12    5   33 1    
    13    6    7 ar   
    14    6   34 1    
    15    7    8 1    
    16    8    9 1    
    17    9   10 1    
    18    9   35 1    
    19    9   36 1    
    20   10   11 2    
    21   10   12 am   BACKBONE|DICT|INTERRES
    22   12   13 1    
    23   12   37 1    
    24   13   14 am   BACKBONE|DICT|INTERRES
    25   13   38 1    
    26   14   15 2    
    27   14   16 1    
    28   16   21 ar   
    29   16   17 ar   
    30   17   18 ar   
    31   17   39 1    
    32   18   19 ar   
    33   18   27 1    
    34   19   20 ar   
    35   19   40 1    
    36   20   21 ar   
    37   20   41 1    
    38   21   22 1    
    39   22   23 1    
    40   23   24 1    
    41   23   42 1    
    42   23   43 1    
    43   24   25 1    
    44   24   26 1    
    45   24   44 1    
    46   25   45 1    
    47   25   46 1    
    48   25   47 1    
    49   26   48 1    
    50   26   49 1    
    51   26   50 1    
@<TRIPOS>SUBSTRUCTURE
     1 UNK         1 GROUP             0       ****    0 ROOT    
