@<TRIPOS>MOLECULE
ZINC02543751_2944
51   53    1
SMALL
USER_CHARGES


@<TRIPOS>ATOM
      1 C1          3.3266   51.6966   15.4697 C.3       1 UNK         0.0000 
      2 C2          4.1878   52.9443   15.4308 C.ar      1 UNK         0.0000 
      3 C3          4.2449   53.7049   14.2616 C.ar      1 UNK         0.0000 
      4 C4          5.0290   54.8549   14.2117 C.ar      1 UNK         0.0000 
      5 C5          5.7435   55.2596   15.3379 C.ar      1 UNK         0.0000 
      6 C6          5.6791   54.5236   16.5248 C.ar      1 UNK         0.0000 
      7 C7          4.9138   53.3438   16.5574 C.ar      1 UNK         0.0000 
      8 N8          6.4168   55.0438   17.6066 N.pl3     1 UNK         0.0000 
      9 C9          6.3308   54.8781   18.9583 C.2       1 UNK         0.0000 
     10 S10         7.5031   55.6968   19.8216 S.2       1 UNK         0.0000 
     11 N11         5.2596   54.1415   19.4194 N.pl3     1 UNK         0.0000 
     12 N12         4.6195   54.0474   20.6390 N.2       1 UNK         0.0000 
     13 C13         5.2293   54.1258   21.7577 C.2       1 UNK         0.0000 
     14 C14         4.5482   54.0950   23.0536 C.ar      1 UNK         0.0000 
     15 C15         3.1740   53.8420   23.1690 C.ar      1 UNK         0.0000 
     16 C16         2.5567   53.8182   24.4170 C.ar      1 UNK         0.0000 
     17 C17         3.3013   54.0459   25.5825 C.ar      1 UNK         0.0000 
     18 C18         4.6729   54.3224   25.4740 C.ar      1 UNK         0.0000 
     19 C19         5.2846   54.3356   24.2202 C.ar      1 UNK         0.0000 
     20 O20         5.4342   54.6297   26.5765 O.3       1 UNK         0.0000 
     21 C21         5.8333   53.5114   27.3578 C.3       1 UNK         0.0000 
     22 O22         2.7143   54.1107   26.8292 O.3       1 UNK         0.0000 
     23 C23         1.8260   53.1829   27.3022 C.2       1 UNK         0.0000 
     24 O24         1.5040   52.1490   26.7134 O.2       1 UNK         0.0000 
     25 C25         1.3072   53.5523   28.6560 C.ar      1 UNK         0.0000 
     26 C26         0.5493   52.6362   29.4021 C.ar      1 UNK         0.0000 
     27 C27         0.0646   52.9820   30.6652 C.ar      1 UNK         0.0000 
     28 C28         0.3092   54.2519   31.1879 C.ar      1 UNK         0.0000 
     29 C29         1.0744   55.1660   30.4580 C.ar      1 UNK         0.0000 
     30 C30         1.5595   54.8194   29.2039 C.ar      1 UNK         0.0000 
     31 Br31        1.5044   56.8905   31.1350 Br        1 UNK         0.0000 
     32 H32         3.7626   50.9180   14.8432 H         1 UNK         0.0000 
     33 H33         3.2046   51.2970   16.4781 H         1 UNK         0.0000 
     34 H34         2.3317   51.9126   15.0810 H         1 UNK         0.0000 
     35 H35         3.6863   53.4017   13.3881 H         1 UNK         0.0000 
     36 H36         5.0777   55.4373   13.3036 H         1 UNK         0.0000 
     37 H37         6.3350   56.1625   15.2839 H         1 UNK         0.0000 
     38 H38         4.8848   52.7048   17.4274 H         1 UNK         0.0000 
     39 H39         7.1433   55.6816   17.3157 H         1 UNK         0.0000 
     40 H40         4.6413   53.8386   18.6810 H         1 UNK         0.0000 
     41 H41         6.3065   54.2044   21.8359 H         1 UNK         0.0000 
     42 H42         2.5713   53.6667   22.2880 H         1 UNK         0.0000 
     43 H43         1.4938   53.6355   24.4755 H         1 UNK         0.0000 
     44 H44         6.3428   54.5531   24.1661 H         1 UNK         0.0000 
     45 H45         6.3225   53.8618   28.2667 H         1 UNK         0.0000 
     46 H46         4.9913   52.8847   27.6563 H         1 UNK         0.0000 
     47 H47         6.5510   52.8967   26.8149 H         1 UNK         0.0000 
     48 H48         0.3376   51.6473   29.0157 H         1 UNK         0.0000 
     49 H49        -0.4978   52.2646   31.2489 H         1 UNK         0.0000 
     50 H50        -0.0629   54.5032   32.1700 H         1 UNK         0.0000 
     51 H51         2.1384   55.5597   28.6697 H         1 UNK         0.0000 
@<TRIPOS>BOND
     1    1    2 1    
     2    1   32 1    
     3    1   33 1    
     4    1   34 1    
     5    2    7 ar   
     6    2    3 ar   
     7    3    4 ar   
     8    3   35 1    
     9    4    5 ar   
    10    4   36 1    
    11    5    6 ar   
    12    5   37 1    
    13    6    7 ar   
    14    6    8 1    
    15    7   38 1    
    16    8    9 1    
    17    8   39 1    
    18    9   10 2    
    19    9   11 1    
    20   11   12 1    
    21   11   40 1    
    22   12   13 2    
    23   13   14 1    
    24   13   41 1    
    25   14   19 ar   
    26   14   15 ar   
    27   15   16 ar   
    28   15   42 1    
    29   16   17 ar   
    30   16   43 1    
    31   17   18 ar   
    32   17   22 1    
    33   18   19 ar   
    34   18   20 1    
    35   19   44 1    
    36   20   21 1    
    37   21   45 1    
    38   21   46 1    
    39   21   47 1    
    40   22   23 1    
    41   23   24 2    
    42   23   25 1    
    43   25   30 ar   
    44   25   26 ar   
    45   26   27 ar   
    46   26   48 1    
    47   27   28 ar   
    48   27   49 1    
    49   28   29 ar   
    50   28   50 1    
    51   29   30 ar   
    52   29   31 1    
    53   30   51 1    
@<TRIPOS>SUBSTRUCTURE
     1 UNK         1 GROUP             0       ****    0 ROOT    
