@<TRIPOS>MOLECULE
ZINC09112983_2817
54   57    1
SMALL
USER_CHARGES


@<TRIPOS>ATOM
      1 C1          6.4447   54.3523   25.8971 C.ar      1 UNK         0.0000 
      2 C2          5.1103   54.6916   25.7020 C.ar      1 UNK         0.0000 
      3 C3          4.2029   54.5380   26.7462 C.ar      1 UNK         0.0000 
      4 C4          4.6184   54.0316   27.9867 C.ar      1 UNK         0.0000 
      5 C5          5.9611   53.6967   28.1647 C.ar      1 UNK         0.0000 
      6 C6          6.8701   53.8578   27.1271 C.ar      1 UNK         0.0000 
      7 C7          3.6467   53.8701   29.1660 C.3       1 UNK         0.0000 
      8 O8          2.5548   52.9919   28.8657 O.3       1 UNK         0.0000 
      9 C9          1.5223   53.4380   28.1096 C.2       1 UNK         0.0000 
     10 O10         1.1784   54.6225   28.0819 O.2       1 UNK         0.0000 
     11 N11         1.0627   52.4490   27.2355 N.am      1 UNK         0.0000 
     12 C12         1.1044   51.0249   27.6100 C.3       1 UNK         0.0000 
     13 C13         0.3051   50.2033   26.5819 C.2       1 UNK         0.0000 
     14 C14        -0.2905   50.6820   25.4658 C.2       1 UNK         0.0000 
     15 C15        -0.1821   52.1853   25.1717 C.3       1 UNK         0.0000 
     16 H16        -1.0436   52.6466   25.6600 H         1 UNK         0.0000 
     17 C17         1.0807   52.8008   25.8132 C.3       1 UNK         0.0000 
     18 C18        -0.2988   52.4626   23.6502 C.3       1 UNK         0.0000 
     19 H19        -0.4466   53.5409   23.5701 H         1 UNK         0.0000 
     20 C20        -1.5932   51.8063   23.0644 C.3       1 UNK         0.0000 
     21 C21        -1.6892   50.3208   23.4621 C.2       1 UNK         0.0000 
     22 C22        -1.0719   49.8245   24.5622 C.2       1 UNK         0.0000 
     23 C23        -1.1792   48.4135   24.8044 C.1       1 UNK         0.0000 
     24 N24        -1.2943   47.2630   24.8820 N.1       1 UNK         0.0000 
     25 N25        -2.4839   49.5445   22.6434 N.pl3     1 UNK         0.0000 
     26 C26        -2.7683   52.4924   23.6333 C.1       1 UNK         0.0000 
     27 N27        -3.6856   53.0361   24.0821 N.1       1 UNK         0.0000 
     28 C28        -1.6460   51.9710   21.5975 C.1       1 UNK         0.0000 
     29 N29        -1.6962   52.0958   20.4482 N.1       1 UNK         0.0000 
     30 C30         1.0100   52.2140   22.8639 C.ar      1 UNK         0.0000 
     31 C31         1.3595   50.9500   22.3655 C.ar      1 UNK         0.0000 
     32 C32         2.5406   50.7691   21.6431 C.ar      1 UNK         0.0000 
     33 C33         3.3977   51.8460   21.4211 C.ar      1 UNK         0.0000 
     34 C34         3.0794   53.1020   21.9356 C.ar      1 UNK         0.0000 
     35 C35         1.8911   53.2841   22.6446 C.ar      1 UNK         0.0000 
     36 Cl36        4.1517   54.4337   21.6968 Cl        1 UNK         0.0000 
     37 H37         7.1507   54.4690   25.0875 H         1 UNK         0.0000 
     38 H38         4.7818   55.0799   24.7489 H         1 UNK         0.0000 
     39 H39         3.1841   54.8442   26.5765 H         1 UNK         0.0000 
     40 H40         6.3139   53.3091   29.1061 H         1 UNK         0.0000 
     41 H41         7.9032   53.5905   27.2838 H         1 UNK         0.0000 
     42 H42         3.2946   54.8527   29.4861 H         1 UNK         0.0000 
     43 H43         4.1844   53.4479   30.0160 H         1 UNK         0.0000 
     44 H44         0.6625   50.8955   28.5993 H         1 UNK         0.0000 
     45 H45         2.1286   50.6615   27.6818 H         1 UNK         0.0000 
     46 H46         0.2050   49.1477   26.8000 H         1 UNK         0.0000 
     47 H47         1.9978   52.4105   25.3702 H         1 UNK         0.0000 
     48 H48         1.1044   53.8790   25.6484 H         1 UNK         0.0000 
     49 H49        -2.9404   49.9221   21.8247 H         1 UNK         0.0000 
     50 H50        -2.6370   48.5664   22.8503 H         1 UNK         0.0000 
     51 H51         0.7262   50.0909   22.5191 H         1 UNK         0.0000 
     52 H52         2.7917   49.7918   21.2538 H         1 UNK         0.0000 
     53 H53         4.3073   51.7058   20.8544 H         1 UNK         0.0000 
     54 H54         1.6576   54.2695   23.0206 H         1 UNK         0.0000 
@<TRIPOS>BOND
     1    1    6 ar   
     2    1    2 ar   
     3    1   37 1    
     4    2    3 ar   
     5    2   38 1    
     6    3    4 ar   
     7    3   39 1    
     8    4    5 ar   
     9    4    7 1    
    10    5    6 ar   
    11    5   40 1    
    12    6   41 1    
    13    7    8 1    
    14    7   42 1    
    15    7   43 1    
    16    8    9 1    
    17    9   10 2    
    18    9   11 am   BACKBONE|DICT|INTERRES
    19   11   17 1    
    20   11   12 1    
    21   12   13 1    
    22   12   44 1    
    23   12   45 1    
    24   13   14 2    
    25   13   46 1    
    26   14   22 1    
    27   14   15 1    
    28   15   16 1    
    29   15   17 1    
    30   15   18 1    
    31   17   47 1    
    32   17   48 1    
    33   18   19 1    
    34   18   20 1    
    35   18   30 1    
    36   20   21 1    
    37   20   26 1    
    38   20   28 1    
    39   21   22 2    
    40   21   25 1    
    41   22   23 1    
    42   23   24 3    
    43   25   49 1    
    44   25   50 1    
    45   26   27 3    
    46   28   29 3    
    47   30   35 ar   
    48   30   31 ar   
    49   31   32 ar   
    50   31   51 1    
    51   32   33 ar   
    52   32   52 1    
    53   33   34 ar   
    54   33   53 1    
    55   34   35 ar   
    56   34   36 1    
    57   35   54 1    
@<TRIPOS>SUBSTRUCTURE
     1 UNK         1 GROUP             0       ****    0 ROOT    
