ZINC14169247_2040
                    3D
 Schrodinger Suite 2024-2.
 53 56  0  0  1  0            999 V2000
    1.6462   55.5719   29.8641 C   0  0  0  0  0  0
    1.4383   54.4841   28.8266 C   0  0  0  0  0  0
    2.3948   54.2659   27.8350 C   0  0  0  0  0  0
    2.1746   53.2967   26.8585 C   0  0  0  0  0  0
    0.9908   52.5471   26.8500 C   0  0  0  0  0  0
    0.0636   52.7402   27.8825 C   0  0  0  0  0  0
    0.2892   53.6969   28.8682 C   0  0  0  0  0  0
    0.7043   51.5230   25.7817 C   0  0  0  0  0  0
    0.0731   50.3043   26.1056 C   0  0  0  0  0  0
   -0.0912   49.4378   25.0422 C   0  0  0  0  0  0
    0.5096   50.1050   23.5728 S   0  0  0  0  0  0
    1.0179   51.5663   24.3967 C   0  0  0  0  0  0
    1.6336   52.6367   23.6336 C   0  0  0  0  0  0
    1.5238   53.8131   23.9837 O   0  0  0  0  0  0
    2.3677   52.2314   22.5697 N   0  0  0  0  0  0
    3.3461   52.9785   21.8898 C   0  0  0  0  0  0
    3.5359   52.7428   20.5258 C   0  0  0  0  0  0
    4.4764   53.4885   19.8127 C   0  0  0  0  0  0
    5.2456   54.4600   20.4658 C   0  0  0  0  0  0
    5.1354   54.6013   21.8483 C   0  0  0  0  0  0
    4.1746   53.8891   22.5562 C   0  0  0  0  0  0
    6.3887   55.5215   19.5510 S   0  0  0  0  0  0
    6.6738   56.6271   20.4792 O   0  0  0  0  0  0
    7.5030   54.6090   19.2812 O   0  0  0  0  0  0
    5.3181   55.8484   18.1908 N   0  0  0  0  0  0
    5.4526   56.9294   17.5345 C   0  0  0  0  0  0
    4.8025   57.3375   16.3153 C   0  0  0  0  0  0
    5.3798   58.4868   15.9109 C   0  0  0  0  0  0
    6.3109   58.8967   16.8390 N   0  0  0  0  0  0
    6.3044   59.8311   17.2742 H   0  0  0  0  0  0
    6.3044   57.9438   17.8710 O   0  0  0  0  0  0
    5.1950   59.3209   14.6566 C   0  0  0  0  0  0
    3.7358   56.5054   15.6206 C   0  0  0  0  0  0
    1.1546   55.3232   30.8060 H   0  0  0  0  0  0
    1.2528   56.5236   29.5046 H   0  0  0  0  0  0
    2.7048   55.6979   30.0815 H   0  0  0  0  0  0
    3.3001   54.8550   27.8067 H   0  0  0  0  0  0
    2.9266   53.1409   26.0997 H   0  0  0  0  0  0
   -0.8505   52.1649   27.9156 H   0  0  0  0  0  0
   -0.4476   53.8436   29.6446 H   0  0  0  0  0  0
   -0.2433   50.0439   27.1066 H   0  0  0  0  0  0
   -0.5292   48.4506   25.0672 H   0  0  0  0  0  0
    2.2464   51.2805   22.2572 H   0  0  0  0  0  0
    2.9356   52.0135   20.0010 H   0  0  0  0  0  0
    4.5868   53.3244   18.7500 H   0  0  0  0  0  0
    5.7685   55.2965   22.3781 H   0  0  0  0  0  0
    4.0840   54.0468   23.6209 H   0  0  0  0  0  0
    4.4472   58.8829   13.9968 H   0  0  0  0  0  0
    4.8808   60.3388   14.8817 H   0  0  0  0  0  0
    6.1347   59.3768   14.1075 H   0  0  0  0  0  0
    3.4650   56.9194   14.6499 H   0  0  0  0  0  0
    4.0874   55.4848   15.4636 H   0  0  0  0  0  0
    2.8342   56.4639   16.2328 H   0  0  0  0  0  0
  1  2  1  0  0  0
  1 34  1  0  0  0
  1 35  1  0  0  0
  1 36  1  0  0  0
  2  7  2  0  0  0
  2  3  1  0  0  0
  3  4  2  0  0  0
  3 37  1  0  0  0
  4  5  1  0  0  0
  4 38  1  0  0  0
  5  6  2  0  0  0
  5  8  1  0  0  0
  6  7  1  0  0  0
  6 39  1  0  0  0
  7 40  1  0  0  0
  8 12  2  0  0  0
  8  9  1  0  0  0
  9 10  2  0  0  0
  9 41  1  0  0  0
 10 11  1  0  0  0
 10 42  1  0  0  0
 11 12  1  0  0  0
 12 13  1  0  0  0
 13 14  2  0  0  0
 13 15  1  0  0  0
 15 16  1  0  0  0
 15 43  1  0  0  0
 16 21  2  0  0  0
 16 17  1  0  0  0
 17 18  2  0  0  0
 17 44  1  0  0  0
 18 19  1  0  0  0
 18 45  1  0  0  0
 19 20  2  0  0  0
 19 22  1  0  0  0
 20 21  1  0  0  0
 20 46  1  0  0  0
 21 47  1  0  0  0
 22 23  2  0  0  0
 22 24  2  0  0  0
 22 25  1  0  0  0
 25 26  2  0  0  0
 26 31  1  0  0  0
 26 27  1  0  0  0
 27 28  2  0  0  0
 27 33  1  0  0  0
 28 29  1  0  0  0
 28 32  1  0  0  0
 29 30  1  0  0  0
 29 31  1  0  0  0
 32 48  1  0  0  0
 32 49  1  0  0  0
 32 50  1  0  0  0
 33 51  1  0  0  0
 33 52  1  0  0  0
 33 53  1  0  0  0
M  END
> <i_i_glide_confnum>
113

> <i_i_glide_lignum>
2041

> <i_i_glide_posenum>
319

> <i_i_glide_rotatable_bonds>
6

> <i_m_Source_File_Index>
5187

> <b_m_subgroup_collapsed>
0

> <r_i_docking_score>
-5.28284

> <r_i_glide_ecoul>
-10.0814

> <r_i_glide_eff_state_penalty>
0

> <r_i_glide_einternal>
10.2929

> <r_i_glide_emodel>
-61.8885

> <r_i_glide_energy>
-51.1778

> <r_i_glide_erotb>
0.553941

> <r_i_glide_esite>
-0.13189

> <r_i_glide_evdw>
-41.0964

> <r_i_glide_gscore>
-5.28284

> <r_i_glide_hbond>
-0.16

> <r_i_glide_ligand_efficiency>
-0.165089

> <r_i_glide_ligand_efficiency_ln>
-1.18297

> <r_i_glide_ligand_efficiency_sa>
-0.524124

> <r_i_glide_lipo>
-2.0472

> <r_i_glide_metal>
0

> <r_i_glide_rewards>
0.0693453

> <s_i_glide_gridfile>
wee1_glide-grid

> <s_m_Source_File>
wee1_decoys_glide_SP.sdf

> <s_m_Source_Path>
/Users/zhangxujun/Desktop

> <s_m_entry_id>
5462

> <s_m_entry_name>
wee1_decoys_glide_SP.5187

> <s_m_subgroup_title>
wee1_decoys_glide_SP

> <s_m_subgroupid>
wee1_decoys_glide_SP


$$$$
