ZINC08733841_4771
                    3D
 Schrodinger Suite 2024-2.
 37 39  0  0  1  0            999 V2000
    6.3050   54.8973   21.1119 C   0  0  0  0  0  0
    5.6671   54.2123   22.3420 C   0  0  2  0  0  0
    5.9725   53.1658   22.3503 H   0  0  0  0  0  0
    4.1324   54.2736   22.2251 C   0  0  0  0  0  0
    3.3471   53.7016   23.4185 C   0  0  0  0  0  0
    4.0353   54.0004   24.7629 C   0  0  0  0  0  0
    3.4692   53.8114   26.0620 C   0  0  0  0  0  0
    4.3800   54.1807   27.0620 C   0  0  0  0  0  0
    5.9045   54.7079   26.4505 S   0  0  0  0  0  0
    5.3519   54.4928   24.8257 C   0  0  0  0  0  0
    6.2350   54.8461   23.6375 C   0  0  0  0  0  0
    2.1250   53.2969   26.3172 C   0  0  0  0  0  0
    1.3600   53.0709   25.3798 O   0  0  0  0  0  0
    1.8100   53.0898   27.6212 N   0  0  0  0  0  0
    0.6370   52.5368   28.1491 C   0  0  0  0  0  0
    0.3414   52.3495   29.5208 C   0  0  0  0  0  0
   -0.8956   51.6966   29.6790 C   0  0  0  0  0  0
   -1.5560   51.4146   28.5002 C   0  0  0  0  0  0
   -0.6624   51.9348   27.1314 S   0  0  0  0  0  0
    1.2015   52.7134   30.6375 C   0  0  0  0  0  0
    2.3267   53.1841   30.4775 O   0  0  0  0  0  0
    0.7145   52.4957   31.8672 N   0  0  0  0  0  0
    5.9788   55.9341   21.0184 H   0  0  0  0  0  0
    7.3941   54.9092   21.1722 H   0  0  0  0  0  0
    6.0292   54.3831   20.1907 H   0  0  0  0  0  0
    3.8154   55.2969   22.0877 H   0  0  0  0  0  0
    3.8105   53.7897   21.3005 H   0  0  0  0  0  0
    3.2051   52.6292   23.2833 H   0  0  0  0  0  0
    2.3482   54.1364   23.3884 H   0  0  0  0  0  0
    4.2463   54.1555   28.1329 H   0  0  0  0  0  0
    6.3080   55.9303   23.5488 H   0  0  0  0  0  0
    7.2513   54.4834   23.8018 H   0  0  0  0  0  0
    2.4970   53.3477   28.3160 H   0  0  0  0  0  0
   -1.2955   51.3810   30.6311 H   0  0  0  0  0  0
   -2.4961   50.8955   28.3792 H   0  0  0  0  0  0
   -0.2177   52.1179   32.0380 H   0  0  0  0  0  0
    1.2993   52.6689   32.6700 H   0  0  0  0  0  0
  1  2  1  0  0  0
  1 23  1  0  0  0
  1 24  1  0  0  0
  1 25  1  0  0  0
  2  3  1  0  0  0
  2 11  1  0  0  0
  2  4  1  0  0  0
  4  5  1  0  0  0
  4 26  1  0  0  0
  4 27  1  0  0  0
  5  6  1  0  0  0
  5 28  1  0  0  0
  5 29  1  0  0  0
  6 10  2  0  0  0
  6  7  1  0  0  0
  7  8  2  0  0  0
  7 12  1  0  0  0
  8  9  1  0  0  0
  8 30  1  0  0  0
  9 10  1  0  0  0
 10 11  1  0  0  0
 11 31  1  0  0  0
 11 32  1  0  0  0
 12 13  2  0  0  0
 12 14  1  0  0  0
 14 15  1  0  0  0
 14 33  1  0  0  0
 15 19  1  0  0  0
 15 16  2  0  0  0
 16 17  1  0  0  0
 16 20  1  0  0  0
 17 18  2  0  0  0
 17 34  1  0  0  0
 18 19  1  0  0  0
 18 35  1  0  0  0
 20 21  2  0  0  0
 20 22  1  0  0  0
 22 36  1  0  0  0
 22 37  1  0  0  0
M  END
> <i_i_glide_confnum>
1

> <i_i_glide_lignum>
4772

> <i_i_glide_posenum>
66

> <i_i_glide_rotatable_bonds>
4

> <i_m_Source_File_Index>
3775

> <b_m_subgroup_collapsed>
0

> <r_i_docking_score>
-6.98781

> <r_i_glide_ecoul>
-7.35309

> <r_i_glide_eff_state_penalty>
0

> <r_i_glide_einternal>
0.69989

> <r_i_glide_emodel>
-65.2193

> <r_i_glide_energy>
-43.8477

> <r_i_glide_erotb>
0.545577

> <r_i_glide_esite>
-0.121507

> <r_i_glide_evdw>
-36.4946

> <r_i_glide_gscore>
-6.98781

> <r_i_glide_hbond>
-0.49074

> <r_i_glide_ligand_efficiency>
-0.332753

> <r_i_glide_ligand_efficiency_ln>
-1.72772

> <r_i_glide_ligand_efficiency_sa>
-0.918039

> <r_i_glide_lipo>
-2.47355

> <r_i_glide_metal>
0

> <r_i_glide_rewards>
-1.51989

> <s_i_glide_gridfile>
wee1_glide-grid

> <s_m_Source_File>
wee1_decoys_glide_SP.sdf

> <s_m_Source_Path>
/Users/zhangxujun/Desktop

> <s_m_entry_id>
4050

> <s_m_entry_name>
wee1_decoys_glide_SP.3775

> <s_m_subgroup_title>
wee1_decoys_glide_SP

> <s_m_subgroupid>
wee1_decoys_glide_SP


$$$$
