@<TRIPOS>MOLECULE
ZINC39575922_333
66   70    1
SMALL
USER_CHARGES


@<TRIPOS>ATOM
      1 C1          9.9148   56.6162   16.8178 C.3       1 UNK         0.0000 
      2 O2          9.3997   55.2972   16.9591 O.3       1 UNK         0.0000 
      3 C3          8.1353   55.1196   17.4850 C.ar      1 UNK         0.0000 
      4 C4          7.2631   56.1659   17.8239 C.ar      1 UNK         0.0000 
      5 C5          6.0116   55.8875   18.3675 C.ar      1 UNK         0.0000 
      6 C6          5.6254   54.5640   18.5993 C.ar      1 UNK         0.0000 
      7 C7          6.4843   53.5222   18.2416 C.ar      1 UNK         0.0000 
      8 C8          7.7275   53.8013   17.6817 C.ar      1 UNK         0.0000 
      9 C9          4.2673   54.2728   19.2375 C.3       1 UNK         0.0000 
     10 H10         3.7119   55.2106   19.3049 H         1 UNK         0.0000 
     11 N11         3.5049   53.3674   18.4058 N.3       1 UNK         0.0000 
     12 N12         2.4692   52.8967   19.2662 N.3       1 UNK         0.0000 
     13 C13         3.1391   52.7262   20.5353 C.3       1 UNK         0.0000 
     14 H14         2.4101   53.0061   21.2954 H         1 UNK         0.0000 
     15 N15         4.2783   53.6528   20.5719 N.pl3     1 UNK         0.0000 
     16 C16         4.9101   54.1007   21.7577 C.ar      1 UNK         0.0000 
     17 C17         4.4222   53.7058   23.0131 C.ar      1 UNK         0.0000 
     18 C18         5.0452   54.0967   24.1959 C.ar      1 UNK         0.0000 
     19 C19         6.2051   54.8789   24.1605 C.ar      1 UNK         0.0000 
     20 C20         6.7044   55.2712   22.9214 C.ar      1 UNK         0.0000 
     21 C21         6.0650   54.8967   21.7405 C.ar      1 UNK         0.0000 
     22 O22         6.8982   55.2971   25.2817 O.3       1 UNK         0.0000 
     23 C23         6.4470   54.8840   26.5686 C.3       1 UNK         0.0000 
     24 S24         3.5975   51.0072   20.8820 S.3       1 UNK         0.0000 
     25 C25         2.0274   50.0905   20.7326 C.3       1 UNK         0.0000 
     26 C26         1.0613   50.1500   21.9269 C.2       1 UNK         0.0000 
     27 O27         0.0238   49.4866   21.8598 O.2       1 UNK         0.0000 
     28 N28         1.3949   50.9051   22.9953 N.am      1 UNK         0.0000 
     29 N29         0.6639   50.9091   24.1292 N.2       1 UNK         0.0000 
     30 C30         1.1028   51.6968   25.0248 C.2       1 UNK         0.0000 
     31 C31         0.4887   51.7302   26.3257 C.2       1 UNK         0.0000 
     32 C32         0.8087   52.5758   27.3318 C.2       1 UNK         0.0000 
     33 C33         1.7924   53.6721   27.4272 C.2       1 UNK         0.0000 
     34 C34         1.9175   54.3955   28.5585 C.2       1 UNK         0.0000 
     35 C35         1.0640   54.0535   29.6882 C.2       1 UNK         0.0000 
     36 C36         0.1641   53.0377   29.6296 C.2       1 UNK         0.0000 
     37 C37         0.0141   52.2925   28.4531 C.2       1 UNK         0.0000 
     38 N38        -0.8012   51.2967   28.2053 N.pl3     1 UNK         0.0000 
     39 C39        -0.6087   50.8112   26.8310 C.3       1 UNK         0.0000 
     40 H40        10.9290   56.5649   16.4218 H         1 UNK         0.0000 
     41 H41         9.3183   57.2074   16.1211 H         1 UNK         0.0000 
     42 H42         9.9627   57.1315   17.7787 H         1 UNK         0.0000 
     43 H43         7.5389   57.1980   17.6716 H         1 UNK         0.0000 
     44 H44         5.3533   56.7043   18.6263 H         1 UNK         0.0000 
     45 H45         6.1846   52.4968   18.4051 H         1 UNK         0.0000 
     46 H46         8.3888   52.9894   17.4166 H         1 UNK         0.0000 
     47 H47         3.0670   53.7973   17.6026 H         1 UNK         0.0000 
     48 H48         1.9034   53.7336   19.4185 H         1 UNK         0.0000 
     49 H49         3.5459   53.0862   23.0969 H         1 UNK         0.0000 
     50 H50         4.6248   53.7609   25.1307 H         1 UNK         0.0000 
     51 H51         7.5994   55.8729   22.8755 H         1 UNK         0.0000 
     52 H52         6.5182   55.2175   20.8215 H         1 UNK         0.0000 
     53 H53         7.1052   55.2962   27.3320 H         1 UNK         0.0000 
     54 H54         5.4392   55.2466   26.7765 H         1 UNK         0.0000 
     55 H55         6.4666   53.7974   26.6697 H         1 UNK         0.0000 
     56 H56         2.2851   49.0436   20.5700 H         1 UNK         0.0000 
     57 H57         1.5073   50.4145   19.8312 H         1 UNK         0.0000 
     58 H58         2.2411   51.4534   23.0049 H         1 UNK         0.0000 
     59 H59         1.9466   52.3738   24.9063 H         1 UNK         0.0000 
     60 H60         2.4315   53.9328   26.5959 H         1 UNK         0.0000 
     61 H61         2.6325   55.2033   28.6274 H         1 UNK         0.0000 
     62 H62         1.1475   54.6240   30.6027 H         1 UNK         0.0000 
     63 H63        -0.4361   52.8211   30.5046 H         1 UNK         0.0000 
     64 H64        -0.3282   49.7557   26.8817 H         1 UNK         0.0000 
     65 H65        -1.5560   50.9108   26.2995 H         1 UNK         0.0000 
     66 H66        -1.4548   50.8707   28.8619 H         1 UNK         0.0000 
@<TRIPOS>BOND
     1    1    2 1    
     2    1   40 1    
     3    1   41 1    
     4    1   42 1    
     5    2    3 1    
     6    3    8 ar   
     7    3    4 ar   
     8    4    5 ar   
     9    4   43 1    
    10    5    6 ar   
    11    5   44 1    
    12    6    7 ar   
    13    6    9 1    
    14    7    8 ar   
    15    7   45 1    
    16    8   46 1    
    17    9   10 1    
    18    9   15 1    
    19    9   11 1    
    20   11   12 1    
    21   11   47 1    
    22   12   13 1    
    23   12   48 1    
    24   13   14 1    
    25   13   15 1    
    26   13   24 1    
    27   15   16 1    
    28   16   21 ar   
    29   16   17 ar   
    30   17   18 ar   
    31   17   49 1    
    32   18   19 ar   
    33   18   50 1    
    34   19   20 ar   
    35   19   22 1    
    36   20   21 ar   
    37   20   51 1    
    38   21   52 1    
    39   22   23 1    
    40   23   53 1    
    41   23   54 1    
    42   23   55 1    
    43   24   25 1    
    44   25   26 1    
    45   25   56 1    
    46   25   57 1    
    47   26   27 2    
    48   26   28 am   BACKBONE|DICT|INTERRES
    49   28   29 1    
    50   28   58 1    
    51   29   30 2    
    52   30   31 1    
    53   30   59 1    
    54   31   39 1    
    55   31   32 2    
    56   32   37 1    
    57   32   33 1    
    58   33   34 2    
    59   33   60 1    
    60   34   35 1    
    61   34   61 1    
    62   35   36 2    
    63   35   62 1    
    64   36   37 1    
    65   36   63 1    
    66   37   38 2    
    67   38   39 1    
    68   38   66 1    
    69   39   64 1    
    70   39   65 1    
@<TRIPOS>SUBSTRUCTURE
     1 UNK         1 GROUP             0       ****    0 ROOT    
