@<TRIPOS>MOLECULE
ZINC39636389_5536
73   77    1
SMALL
USER_CHARGES


@<TRIPOS>ATOM
      1 C1          9.0419   55.3433   19.1166 C.3       1 UNK         0.0000 
      2 O2          7.9630   54.9966   18.2527 O.3       1 UNK         0.0000 
      3 C3          7.0936   55.9825   17.8178 C.ar      1 UNK         0.0000 
      4 C4          7.2007   57.3220   18.2244 C.ar      1 UNK         0.0000 
      5 C5          6.3034   58.2783   17.7614 C.ar      1 UNK         0.0000 
      6 C6          5.2924   57.9267   16.8750 C.ar      1 UNK         0.0000 
      7 C7          5.1732   56.6044   16.4583 C.ar      1 UNK         0.0000 
      8 C8          6.0566   55.6258   16.9324 C.ar      1 UNK         0.0000 
      9 C9          5.8395   54.1755   16.4948 C.3       1 UNK         0.0000 
     10 C10         4.4723   53.5767   16.9189 C.3       1 UNK         0.0000 
     11 N11         4.0553   53.9191   18.2843 N.am      1 UNK         0.0000 
     12 C12         4.7035   53.5397   19.3971 C.2       1 UNK         0.0000 
     13 O13         5.7499   52.8970   19.3565 O.2       1 UNK         0.0000 
     14 C14         4.1335   54.0414   20.7419 C.3       1 UNK         0.0000 
     15 H15         3.5044   54.8964   20.5294 H         1 UNK         0.0000 
     16 C16         5.3352   54.5658   21.5663 C.3       1 UNK         0.0000 
     17 N17         4.9848   54.2664   22.9533 N.am      1 UNK         0.0000 
     18 C18         3.6908   53.5961   23.0451 C.3       1 UNK         0.0000 
     19 C19         3.3798   53.0126   21.6551 C.3       1 UNK         0.0000 
     20 C20         3.8584   51.5280   21.5979 C.3       1 UNK         0.0000 
     21 C21         3.3944   50.7655   20.3230 C.3       1 UNK         0.0000 
     22 N22         1.8835   50.9328   20.0669 N.4       1 UNK         0.0000 
     23 C23         1.3838   52.3826   20.1726 C.3       1 UNK         0.0000 
     24 C24         1.8360   52.9057   21.5392 C.3       1 UNK         0.0000 
     25 C25         5.8083   54.6224   23.9766 C.2       1 UNK         0.0000 
     26 O26         6.8984   55.1499   23.7676 O.2       1 UNK         0.0000 
     27 C27         5.4003   54.3889   25.4121 C.ar      1 UNK         0.0000 
     28 C28         6.3721   54.0957   26.3808 C.ar      1 UNK         0.0000 
     29 C29         5.9924   53.8272   27.6958 C.ar      1 UNK         0.0000 
     30 C30         4.6390   53.8809   28.0211 C.ar      1 UNK         0.0000 
     31 N31         3.6867   54.2303   27.1126 N.ar      1 UNK         0.0000 
     32 C32         4.0750   54.4981   25.8498 C.ar      1 UNK         0.0000 
     33 O33         4.2487   53.5701   29.3068 O.3       1 UNK         0.0000 
     34 C34         2.9583   53.7705   29.7438 C.ar      1 UNK         0.0000 
     35 C35         2.2824   52.7016   30.3310 C.ar      1 UNK         0.0000 
     36 C36         1.0194   52.8983   30.8823 C.ar      1 UNK         0.0000 
     37 C37         0.4497   54.1683   30.8483 C.ar      1 UNK         0.0000 
     38 C38         1.1047   55.2359   30.2385 C.ar      1 UNK         0.0000 
     39 C39         2.3620   55.0355   29.6818 C.ar      1 UNK         0.0000 
     40 H40         9.6702   54.4724   19.2811 H         1 UNK         0.0000 
     41 H41         9.6792   56.1131   18.6807 H         1 UNK         0.0000 
     42 H42         8.6806   55.6799   20.0884 H         1 UNK         0.0000 
     43 H43         7.9783   57.6466   18.8971 H         1 UNK         0.0000 
     44 H44         6.3958   59.2967   18.0920 H         1 UNK         0.0000 
     45 H45         4.6049   58.6802   16.5149 H         1 UNK         0.0000 
     46 H46         4.3798   56.3381   15.7761 H         1 UNK         0.0000 
     47 H47         5.9518   54.1101   15.4124 H         1 UNK         0.0000 
     48 H48         6.6301   53.5387   16.8950 H         1 UNK         0.0000 
     49 H49         3.6864   53.9724   16.2755 H         1 UNK         0.0000 
     50 H50         4.4920   52.4869   16.8306 H         1 UNK         0.0000 
     51 H51         3.2419   54.5094   18.3762 H         1 UNK         0.0000 
     52 H52         6.2635   54.0289   21.3781 H         1 UNK         0.0000 
     53 H53         5.4731   55.6363   21.4063 H         1 UNK         0.0000 
     54 H54         2.9662   54.3945   23.2117 H         1 UNK         0.0000 
     55 H55         3.5473   52.8967   23.8640 H         1 UNK         0.0000 
     56 H56         4.9444   51.4792   21.6960 H         1 UNK         0.0000 
     57 H57         3.4697   50.9846   22.4636 H         1 UNK         0.0000 
     58 H58         3.8777   51.0840   19.4056 H         1 UNK         0.0000 
     59 H59         3.5044   49.6932   20.4087 H         1 UNK         0.0000 
     60 H60         1.6676   50.5588   19.1519 H         1 UNK         0.0000 
     61 H61         1.7947   52.9297   19.3258 H         1 UNK         0.0000 
     62 H62         0.2989   52.3412   20.0768 H         1 UNK         0.0000 
     63 H63         1.4232   52.2880   22.3401 H         1 UNK         0.0000 
     64 H64         1.3820   53.8781   21.7031 H         1 UNK         0.0000 
     65 H65         7.4167   54.0384   26.1166 H         1 UNK         0.0000 
     66 H66         6.7274   53.5677   28.4439 H         1 UNK         0.0000 
     67 H67         3.2735   54.8310   25.2115 H         1 UNK         0.0000 
     68 H68         2.7519   51.7327   30.3750 H         1 UNK         0.0000 
     69 H69         0.4920   52.0883   31.3675 H         1 UNK         0.0000 
     70 H70        -0.4955   54.3309   31.3319 H         1 UNK         0.0000 
     71 H71         0.6641   56.2214   30.2289 H         1 UNK         0.0000 
     72 H72         2.8924   55.8674   29.2433 H         1 UNK         0.0000 
     73 H73         1.3827   50.3652   20.7369 H         1 UNK         0.0000 
@<TRIPOS>BOND
     1    1    2 1    
     2    1   40 1    
     3    1   41 1    
     4    1   42 1    
     5    2    3 1    
     6    3    8 ar   
     7    3    4 ar   
     8    4    5 ar   
     9    4   43 1    
    10    5    6 ar   
    11    5   44 1    
    12    6    7 ar   
    13    6   45 1    
    14    7    8 ar   
    15    7   46 1    
    16    8    9 1    
    17    9   10 1    
    18    9   47 1    
    19    9   48 1    
    20   10   11 1    
    21   10   49 1    
    22   10   50 1    
    23   11   12 am   BACKBONE|DICT|INTERRES
    24   11   51 1    
    25   12   13 2    
    26   12   14 1    
    27   14   15 1    
    28   14   19 1    
    29   14   16 1    
    30   16   17 1    
    31   16   52 1    
    32   16   53 1    
    33   17   18 1    
    34   17   25 am   BACKBONE|DICT|INTERRES
    35   18   19 1    
    36   18   54 1    
    37   18   55 1    
    38   19   24 1    
    39   19   20 1    
    40   20   21 1    
    41   20   56 1    
    42   20   57 1    
    43   21   22 1    
    44   21   58 1    
    45   21   59 1    
    46   22   23 1    
    47   22   60 1    
    48   22   73 1    
    49   23   24 1    
    50   23   61 1    
    51   23   62 1    
    52   24   63 1    
    53   24   64 1    
    54   25   26 2    
    55   25   27 1    
    56   27   32 ar   
    57   27   28 ar   
    58   28   29 ar   
    59   28   65 1    
    60   29   30 ar   
    61   29   66 1    
    62   30   31 ar   
    63   30   33 1    
    64   31   32 ar   
    65   32   67 1    
    66   33   34 1    
    67   34   39 ar   
    68   34   35 ar   
    69   35   36 ar   
    70   35   68 1    
    71   36   37 ar   
    72   36   69 1    
    73   37   38 ar   
    74   37   70 1    
    75   38   39 ar   
    76   38   71 1    
    77   39   72 1    
@<TRIPOS>SUBSTRUCTURE
     1 UNK         1 GROUP             0       ****    0 ROOT    
