@<TRIPOS>MOLECULE
ZINC19664914_1525
50   53    1
SMALL
USER_CHARGES


@<TRIPOS>ATOM
      1 C1         -0.1645   50.9301   27.4738 C.3       1 UNK         0.0000 
      2 C2          0.4774   52.1460   28.1183 C.ar      1 UNK         0.0000 
      3 C3         -0.1268   52.7835   29.1990 C.ar      1 UNK         0.0000 
      4 C4          0.4317   53.9410   29.7364 C.ar      1 UNK         0.0000 
      5 C5          1.6330   54.4660   29.2294 C.ar      1 UNK         0.0000 
      6 C6          2.2925   53.7642   28.1947 C.ar      1 UNK         0.0000 
      7 C7          1.6883   52.6312   27.6336 C.ar      1 UNK         0.0000 
      8 N8          3.5574   54.1413   27.6863 N.am      1 UNK         0.0000 
      9 C9          3.8795   54.1517   26.2572 C.3       1 UNK         0.0000 
     10 C10         5.3881   53.9764   26.2022 C.3       1 UNK         0.0000 
     11 H11         5.6261   52.9115   26.1149 H         1 UNK         0.0000 
     12 C12         5.8533   54.5400   27.5360 C.3       1 UNK         0.0000 
     13 C13         4.6446   54.4149   28.4593 C.2       1 UNK         0.0000 
     14 O14         4.7039   54.4967   29.6816 O.2       1 UNK         0.0000 
     15 C15         5.9441   54.6614   24.9370 C.2       1 UNK         0.0000 
     16 O16         6.7046   55.6260   25.0321 O.2       1 UNK         0.0000 
     17 N17         5.5062   54.1312   23.7751 N.am      1 UNK         0.0000 
     18 C18         5.8163   54.4860   22.4534 C.ar      1 UNK         0.0000 
     19 C19         4.9481   54.0080   21.4608 C.ar      1 UNK         0.0000 
     20 C20         5.2084   54.2435   20.1081 C.ar      1 UNK         0.0000 
     21 C21         6.3615   54.9370   19.7427 C.ar      1 UNK         0.0000 
     22 C22         7.2241   55.4137   20.7295 C.ar      1 UNK         0.0000 
     23 C23         6.9510   55.2251   22.0806 C.ar      1 UNK         0.0000 
     24 O24         8.3612   56.0966   20.3618 O.3       1 UNK         0.0000 
     25 C25         8.9631   55.6611   19.1189 C.3       1 UNK         0.0000 
     26 C26         7.9397   55.4689   17.9596 C.2       1 UNK         0.0000 
     27 O27         8.2013   55.6104   16.7682 O.2       1 UNK         0.0000 
     28 N28         6.7140   55.1361   18.4103 N.am      1 UNK         0.0000 
     29 O29         2.1885   55.6497   29.6838 O.3       1 UNK         0.0000 
     30 C30         1.4741   56.4734   30.5978 C.3       1 UNK         0.0000 
     31 H31         0.5725   50.1493   27.2798 H         1 UNK         0.0000 
     32 H32        -0.9373   50.4971   28.1080 H         1 UNK         0.0000 
     33 H33        -0.6115   51.2017   26.5177 H         1 UNK         0.0000 
     34 H34        -1.0505   52.3981   29.6070 H         1 UNK         0.0000 
     35 H35        -0.0950   54.4217   30.5453 H         1 UNK         0.0000 
     36 H36         2.1688   52.0988   26.8290 H         1 UNK         0.0000 
     37 H37         3.5730   55.1432   25.9158 H         1 UNK         0.0000 
     38 H38         3.3526   53.3985   25.6740 H         1 UNK         0.0000 
     39 H39         6.6214   53.9001   27.9732 H         1 UNK         0.0000 
     40 H40         6.2391   55.5599   27.5151 H         1 UNK         0.0000 
     41 H41         4.8138   53.4042   23.8579 H         1 UNK         0.0000 
     42 H42         4.0664   53.4410   21.7246 H         1 UNK         0.0000 
     43 H43         4.5341   53.8580   19.3559 H         1 UNK         0.0000 
     44 H44         7.6472   55.6093   22.8084 H         1 UNK         0.0000 
     45 H45         9.4176   54.6822   19.2773 H         1 UNK         0.0000 
     46 H46         9.7439   56.3522   18.8009 H         1 UNK         0.0000 
     47 H47         6.0442   54.9434   17.6808 H         1 UNK         0.0000 
     48 H48         2.1154   57.2971   30.9041 H         1 UNK         0.0000 
     49 H49         0.5915   56.8953   30.1235 H         1 UNK         0.0000 
     50 H50         1.1706   55.9500   31.5041 H         1 UNK         0.0000 
@<TRIPOS>BOND
     1    1    2 1    
     2    1   31 1    
     3    1   32 1    
     4    1   33 1    
     5    2    7 ar   
     6    2    3 ar   
     7    3    4 ar   
     8    3   34 1    
     9    4    5 ar   
    10    4   35 1    
    11    5    6 ar   
    12    5   29 1    
    13    6    7 ar   
    14    6    8 1    
    15    7   36 1    
    16    8   13 am   BACKBONE|DICT|INTERRES
    17    8    9 1    
    18    9   10 1    
    19    9   37 1    
    20    9   38 1    
    21   10   11 1    
    22   10   12 1    
    23   10   15 1    
    24   12   13 1    
    25   12   39 1    
    26   12   40 1    
    27   13   14 2    
    28   15   16 2    
    29   15   17 am   BACKBONE|DICT|INTERRES
    30   17   18 1    
    31   17   41 1    
    32   18   23 ar   
    33   18   19 ar   
    34   19   20 ar   
    35   19   42 1    
    36   20   21 ar   
    37   20   43 1    
    38   21   28 1    
    39   21   22 ar   
    40   22   23 ar   
    41   22   24 1    
    42   23   44 1    
    43   24   25 1    
    44   25   26 1    
    45   25   45 1    
    46   25   46 1    
    47   26   27 2    
    48   26   28 am   BACKBONE|DICT|INTERRES
    49   28   47 1    
    50   29   30 1    
    51   30   48 1    
    52   30   49 1    
    53   30   50 1    
@<TRIPOS>SUBSTRUCTURE
     1 UNK         1 GROUP             0       ****    0 ROOT    
