@<TRIPOS>MOLECULE
ZINC09013063_3101
67   69    1
SMALL
USER_CHARGES


@<TRIPOS>ATOM
      1 C1         -0.1100   49.1795   20.3775 C.3       1 UNK         0.0000 
      2 C2          0.8637   50.2870   20.7341 C.ar      1 UNK         0.0000 
      3 C3          2.1224   50.3252   20.1319 C.ar      1 UNK         0.0000 
      4 C4          3.0291   51.3208   20.4817 C.ar      1 UNK         0.0000 
      5 C5          2.6799   52.2775   21.4456 C.ar      1 UNK         0.0000 
      6 C6          1.4102   52.2533   22.0243 C.ar      1 UNK         0.0000 
      7 C7          0.5072   51.2511   21.6790 C.ar      1 UNK         0.0000 
      8 N8          3.5577   53.2897   21.8672 N.am      1 UNK         0.0000 
      9 C9          4.8842   53.1532   22.0817 C.2       1 UNK         0.0000 
     10 O10         5.5042   52.1114   21.8772 O.2       1 UNK         0.0000 
     11 C11         5.6174   54.3317   22.7341 C.3       1 UNK         0.0000 
     12 N12         5.1227   54.4690   24.1077 N.am      1 UNK         0.0000 
     13 C13         5.8784   54.5196   25.2198 C.2       1 UNK         0.0000 
     14 O14         7.1044   54.4982   25.1881 O.2       1 UNK         0.0000 
     15 C15         5.1694   54.5989   26.5914 C.3       1 UNK         0.0000 
     16 C16         3.6361   54.7714   26.4999 C.3       1 UNK         0.0000 
     17 C17         3.0167   54.8748   27.9098 C.3       1 UNK         0.0000 
     18 N18         3.4074   53.6565   28.6334 N.am      1 UNK         0.0000 
     19 C19         4.8560   53.5662   28.9127 C.3       1 UNK         0.0000 
     20 C20         5.5974   53.4626   27.5525 C.3       1 UNK         0.0000 
     21 C21         2.5624   52.6385   28.9541 C.2       1 UNK         0.0000 
     22 O22         2.9458   51.6967   29.6546 O.2       1 UNK         0.0000 
     23 C23         1.0971   52.6251   28.4211 C.3       1 UNK         0.0000 
     24 H24         0.9404   53.3756   27.6497 H         1 UNK         0.0000 
     25 C25         0.1286   52.8577   29.5775 C.3       1 UNK         0.0000 
     26 N26         0.8626   51.3013   27.7878 N.pl3     1 UNK         0.0000 
     27 S27         0.3044   51.1828   26.1204 S.o2      1 UNK         0.0000 
     28 O28         1.0398   52.1817   25.3346 O.2       1 UNK         0.0000 
     29 O29         0.3245   49.7667   25.7462 O.2       1 UNK         0.0000 
     30 C30        -1.4170   51.6670   26.1215 C.ar      1 UNK         0.0000 
     31 C31        -1.9053   52.4966   25.1110 C.ar      1 UNK         0.0000 
     32 C32        -3.2518   52.8514   25.0955 C.ar      1 UNK         0.0000 
     33 C33        -4.1109   52.3631   26.0818 C.ar      1 UNK         0.0000 
     34 C34        -3.6228   51.5220   27.0839 C.ar      1 UNK         0.0000 
     35 C35        -2.2759   51.1708   27.1030 C.ar      1 UNK         0.0000 
     36 C36        -5.5772   52.7548   26.0737 C.3       1 UNK         0.0000 
     37 H37        -0.7511   48.9341   21.2248 H         1 UNK         0.0000 
     38 H38         0.4218   48.2645   20.1130 H         1 UNK         0.0000 
     39 H39        -0.7359   49.4762   19.5360 H         1 UNK         0.0000 
     40 H40         2.4070   49.5885   19.3937 H         1 UNK         0.0000 
     41 H41         3.9949   51.3377   19.9971 H         1 UNK         0.0000 
     42 H42         1.1277   52.9883   22.7636 H         1 UNK         0.0000 
     43 H43        -0.4633   51.2206   22.1523 H         1 UNK         0.0000 
     44 H44         3.1233   54.1628   22.1204 H         1 UNK         0.0000 
     45 H45         6.6920   54.1404   22.7181 H         1 UNK         0.0000 
     46 H46         5.4595   55.2400   22.1529 H         1 UNK         0.0000 
     47 H47         4.1210   54.4548   24.2210 H         1 UNK         0.0000 
     48 H48         5.6047   55.5040   27.0162 H         1 UNK         0.0000 
     49 H49         3.4326   55.6968   25.9740 H         1 UNK         0.0000 
     50 H50         3.1548   53.9231   26.0069 H         1 UNK         0.0000 
     51 H51         3.4749   55.6966   28.4596 H         1 UNK         0.0000 
     52 H52         1.9577   55.1252   27.9554 H         1 UNK         0.0000 
     53 H53         5.1467   54.4848   29.4253 H         1 UNK         0.0000 
     54 H54         5.1042   52.7593   29.6036 H         1 UNK         0.0000 
     55 H55         5.3178   52.4966   27.1384 H         1 UNK         0.0000 
     56 H56         6.6664   53.4933   27.7694 H         1 UNK         0.0000 
     57 H57         0.2786   53.8487   30.0085 H         1 UNK         0.0000 
     58 H58        -0.8957   52.7970   29.2129 H         1 UNK         0.0000 
     59 H59         0.2559   52.1071   30.3607 H         1 UNK         0.0000 
     60 H60         0.5862   50.5342   28.4075 H         1 UNK         0.0000 
     61 H61        -1.2455   52.8685   24.3403 H         1 UNK         0.0000 
     62 H62        -3.6247   53.4993   24.3155 H         1 UNK         0.0000 
     63 H63        -4.2824   51.1307   27.8450 H         1 UNK         0.0000 
     64 H64        -1.9083   50.5029   27.8703 H         1 UNK         0.0000 
     65 H65        -5.7428   53.6827   25.5240 H         1 UNK         0.0000 
     66 H66        -6.1805   51.9635   25.6272 H         1 UNK         0.0000 
     67 H67        -5.9338   52.9225   27.0909 H         1 UNK         0.0000 
@<TRIPOS>BOND
     1    1    2 1    
     2    1   37 1    
     3    1   38 1    
     4    1   39 1    
     5    2    7 ar   
     6    2    3 ar   
     7    3    4 ar   
     8    3   40 1    
     9    4    5 ar   
    10    4   41 1    
    11    5    6 ar   
    12    5    8 1    
    13    6    7 ar   
    14    6   42 1    
    15    7   43 1    
    16    8    9 am   BACKBONE|DICT|INTERRES
    17    8   44 1    
    18    9   10 2    
    19    9   11 1    
    20   11   12 1    
    21   11   45 1    
    22   11   46 1    
    23   12   13 am   BACKBONE|DICT|INTERRES
    24   12   47 1    
    25   13   14 2    
    26   13   15 1    
    27   15   20 1    
    28   15   16 1    
    29   15   48 1    
    30   16   17 1    
    31   16   49 1    
    32   16   50 1    
    33   17   18 1    
    34   17   51 1    
    35   17   52 1    
    36   18   19 1    
    37   18   21 am   BACKBONE|DICT|INTERRES
    38   19   20 1    
    39   19   53 1    
    40   19   54 1    
    41   20   55 1    
    42   20   56 1    
    43   21   22 2    
    44   21   23 1    
    45   23   24 1    
    46   23   25 1    
    47   23   26 1    
    48   25   57 1    
    49   25   58 1    
    50   25   59 1    
    51   26   27 1    
    52   26   60 1    
    53   27   28 2    
    54   27   29 2    
    55   27   30 1    
    56   30   35 ar   
    57   30   31 ar   
    58   31   32 ar   
    59   31   61 1    
    60   32   33 ar   
    61   32   62 1    
    62   33   34 ar   
    63   33   36 1    
    64   34   35 ar   
    65   34   63 1    
    66   35   64 1    
    67   36   65 1    
    68   36   66 1    
    69   36   67 1    
@<TRIPOS>SUBSTRUCTURE
     1 UNK         1 GROUP             0       ****    0 ROOT    
