ZINC02645362_2996
                    3D
 Schrodinger Suite 2024-2.
 52 53  0  0  1  0            999 V2000
    2.0576   49.1741   20.4344 C   0  0  0  0  0  0
    1.2946   50.2716   21.1908 C   0  0  0  0  0  0
    2.2005   51.3301   21.8487 C   0  0  0  0  0  0
    2.9205   52.2604   20.8471 C   0  0  0  0  0  0
    3.6036   53.3802   21.4938 N   0  0  0  0  0  0
    4.8085   53.3071   22.0805 C   0  0  0  0  0  0
    5.5042   52.2981   22.0817 O   0  0  0  0  0  0
    5.1816   54.4966   22.7317 N   0  0  0  0  0  0
    6.3409   54.6743   24.0543 S   0  0  0  0  0  0
    7.3885   53.6639   23.9039 O   0  0  0  0  0  0
    6.7041   56.0904   24.1629 O   0  0  0  0  0  0
    5.4474   54.2964   25.5628 C   0  0  0  0  0  0
    4.0898   54.5952   25.6859 C   0  0  0  0  0  0
    3.4128   54.2786   26.8627 C   0  0  0  0  0  0
    4.0804   53.6274   27.9057 C   0  0  0  0  0  0
    5.4445   53.3787   27.7898 C   0  0  0  0  0  0
    6.1282   53.7116   26.6289 C   0  0  0  0  0  0
    3.4408   53.1277   29.0508 N   0  0  0  0  0  0
    1.7479   53.3991   29.5092 S   0  0  0  0  0  0
    1.6317   52.8966   30.8808 O   0  0  0  0  0  0
    1.4156   54.7926   29.1937 O   0  0  0  0  0  0
    0.7004   52.3515   28.4980 C   0  0  0  0  0  0
    1.1055   51.9002   27.2434 C   0  0  0  0  0  0
    0.2341   51.1836   26.4270 C   0  0  0  0  0  0
   -1.0716   50.9016   26.8568 C   0  0  0  0  0  0
   -1.4601   51.3152   28.1380 C   0  0  0  0  0  0
   -0.5750   52.0277   28.9555 C   0  0  0  0  0  0
   -3.2017   50.9079   28.7988 Br  0  0  0  0  0  0
   -2.0042   50.2355   26.0820 O   0  0  0  0  0  0
   -1.6160   49.7087   24.8160 C   0  0  0  0  0  0
    1.3647   48.4641   19.9791 H   0  0  0  0  0  0
    2.7040   48.6118   21.1108 H   0  0  0  0  0  0
    2.6786   49.5834   19.6338 H   0  0  0  0  0  0
    0.5901   50.7582   20.5131 H   0  0  0  0  0  0
    0.6856   49.8014   21.9657 H   0  0  0  0  0  0
    1.5879   51.9355   22.5200 H   0  0  0  0  0  0
    2.9357   50.8282   22.4816 H   0  0  0  0  0  0
    3.6013   51.6935   20.2055 H   0  0  0  0  0  0
    2.1878   52.6798   20.1539 H   0  0  0  0  0  0
    3.0977   54.2527   21.5066 H   0  0  0  0  0  0
    4.6947   55.3594   22.4912 H   0  0  0  0  0  0
    3.5493   55.0413   24.8681 H   0  0  0  0  0  0
    2.3588   54.4967   26.9291 H   0  0  0  0  0  0
    5.9809   52.8969   28.5881 H   0  0  0  0  0  0
    7.1758   53.4768   26.5524 H   0  0  0  0  0  0
    3.9651   52.4963   29.6348 H   0  0  0  0  0  0
    2.0942   52.1014   26.8777 H   0  0  0  0  0  0
    0.5861   50.8677   25.4561 H   0  0  0  0  0  0
   -0.8940   52.3411   29.9399 H   0  0  0  0  0  0
   -2.4577   49.1747   24.3744 H   0  0  0  0  0  0
   -1.3300   50.5041   24.1251 H   0  0  0  0  0  0
   -0.7943   48.9963   24.9091 H   0  0  0  0  0  0
  1  2  1  0  0  0
  1 31  1  0  0  0
  1 32  1  0  0  0
  1 33  1  0  0  0
  2  3  1  0  0  0
  2 34  1  0  0  0
  2 35  1  0  0  0
  3  4  1  0  0  0
  3 36  1  0  0  0
  3 37  1  0  0  0
  4  5  1  0  0  0
  4 38  1  0  0  0
  4 39  1  0  0  0
  5  6  1  0  0  0
  5 40  1  0  0  0
  6  7  2  0  0  0
  6  8  1  0  0  0
  8  9  1  0  0  0
  8 41  1  0  0  0
  9 10  2  0  0  0
  9 11  2  0  0  0
  9 12  1  0  0  0
 12 17  2  0  0  0
 12 13  1  0  0  0
 13 14  2  0  0  0
 13 42  1  0  0  0
 14 15  1  0  0  0
 14 43  1  0  0  0
 15 16  2  0  0  0
 15 18  1  0  0  0
 16 17  1  0  0  0
 16 44  1  0  0  0
 17 45  1  0  0  0
 18 19  1  0  0  0
 18 46  1  0  0  0
 19 20  2  0  0  0
 19 21  2  0  0  0
 19 22  1  0  0  0
 22 27  2  0  0  0
 22 23  1  0  0  0
 23 24  2  0  0  0
 23 47  1  0  0  0
 24 25  1  0  0  0
 24 48  1  0  0  0
 25 26  2  0  0  0
 25 29  1  0  0  0
 26 27  1  0  0  0
 26 28  1  0  0  0
 27 49  1  0  0  0
 29 30  1  0  0  0
 30 50  1  0  0  0
 30 51  1  0  0  0
 30 52  1  0  0  0
M  END
> <i_i_glide_confnum>
277

> <i_i_glide_lignum>
2997

> <i_i_glide_posenum>
287

> <i_i_glide_rotatable_bonds>
11

> <i_m_Source_File_Index>
801

> <b_m_subgroup_collapsed>
0

> <r_i_docking_score>
-3.62441

> <r_i_glide_ecoul>
-2.58526

> <r_i_glide_eff_state_penalty>
0

> <r_i_glide_einternal>
6.4368

> <r_i_glide_emodel>
-51.042

> <r_i_glide_energy>
-46.6084

> <r_i_glide_erotb>
0.682919

> <r_i_glide_esite>
-0.0560835

> <r_i_glide_evdw>
-44.0232

> <r_i_glide_gscore>
-3.62441

> <r_i_glide_hbond>
-0.0164315

> <r_i_glide_ligand_efficiency>
-0.120814

> <r_i_glide_ligand_efficiency_ln>
-0.823505

> <r_i_glide_ligand_efficiency_sa>
-0.375396

> <r_i_glide_lipo>
-1.88078

> <r_i_glide_metal>
0

> <r_i_glide_rewards>
0.234916

> <s_i_glide_gridfile>
wee1_glide-grid

> <s_m_Source_File>
wee1_decoys_glide_SP.sdf

> <s_m_Source_Path>
/Users/zhangxujun/Desktop

> <s_m_entry_id>
1076

> <s_m_entry_name>
wee1_decoys_glide_SP.801

> <s_m_subgroup_title>
wee1_decoys_glide_SP

> <s_m_subgroupid>
wee1_decoys_glide_SP


$$$$
