@<TRIPOS>MOLECULE
ZINC36311047_2197
64   67    1
SMALL
USER_CHARGES


@<TRIPOS>ATOM
      1 C1          6.7067   55.4142   25.7635 C.3       1 UNK         0.0000 
      2 C2          5.3525   54.7717   25.5366 C.ar      1 UNK         0.0000 
      3 C3          4.9291   54.4967   24.2364 C.ar      1 UNK         0.0000 
      4 C4          3.7188   53.8484   24.0192 C.ar      1 UNK         0.0000 
      5 C5          2.9462   53.4307   25.1137 C.ar      1 UNK         0.0000 
      6 C6          3.3559   53.7378   26.4132 C.ar      1 UNK         0.0000 
      7 C7          4.5560   54.4117   26.6241 C.ar      1 UNK         0.0000 
      8 N8          1.8624   52.5476   24.9872 N.am      1 UNK         0.0000 
      9 C9          1.1456   52.2438   23.8895 C.2       1 UNK         0.0000 
     10 O10         1.0639   52.9817   22.9042 O.2       1 UNK         0.0000 
     11 C11         0.4092   50.8714   23.9153 C.3       1 UNK         0.0000 
     12 H12         1.1028   50.0862   24.2280 H         1 UNK         0.0000 
     13 C13        -0.8200   50.8227   24.8927 C.3       1 UNK         0.0000 
     14 C14        -0.4379   50.8189   26.3966 C.3       1 UNK         0.0000 
     15 C15        -1.1016   52.0441   27.0182 C.3       1 UNK         0.0000 
     16 C16        -2.3484   52.2553   26.1589 C.3       1 UNK         0.0000 
     17 C17        -1.8776   51.9463   24.7343 C.3       1 UNK         0.0000 
     18 N18         0.0487   50.4835   22.4354 N.4       1 UNK         0.0000 
     19 C19         1.3190   50.0077   21.6720 C.3       1 UNK         0.0000 
     20 C20         1.0025   49.7826   20.1757 C.3       1 UNK         0.0000 
     21 N21        -0.0996   48.8013   20.0776 N.am      1 UNK         0.0000 
     22 C22        -1.3433   49.1717   20.7793 C.3       1 UNK         0.0000 
     23 C23        -1.0336   49.3872   22.2750 C.3       1 UNK         0.0000 
     24 C24         0.0330   47.5594   19.5385 C.2       1 UNK         0.0000 
     25 O25        -0.6655   46.6134   19.9097 O.2       1 UNK         0.0000 
     26 N26         0.9157   47.4787   18.5149 N.am      1 UNK         0.0000 
     27 C27         1.1083   46.4352   17.5878 C.ar      1 UNK         0.0000 
     28 C28         2.2755   46.4985   16.8206 C.ar      1 UNK         0.0000 
     29 C29         2.5437   45.5244   15.8643 C.ar      1 UNK         0.0000 
     30 C30         1.6440   44.4803   15.6715 C.ar      1 UNK         0.0000 
     31 C31         0.4744   44.4080   16.4216 C.ar      1 UNK         0.0000 
     32 C32         0.2002   45.3840   17.3762 C.ar      1 UNK         0.0000 
     33 F33         1.9039   43.5307   14.7461 F         1 UNK         0.0000 
     34 H34         7.1032   55.1678   26.7507 H         1 UNK         0.0000 
     35 H35         6.6400   56.4966   25.6626 H         1 UNK         0.0000 
     36 H36         7.4277   55.0472   25.0304 H         1 UNK         0.0000 
     37 H37         5.5442   54.7710   23.3907 H         1 UNK         0.0000 
     38 H38         3.4437   53.6093   23.0028 H         1 UNK         0.0000 
     39 H39         2.7790   53.4124   27.2671 H         1 UNK         0.0000 
     40 H40         4.8828   54.6168   27.6333 H         1 UNK         0.0000 
     41 H41         1.6551   52.0193   25.8204 H         1 UNK         0.0000 
     42 H42        -1.3304   49.8650   24.7877 H         1 UNK         0.0000 
     43 H43        -0.8820   49.9466   26.8798 H         1 UNK         0.0000 
     44 H44         0.6296   50.7385   26.6003 H         1 UNK         0.0000 
     45 H45        -1.3412   51.8928   28.0719 H         1 UNK         0.0000 
     46 H46        -0.4317   52.8983   26.9483 H         1 UNK         0.0000 
     47 H47        -3.1307   51.5557   26.4582 H         1 UNK         0.0000 
     48 H48        -2.7544   53.2629   26.2576 H         1 UNK         0.0000 
     49 H49        -1.4375   52.8714   24.3611 H         1 UNK         0.0000 
     50 H50        -2.7075   51.6680   24.0849 H         1 UNK         0.0000 
     51 H51         2.0571   50.8070   21.7435 H         1 UNK         0.0000 
     52 H52         1.7243   49.1186   22.1634 H         1 UNK         0.0000 
     53 H53         0.7060   50.7235   19.7085 H         1 UNK         0.0000 
     54 H54         1.9112   49.4538   19.6662 H         1 UNK         0.0000 
     55 H55        -2.1236   48.4167   20.6599 H         1 UNK         0.0000 
     56 H56        -1.7425   50.0886   20.3440 H         1 UNK         0.0000 
     57 H57        -0.7152   48.4817   22.7974 H         1 UNK         0.0000 
     58 H58        -1.9452   49.7738   22.7296 H         1 UNK         0.0000 
     59 H59         1.4925   48.2893   18.3493 H         1 UNK         0.0000 
     60 H60         2.9911   47.2966   16.9612 H         1 UNK         0.0000 
     61 H61         3.4516   45.5792   15.2829 H         1 UNK         0.0000 
     62 H62        -0.2212   43.6000   16.2538 H         1 UNK         0.0000 
     63 H63        -0.7273   45.3113   17.9217 H         1 UNK         0.0000 
     64 H64        -0.2878   51.3312   21.9958 H         1 UNK         0.0000 
@<TRIPOS>BOND
     1    1    2 1    
     2    1   34 1    
     3    1   35 1    
     4    1   36 1    
     5    2    7 ar   
     6    2    3 ar   
     7    3    4 ar   
     8    3   37 1    
     9    4    5 ar   
    10    4   38 1    
    11    5    6 ar   
    12    5    8 1    
    13    6    7 ar   
    14    6   39 1    
    15    7   40 1    
    16    8    9 am   BACKBONE|DICT|INTERRES
    17    8   41 1    
    18    9   10 2    
    19    9   11 1    
    20   11   12 1    
    21   11   13 1    
    22   11   18 1    
    23   13   17 1    
    24   13   14 1    
    25   13   42 1    
    26   14   15 1    
    27   14   43 1    
    28   14   44 1    
    29   15   16 1    
    30   15   45 1    
    31   15   46 1    
    32   16   17 1    
    33   16   47 1    
    34   16   48 1    
    35   17   49 1    
    36   17   50 1    
    37   18   23 1    
    38   18   19 1    
    39   18   64 1    
    40   19   20 1    
    41   19   51 1    
    42   19   52 1    
    43   20   21 1    
    44   20   53 1    
    45   20   54 1    
    46   21   22 1    
    47   21   24 am   BACKBONE|DICT|INTERRES
    48   22   23 1    
    49   22   55 1    
    50   22   56 1    
    51   23   57 1    
    52   23   58 1    
    53   24   25 2    
    54   24   26 am   BACKBONE|DICT|INTERRES
    55   26   27 1    
    56   26   59 1    
    57   27   32 ar   
    58   27   28 ar   
    59   28   29 ar   
    60   28   60 1    
    61   29   30 ar   
    62   29   61 1    
    63   30   31 ar   
    64   30   33 1    
    65   31   32 ar   
    66   31   62 1    
    67   32   63 1    
@<TRIPOS>SUBSTRUCTURE
     1 UNK         1 GROUP             0       ****    0 ROOT    
