@<TRIPOS>MOLECULE
ZINC14037595_4424
34   35    1
SMALL
USER_CHARGES


@<TRIPOS>ATOM
      1 C1          6.6476   54.3891   27.0869 C.ar      1 UNK         0.0000 
      2 C2          6.2013   54.6192   25.7887 C.ar      1 UNK         0.0000 
      3 C3          4.8476   54.4792   25.4912 C.ar      1 UNK         0.0000 
      4 C4          3.9421   54.0969   26.4825 C.ar      1 UNK         0.0000 
      5 C5          4.3793   53.8502   27.7984 C.ar      1 UNK         0.0000 
      6 C6          5.7456   54.0146   28.0809 C.ar      1 UNK         0.0000 
      7 C7          3.4318   53.4535   28.9149 C.2       1 UNK         0.0000 
      8 O8          3.7442   53.6996   30.0818 O.2       1 UNK         0.0000 
      9 N9          2.2962   52.8058   28.5418 N.am      1 UNK         0.0000 
     10 C10         1.1364   52.4932   29.2214 C.2       1 UNK         0.0000 
     11 S11         0.7045   52.9385   30.7711 S.2       1 UNK         0.0000 
     12 N12         0.2052   51.7447   28.5622 N.pl3     1 UNK         0.0000 
     13 N13         0.4416   51.1973   27.3041 N.am      1 UNK         0.0000 
     14 C14        -0.3517   51.5938   26.2901 C.2       1 UNK         0.0000 
     15 O15        -1.1933   52.4958   26.3445 O.2       1 UNK         0.0000 
     16 C16        -0.1281   50.8216   25.0212 C.ar      1 UNK         0.0000 
     17 C17        -0.3310   49.4325   25.0292 C.ar      1 UNK         0.0000 
     18 C18        -0.1020   48.6772   23.8816 C.ar      1 UNK         0.0000 
     19 C19         0.3363   49.2973   22.7142 C.ar      1 UNK         0.0000 
     20 C20         0.5508   50.6735   22.6966 C.ar      1 UNK         0.0000 
     21 C21         0.3252   51.4425   23.8400 C.ar      1 UNK         0.0000 
     22 I22         0.7049   53.5029   23.6859 I         1 UNK         0.0000 
     23 F23         2.6379   53.9898   26.1452 F         1 UNK         0.0000 
     24 H24         7.6919   54.5008   27.3350 H         1 UNK         0.0000 
     25 H25         6.8993   54.9061   25.0153 H         1 UNK         0.0000 
     26 H26         4.4938   54.6632   24.4873 H         1 UNK         0.0000 
     27 H27         6.1297   53.8566   29.0777 H         1 UNK         0.0000 
     28 H28         2.2470   52.6402   27.5475 H         1 UNK         0.0000 
     29 H29        -0.3974   51.1394   29.1053 H         1 UNK         0.0000 
     30 H30         0.7457   50.2363   27.3675 H         1 UNK         0.0000 
     31 H31        -0.6700   48.9246   25.9250 H         1 UNK         0.0000 
     32 H32        -0.2638   47.6104   23.9022 H         1 UNK         0.0000 
     33 H33         0.5151   48.7156   21.8224 H         1 UNK         0.0000 
     34 H34         0.8985   51.1465   21.7893 H         1 UNK         0.0000 
@<TRIPOS>BOND
     1    1    6 ar   
     2    1    2 ar   
     3    1   24 1    
     4    2    3 ar   
     5    2   25 1    
     6    3    4 ar   
     7    3   26 1    
     8    4    5 ar   
     9    4   23 1    
    10    5    6 ar   
    11    5    7 1    
    12    6   27 1    
    13    7    8 2    
    14    7    9 am   BACKBONE|DICT|INTERRES
    15    9   10 am   BACKBONE|DICT|INTERRES
    16    9   28 1    
    17   10   11 2    
    18   10   12 1    
    19   12   13 1    
    20   12   29 1    
    21   13   14 am   BACKBONE|DICT|INTERRES
    22   13   30 1    
    23   14   15 2    
    24   14   16 1    
    25   16   21 ar   
    26   16   17 ar   
    27   17   18 ar   
    28   17   31 1    
    29   18   19 ar   
    30   18   32 1    
    31   19   20 ar   
    32   19   33 1    
    33   20   21 ar   
    34   20   34 1    
    35   21   22 1    
@<TRIPOS>SUBSTRUCTURE
     1 UNK         1 GROUP             0       ****    0 ROOT    
