@<TRIPOS>MOLECULE
ZINC26641855_4054
56   60    1
SMALL
USER_CHARGES


@<TRIPOS>ATOM
      1 C1          5.1122   53.6970   27.4823 C.3       1 UNK         0.0000 
      2 C2          3.7992   53.6150   26.7231 C.ar      1 UNK         0.0000 
      3 C3          2.5722   53.1877   27.1976 C.ar      1 UNK         0.0000 
      4 C4          1.6512   53.1162   26.1577 C.ar      1 UNK         0.0000 
      5 C5          2.2903   53.6965   25.0612 C.ar      1 UNK         0.0000 
      6 N6          3.6405   53.8783   25.3649 N.pl3     1 UNK         0.0000 
      7 C7          4.6643   54.2352   24.4378 C.ar      1 UNK         0.0000 
      8 C8          4.6346   53.6971   23.1416 C.ar      1 UNK         0.0000 
      9 C9          5.5988   54.0480   22.2079 C.ar      1 UNK         0.0000 
     10 C10         6.6372   54.8987   22.5734 C.ar      1 UNK         0.0000 
     11 C11         6.7042   55.4105   23.8671 C.ar      1 UNK         0.0000 
     12 C12         5.7149   55.0943   24.7954 C.ar      1 UNK         0.0000 
     13 Br13        7.9438   55.3904   21.2819 Br        1 UNK         0.0000 
     14 C14         1.6750   54.0873   23.7205 C.3       1 UNK         0.0000 
     15 C15         0.2799   52.6327   26.2573 C.2       1 UNK         0.0000 
     16 C16        -0.4407   51.7451   25.5027 C.2       1 UNK         0.0000 
     17 C17         0.1517   50.9756   24.3828 C.2       1 UNK         0.0000 
     18 N18         1.3753   50.8852   24.0817 N.2       1 UNK         0.0000 
     19 N19        -0.8130   50.2670   23.5941 N.pl3     1 UNK         0.0000 
     20 C20        -2.1744   50.2760   23.9361 C.2       1 UNK         0.0000 
     21 N21        -2.6881   50.8762   24.9351 N.am      1 UNK         0.0000 
     22 C22        -1.8873   51.5871   25.8457 C.2       1 UNK         0.0000 
     23 O23        -2.3179   52.0947   26.8822 O.2       1 UNK         0.0000 
     24 S24        -3.0497   49.3169   22.7314 S.3       1 UNK         0.0000 
     25 C25        -1.4734   48.9942   21.9022 C.2       1 UNK         0.0000 
     26 N26        -0.4590   49.5244   22.4589 N.2       1 UNK         0.0000 
     27 C27        -1.3776   48.1172   20.6318 C.3       1 UNK         0.0000 
     28 C28        -2.5122   48.3677   19.6042 C.3       1 UNK         0.0000 
     29 C29        -2.4319   49.7883   18.9981 C.3       1 UNK         0.0000 
     30 C30        -1.0599   50.0155   18.3160 C.3       1 UNK         0.0000 
     31 C31         0.1428   49.6441   19.2186 C.3       1 UNK         0.0000 
     32 C32        -0.0444   48.2375   19.8390 C.3       1 UNK         0.0000 
     33 H33         5.0783   53.1120   28.4011 H         1 UNK         0.0000 
     34 H34         5.9481   53.2959   26.9089 H         1 UNK         0.0000 
     35 H35         5.3597   54.7167   27.7758 H         1 UNK         0.0000 
     36 H36         2.3808   52.8764   28.2141 H         1 UNK         0.0000 
     37 H37         3.8703   52.9970   22.8379 H         1 UNK         0.0000 
     38 H38         5.5477   53.6500   21.2046 H         1 UNK         0.0000 
     39 H39         7.5047   56.0872   24.1290 H         1 UNK         0.0000 
     40 H40         5.7617   55.5501   25.7714 H         1 UNK         0.0000 
     41 H41         0.6485   54.4271   23.8440 H         1 UNK         0.0000 
     42 H42         2.2075   54.8971   23.2307 H         1 UNK         0.0000 
     43 H43         1.6432   53.2655   23.0073 H         1 UNK         0.0000 
     44 H44        -0.1935   53.1114   27.1046 H         1 UNK         0.0000 
     45 H45         1.4735   50.2821   23.2763 H         1 UNK         0.0000 
     46 H46        -1.4578   47.0866   20.9803 H         1 UNK         0.0000 
     47 H47        -2.5593   47.5692   18.8628 H         1 UNK         0.0000 
     48 H48        -3.4764   48.2983   20.1084 H         1 UNK         0.0000 
     49 H49        -3.2338   49.9287   18.2727 H         1 UNK         0.0000 
     50 H50        -2.5894   50.5415   19.7711 H         1 UNK         0.0000 
     51 H51        -1.0170   49.4151   17.4052 H         1 UNK         0.0000 
     52 H52        -0.9724   51.0526   17.9921 H         1 UNK         0.0000 
     53 H53         1.0646   49.6738   18.6350 H         1 UNK         0.0000 
     54 H54         0.2645   50.3982   19.9973 H         1 UNK         0.0000 
     55 H55         0.7928   48.0877   20.5236 H         1 UNK         0.0000 
     56 H56         0.0678   47.4203   19.1255 H         1 UNK         0.0000 
@<TRIPOS>BOND
     1    1    2 1    
     2    1   33 1    
     3    1   34 1    
     4    1   35 1    
     5    2    6 ar   
     6    2    3 ar   
     7    3    4 ar   
     8    3   36 1    
     9    4    5 ar   
    10    4   15 1    
    11    5    6 ar   
    12    5   14 1    
    13    6    7 1    
    14    7   12 ar   
    15    7    8 ar   
    16    8    9 ar   
    17    8   37 1    
    18    9   10 ar   
    19    9   38 1    
    20   10   11 ar   
    21   10   13 1    
    22   11   12 ar   
    23   11   39 1    
    24   12   40 1    
    25   14   41 1    
    26   14   42 1    
    27   14   43 1    
    28   15   16 2    
    29   15   44 1    
    30   16   22 1    
    31   16   17 1    
    32   17   18 2    
    33   17   19 1    
    34   18   45 1    
    35   19   26 1    
    36   19   20 1    
    37   20   21 2    BACKBONE|DICT|INTERRES
    38   20   24 1    
    39   21   22 am   BACKBONE|DICT|INTERRES
    40   22   23 2    
    41   24   25 1    
    42   25   26 2    
    43   25   27 1    
    44   27   32 1    
    45   27   28 1    
    46   27   46 1    
    47   28   29 1    
    48   28   47 1    
    49   28   48 1    
    50   29   30 1    
    51   29   49 1    
    52   29   50 1    
    53   30   31 1    
    54   30   51 1    
    55   30   52 1    
    56   31   32 1    
    57   31   53 1    
    58   31   54 1    
    59   32   55 1    
    60   32   56 1    
@<TRIPOS>SUBSTRUCTURE
     1 UNK         1 GROUP             0       ****    0 ROOT    
