ZINC20720297_3927
                    3D
 Schrodinger Suite 2024-2.
 60 65  0  0  1  0            999 V2000
   -0.4594   52.1781   29.6783 C   0  0  0  0  0  0
    0.8359   51.7919   28.9461 C   0  0  2  0  0  0
    1.1977   50.8976   29.4493 H   0  0  0  0  0  0
    1.9730   52.8150   29.0876 C   0  0  0  0  0  0
    3.2892   52.3517   29.1370 C   0  0  0  0  0  0
    4.3455   53.2462   29.2360 C   0  0  0  0  0  0
    4.0885   54.6104   29.3025 C   0  0  0  0  0  0
    2.7812   55.0898   29.2820 C   0  0  0  0  0  0
    1.7224   54.1920   29.1833 C   0  0  0  0  0  0
    0.5481   51.3196   27.5863 N   0  0  0  0  0  0
    0.5936   52.0011   26.4224 C   0  0  0  0  0  0
    1.1043   53.1159   26.3253 O   0  0  0  0  0  0
    0.0010   51.2919   25.2112 C   0  0  0  0  0  0
   -0.9607   50.2862   25.4182 C   0  0  0  0  0  0
   -1.5140   49.5882   24.3564 C   0  0  0  0  0  0
   -1.1077   49.8691   23.0616 C   0  0  0  0  0  0
   -0.1454   50.8482   22.7918 C   0  0  0  0  0  0
    0.3808   51.5940   23.8734 C   0  0  0  0  0  0
    1.3696   52.5660   23.5961 N   0  0  0  0  0  0
    2.3042   52.2607   22.5153 C   0  0  1  0  0  0
    2.7116   51.2871   22.7895 H   0  0  0  0  0  0
    1.5214   52.0255   21.1903 C   0  0  2  0  0  0
    1.1736   53.0003   20.8453 H   0  0  0  0  0  0
    0.2787   51.1169   21.3421 C   0  0  1  0  0  0
   -0.5781   51.5940   20.8644 H   0  0  0  0  0  0
    0.6380   49.8696   20.5528 C   0  0  0  0  0  0
    1.7665   50.0259   19.8477 C   0  0  0  0  0  0
    2.3786   51.3838   20.0771 C   0  0  0  0  0  0
    3.4887   53.2433   22.4295 C   0  0  0  0  0  0
    4.1125   53.7228   21.2844 C   0  0  0  0  0  0
    5.2459   54.4255   21.5913 N   0  0  0  0  0  0
    5.8545   54.8159   20.8867 H   0  0  0  0  0  0
    5.3872   54.4958   22.9548 C   0  0  0  0  0  0
    4.2524   53.8279   23.5177 C   0  0  0  0  0  0
    4.1299   53.8286   24.9190 C   0  0  0  0  0  0
    5.0965   54.4604   25.6974 C   0  0  0  0  0  0
    6.1993   55.0735   25.1176 C   0  0  0  0  0  0
    6.3822   55.0956   23.7367 C   0  0  0  0  0  0
   -0.2782   52.3712   30.7365 H   0  0  0  0  0  0
   -0.8955   53.0721   29.2420 H   0  0  0  0  0  0
   -1.2031   51.3812   29.6202 H   0  0  0  0  0  0
    3.4998   51.2973   29.0688 H   0  0  0  0  0  0
    5.3625   52.8846   29.2467 H   0  0  0  0  0  0
    4.9173   55.2989   29.3731 H   0  0  0  0  0  0
    2.5897   56.1520   29.3321 H   0  0  0  0  0  0
    0.7165   54.5795   29.1437 H   0  0  0  0  0  0
    0.0586   50.4361   27.5540 H   0  0  0  0  0  0
   -1.3058   50.0224   26.4099 H   0  0  0  0  0  0
   -2.2544   48.8234   24.5421 H   0  0  0  0  0  0
   -1.5502   49.3093   22.2506 H   0  0  0  0  0  0
    1.7709   53.0646   24.3785 H   0  0  0  0  0  0
    0.0064   48.9941   20.5327 H   0  0  0  0  0  0
    2.2182   49.3034   19.1823 H   0  0  0  0  0  0
    2.3543   51.9695   19.1575 H   0  0  0  0  0  0
    3.4215   51.2520   20.3664 H   0  0  0  0  0  0
    3.8646   53.5762   20.2427 H   0  0  0  0  0  0
    3.3169   53.3180   25.4042 H   0  0  0  0  0  0
    4.9990   54.4561   26.7712 H   0  0  0  0  0  0
    6.9233   55.5485   25.7601 H   0  0  0  0  0  0
    7.2404   55.5839   23.2969 H   0  0  0  0  0  0
  1  2  1  0  0  0
  1 39  1  0  0  0
  1 40  1  0  0  0
  1 41  1  0  0  0
  2  3  1  0  0  0
  2  4  1  0  0  0
  2 10  1  0  0  0
  4  9  2  0  0  0
  4  5  1  0  0  0
  5  6  2  0  0  0
  5 42  1  0  0  0
  6  7  1  0  0  0
  6 43  1  0  0  0
  7  8  2  0  0  0
  7 44  1  0  0  0
  8  9  1  0  0  0
  8 45  1  0  0  0
  9 46  1  0  0  0
 10 11  1  0  0  0
 10 47  1  0  0  0
 11 12  2  0  0  0
 11 13  1  0  0  0
 13 18  2  0  0  0
 13 14  1  0  0  0
 14 15  2  0  0  0
 14 48  1  0  0  0
 15 16  1  0  0  0
 15 49  1  0  0  0
 16 17  2  0  0  0
 16 50  1  0  0  0
 17 24  1  0  0  0
 17 18  1  0  0  0
 18 19  1  0  0  0
 19 20  1  0  0  0
 19 51  1  0  0  0
 20 21  1  0  0  0
 20 22  1  0  0  0
 20 29  1  0  0  0
 22 23  1  0  0  0
 22 28  1  0  0  0
 22 24  1  0  0  0
 24 25  1  0  0  0
 24 26  1  0  0  0
 26 27  2  0  0  0
 26 52  1  0  0  0
 27 28  1  0  0  0
 27 53  1  0  0  0
 28 54  1  0  0  0
 28 55  1  0  0  0
 29 34  1  0  0  0
 29 30  2  0  0  0
 30 31  1  0  0  0
 30 56  1  0  0  0
 31 32  1  0  0  0
 31 33  1  0  0  0
 33 38  2  0  0  0
 33 34  1  0  0  0
 34 35  2  0  0  0
 35 36  1  0  0  0
 35 57  1  0  0  0
 36 37  2  0  0  0
 36 58  1  0  0  0
 37 38  1  0  0  0
 37 59  1  0  0  0
 38 60  1  0  0  0
M  END
> <i_i_glide_confnum>
20

> <i_i_glide_lignum>
3928

> <i_i_glide_posenum>
191

> <i_i_glide_rotatable_bonds>
5

> <i_m_Source_File_Index>
1992

> <b_m_subgroup_collapsed>
0

> <r_i_docking_score>
-5.8871

> <r_i_glide_ecoul>
-2.03123

> <r_i_glide_eff_state_penalty>
0

> <r_i_glide_einternal>
5.4212

> <r_i_glide_emodel>
-61.7995

> <r_i_glide_energy>
-47.052

> <r_i_glide_erotb>
0.423665

> <r_i_glide_esite>
-0.0175062

> <r_i_glide_evdw>
-45.0208

> <r_i_glide_gscore>
-5.8871

> <r_i_glide_hbond>
0

> <r_i_glide_ligand_efficiency>
-0.178397

> <r_i_glide_ligand_efficiency_ln>
-1.30926

> <r_i_glide_ligand_efficiency_sa>
-0.572214

> <r_i_glide_lipo>
-3.20906

> <r_i_glide_metal>
0

> <r_i_glide_rewards>
-0.528479

> <s_i_glide_gridfile>
wee1_glide-grid

> <s_m_Source_File>
wee1_decoys_glide_SP.sdf

> <s_m_Source_Path>
/Users/zhangxujun/Desktop

> <s_m_entry_id>
2267

> <s_m_entry_name>
wee1_decoys_glide_SP.1992

> <s_m_subgroup_title>
wee1_decoys_glide_SP

> <s_m_subgroupid>
wee1_decoys_glide_SP


$$$$
