ZINC11069857_2241
                    3D
 Schrodinger Suite 2024-2.
 56 60  0  0  1  0            999 V2000
    0.6917   53.3522   27.9759 C   0  0  0  0  0  0
    0.4106   51.9167   28.4478 C   0  0  0  0  0  0
   -0.4174   51.1455   27.4028 C   0  0  0  0  0  0
    0.2388   51.2982   26.0431 C   0  0  0  0  0  0
    1.1039   52.3436   25.6808 C   0  0  0  0  0  0
    1.5177   52.2288   24.3330 C   0  0  0  0  0  0
    1.0336   51.0748   23.7341 C   0  0  0  0  0  0
   -0.0232   50.1685   24.7533 S   0  0  0  0  0  0
    1.3444   50.6516   22.4889 N   0  0  0  0  0  0
    2.1547   51.3673   21.7953 C   0  0  0  0  0  0
    2.7472   52.5303   22.3206 N   0  0  0  0  0  0
    2.3878   53.1119   23.5476 C   0  0  0  0  0  0
    2.8230   54.1958   23.9453 O   0  0  0  0  0  0
    3.9968   53.0520   21.6669 C   0  0  0  0  0  0
    3.9499   54.4960   21.1229 C   0  0  0  0  0  0
    5.4085   54.9568   21.1063 C   0  0  0  0  0  0
    5.9905   54.3616   22.3818 C   0  0  0  0  0  0
    5.2790   53.0134   22.5489 C   0  0  0  0  0  0
    2.4525   50.6841   20.1454 S   0  0  0  0  0  0
    1.8465   52.0344   19.0757 C   0  0  0  0  0  0
    0.3158   52.1710   18.9826 C   0  0  0  0  0  0
   -0.4084   51.6723   19.8486 O   0  0  0  0  0  0
   -0.1277   52.8965   17.9294 N   0  0  0  0  0  0
   -1.3951   53.2980   17.6817 C   0  0  0  0  0  0
   -2.3814   53.0567   18.3865 O   0  0  0  0  0  0
   -1.4543   54.0677   16.5830 N   0  0  0  0  0  0
   -2.5246   55.0259   16.3179 C   0  0  0  0  0  0
   -3.0924   55.1010   14.9209 C   0  0  0  0  0  0
   -3.9256   54.5226   16.0424 C   0  0  0  0  0  0
    1.5477   53.4092   26.6865 C   0  0  0  0  0  0
   -0.2658   53.8416   27.8017 H   0  0  0  0  0  0
    1.1802   53.9211   28.7678 H   0  0  0  0  0  0
   -0.1235   51.9296   29.3992 H   0  0  0  0  0  0
    1.3515   51.3962   28.6353 H   0  0  0  0  0  0
   -1.4377   51.5286   27.3732 H   0  0  0  0  0  0
   -0.4928   50.0969   27.6759 H   0  0  0  0  0  0
    4.2733   52.4778   20.7811 H   0  0  0  0  0  0
    3.5046   54.5597   20.1337 H   0  0  0  0  0  0
    3.3582   55.1483   21.7628 H   0  0  0  0  0  0
    5.9220   54.5524   20.2319 H   0  0  0  0  0  0
    5.5055   56.0414   21.0720 H   0  0  0  0  0  0
    7.0766   54.2727   22.3569 H   0  0  0  0  0  0
    5.7517   55.0055   23.2297 H   0  0  0  0  0  0
    5.0834   52.8970   23.6124 H   0  0  0  0  0  0
    5.9057   52.1751   22.2491 H   0  0  0  0  0  0
    2.2617   51.8642   18.0810 H   0  0  0  0  0  0
    2.2362   52.9832   19.4258 H   0  0  0  0  0  0
    0.5796   53.2123   17.2855 H   0  0  0  0  0  0
   -0.6098   54.2057   16.0487 H   0  0  0  0  0  0
   -2.4219   55.9562   16.8795 H   0  0  0  0  0  0
   -2.6983   54.4317   14.1546 H   0  0  0  0  0  0
   -3.3489   56.0816   14.5188 H   0  0  0  0  0  0
   -4.7667   55.0952   16.4349 H   0  0  0  0  0  0
   -4.1109   53.4479   16.0707 H   0  0  0  0  0  0
    2.5938   53.2365   26.9433 H   0  0  0  0  0  0
    1.5059   54.4078   26.2608 H   0  0  0  0  0  0
  1 30  1  0  0  0
  1  2  1  0  0  0
  1 31  1  0  0  0
  1 32  1  0  0  0
  2  3  1  0  0  0
  2 33  1  0  0  0
  2 34  1  0  0  0
  3  4  1  0  0  0
  3 35  1  0  0  0
  3 36  1  0  0  0
  4  8  1  0  0  0
  4  5  2  0  0  0
  5  6  1  0  0  0
  5 30  1  0  0  0
  6 12  1  0  0  0
  6  7  2  0  0  0
  7  8  1  0  0  0
  7  9  1  0  0  0
  9 10  2  0  0  0
 10 11  1  0  0  0
 10 19  1  0  0  0
 11 12  1  0  0  0
 11 14  1  0  0  0
 12 13  2  0  0  0
 14 18  1  0  0  0
 14 15  1  0  0  0
 14 37  1  0  0  0
 15 16  1  0  0  0
 15 38  1  0  0  0
 15 39  1  0  0  0
 16 17  1  0  0  0
 16 40  1  0  0  0
 16 41  1  0  0  0
 17 18  1  0  0  0
 17 42  1  0  0  0
 17 43  1  0  0  0
 18 44  1  0  0  0
 18 45  1  0  0  0
 19 20  1  0  0  0
 20 21  1  0  0  0
 20 46  1  0  0  0
 20 47  1  0  0  0
 21 22  2  0  0  0
 21 23  1  0  0  0
 23 24  1  0  0  0
 23 48  1  0  0  0
 24 25  2  0  0  0
 24 26  1  0  0  0
 26 27  1  0  0  0
 26 49  1  0  0  0
 27 29  1  0  0  0
 27 28  1  0  0  0
 27 50  1  0  0  0
 28 29  1  0  0  0
 28 51  1  0  0  0
 28 52  1  0  0  0
 29 53  1  0  0  0
 29 54  1  0  0  0
 30 55  1  0  0  0
 30 56  1  0  0  0
M  END
> <i_i_glide_confnum>
207

> <i_i_glide_lignum>
2242

> <i_i_glide_posenum>
186

> <i_i_glide_rotatable_bonds>
8

> <i_m_Source_File_Index>
4959

> <b_m_subgroup_collapsed>
0

> <r_i_docking_score>
-4.19094

> <r_i_glide_ecoul>
-6.62356

> <r_i_glide_eff_state_penalty>
0

> <r_i_glide_einternal>
3.4124

> <r_i_glide_emodel>
-46.7206

> <r_i_glide_energy>
-37.5944

> <r_i_glide_erotb>
0.702582

> <r_i_glide_esite>
-0.0581373

> <r_i_glide_evdw>
-30.9708

> <r_i_glide_gscore>
-4.19094

> <r_i_glide_hbond>
-0.252525

> <r_i_glide_ligand_efficiency>
-0.139698

> <r_i_glide_ligand_efficiency_ln>
-0.952228

> <r_i_glide_ligand_efficiency_sa>
-0.434074

> <r_i_glide_lipo>
-1.49413

> <r_i_glide_metal>
0

> <r_i_glide_rewards>
-0.546658

> <s_i_glide_gridfile>
wee1_glide-grid

> <s_m_Source_File>
wee1_decoys_glide_SP.sdf

> <s_m_Source_Path>
/Users/zhangxujun/Desktop

> <s_m_entry_id>
5234

> <s_m_entry_name>
wee1_decoys_glide_SP.4959

> <s_m_subgroup_title>
wee1_decoys_glide_SP

> <s_m_subgroupid>
wee1_decoys_glide_SP


$$$$
