@<TRIPOS>MOLECULE
ZINC18093885_4548
53   55    1
SMALL
USER_CHARGES


@<TRIPOS>ATOM
      1 C1         -2.8405   53.0390   23.9408 C.3       1 UNK         0.0000 
      2 C2         -3.5709   52.7762   25.2675 C.3       1 UNK         0.0000 
      3 C3         -3.6441   51.2804   25.6459 C.3       1 UNK         0.0000 
      4 O4         -2.3636   50.6519   25.6805 O.3       1 UNK         0.0000 
      5 C5         -1.4276   50.9713   26.6476 C.ar      1 UNK         0.0000 
      6 C6         -1.7420   51.6967   27.8060 C.ar      1 UNK         0.0000 
      7 C7         -0.7546   52.0591   28.7214 C.ar      1 UNK         0.0000 
      8 C8          0.5634   51.6886   28.4981 C.ar      1 UNK         0.0000 
      9 C9          0.8750   50.9016   27.3956 C.ar      1 UNK         0.0000 
     10 C10        -0.1034   50.5297   26.4666 C.ar      1 UNK         0.0000 
     11 C11         0.2978   49.6396   25.2806 C.3       1 UNK         0.0000 
     12 H12         1.3236   49.3130   25.4605 H         1 UNK         0.0000 
     13 C13         0.2444   50.3413   23.8887 C.2       1 UNK         0.0000 
     14 C14        -0.7111   49.9762   22.9855 C.2       1 UNK         0.0000 
     15 N15        -1.5301   48.9175   23.2246 N.pl3     1 UNK         0.0000 
     16 C16        -1.4518   48.0801   24.2935 C.2       1 UNK         0.0000 
     17 S17        -2.4952   46.8150   24.4803 S.2       1 UNK         0.0000 
     18 N18        -0.4943   48.3851   25.2177 N.pl3     1 UNK         0.0000 
     19 C19        -1.0278   50.6512   21.6525 C.3       1 UNK         0.0000 
     20 C20         1.1735   51.4365   23.6710 C.2       1 UNK         0.0000 
     21 O21         1.2978   52.3553   24.4803 O.2       1 UNK         0.0000 
     22 N22         1.8846   51.3107   22.5287 N.am      1 UNK         0.0000 
     23 C23         2.8243   52.1819   21.9468 C.ar      1 UNK         0.0000 
     24 C24         3.1040   53.4776   22.4086 C.ar      1 UNK         0.0000 
     25 C25         4.0416   54.2629   21.7438 C.ar      1 UNK         0.0000 
     26 C26         4.7035   53.7719   20.6210 C.ar      1 UNK         0.0000 
     27 C27         4.4229   52.4892   20.1571 C.ar      1 UNK         0.0000 
     28 C28         3.4882   51.6966   20.8176 C.ar      1 UNK         0.0000 
     29 C29         5.7162   54.6439   19.9016 C.3       1 UNK         0.0000 
     30 Br30        1.9332   52.2286   29.7049 Br        1 UNK         0.0000 
     31 H31        -2.8684   54.0971   23.6814 H         1 UNK         0.0000 
     32 H32        -3.2950   52.4831   23.1207 H         1 UNK         0.0000 
     33 H33        -1.7922   52.7435   24.0032 H         1 UNK         0.0000 
     34 H34        -3.0863   53.3433   26.0617 H         1 UNK         0.0000 
     35 H35        -4.5851   53.1708   25.1995 H         1 UNK         0.0000 
     36 H36        -4.1801   51.1306   26.5840 H         1 UNK         0.0000 
     37 H37        -4.2325   50.7534   24.8942 H         1 UNK         0.0000 
     38 H38        -2.7556   52.0000   28.0078 H         1 UNK         0.0000 
     39 H39        -1.0058   52.6294   29.6027 H         1 UNK         0.0000 
     40 H40         1.8951   50.5844   27.2821 H         1 UNK         0.0000 
     41 H41        -2.2732   48.6693   22.5893 H         1 UNK         0.0000 
     42 H42        -0.4772   47.7690   26.0222 H         1 UNK         0.0000 
     43 H43        -0.7023   50.0225   20.8232 H         1 UNK         0.0000 
     44 H44        -2.1003   50.8209   21.5503 H         1 UNK         0.0000 
     45 H45        -0.5521   51.6257   21.5441 H         1 UNK         0.0000 
     46 H46         1.7216   50.4609   22.0118 H         1 UNK         0.0000 
     47 H47         2.6012   53.9069   23.2599 H         1 UNK         0.0000 
     48 H48         4.2361   55.2670   22.0830 H         1 UNK         0.0000 
     49 H49         4.9210   52.0971   19.2818 H         1 UNK         0.0000 
     50 H50         3.2846   50.7067   20.4328 H         1 UNK         0.0000 
     51 H51         5.2485   55.5775   19.5852 H         1 UNK         0.0000 
     52 H52         6.5377   54.8987   20.5716 H         1 UNK         0.0000 
     53 H53         6.1288   54.1540   19.0184 H         1 UNK         0.0000 
@<TRIPOS>BOND
     1    1    2 1    
     2    1   31 1    
     3    1   32 1    
     4    1   33 1    
     5    2    3 1    
     6    2   34 1    
     7    2   35 1    
     8    3    4 1    
     9    3   36 1    
    10    3   37 1    
    11    4    5 1    
    12    5   10 ar   
    13    5    6 ar   
    14    6    7 ar   
    15    6   38 1    
    16    7    8 ar   
    17    7   39 1    
    18    8    9 ar   
    19    8   30 1    
    20    9   10 ar   
    21    9   40 1    
    22   10   11 1    
    23   11   12 1    
    24   11   18 1    
    25   11   13 1    
    26   13   14 2    
    27   13   20 1    
    28   14   15 1    
    29   14   19 1    
    30   15   16 1    
    31   15   41 1    
    32   16   17 2    
    33   16   18 1    
    34   18   42 1    
    35   19   43 1    
    36   19   44 1    
    37   19   45 1    
    38   20   21 2    
    39   20   22 am   BACKBONE|DICT|INTERRES
    40   22   23 1    
    41   22   46 1    
    42   23   28 ar   
    43   23   24 ar   
    44   24   25 ar   
    45   24   47 1    
    46   25   26 ar   
    47   25   48 1    
    48   26   27 ar   
    49   26   29 1    
    50   27   28 ar   
    51   27   49 1    
    52   28   50 1    
    53   29   51 1    
    54   29   52 1    
    55   29   53 1    
@<TRIPOS>SUBSTRUCTURE
     1 UNK         1 GROUP             0       ****    0 ROOT    
