@<TRIPOS>MOLECULE
ZINC64928269_5422
70   73    1
SMALL
USER_CHARGES


@<TRIPOS>ATOM
      1 C1         -5.5668   54.0472   24.7859 C.3       1 UNK         0.0000 
      2 C2         -5.6633   52.5085   24.7496 C.3       1 UNK         0.0000 
      3 C3         -4.3867   51.7338   25.0801 C.ar      1 UNK         0.0000 
      4 C4         -4.4011   50.3438   24.9287 C.ar      1 UNK         0.0000 
      5 C5         -3.2644   49.5914   25.2179 C.ar      1 UNK         0.0000 
      6 C6         -2.1029   50.2239   25.6618 C.ar      1 UNK         0.0000 
      7 C7         -2.0901   51.6100   25.8283 C.ar      1 UNK         0.0000 
      8 C8         -3.2244   52.3633   25.5394 C.ar      1 UNK         0.0000 
      9 C9         -0.8595   49.4035   25.9958 C.3       1 UNK         0.0000 
     10 N10         0.2469   49.6242   25.0759 N.am      1 UNK         0.0000 
     11 C11         0.3043   49.1739   23.8168 C.2       1 UNK         0.0000 
     12 O12        -0.5494   48.4542   23.3017 O.2       1 UNK         0.0000 
     13 C13         1.4959   49.6646   23.0020 C.3       1 UNK         0.0000 
     14 C14         1.2209   51.0691   22.3923 C.3       1 UNK         0.0000 
     15 H15         0.2809   51.4616   22.7869 H         1 UNK         0.0000 
     16 C16         1.0471   51.0438   20.8648 C.ar      1 UNK         0.0000 
     17 C17        -0.0035   50.3249   20.2808 C.ar      1 UNK         0.0000 
     18 C18        -0.1338   50.2267   18.8975 C.ar      1 UNK         0.0000 
     19 C19         0.7948   50.8481   18.0701 C.ar      1 UNK         0.0000 
     20 C20         1.8374   51.5821   18.6321 C.ar      1 UNK         0.0000 
     21 C21         1.9708   51.7080   20.0210 C.ar      1 UNK         0.0000 
     22 C22         3.1079   52.5447   20.6154 C.3       1 UNK         0.0000 
     23 C23         3.4897   52.0208   22.0026 C.3       1 UNK         0.0000 
     24 N24         2.3044   51.9611   22.8941 N.pl3     1 UNK         0.0000 
     25 S25         1.8045   53.3920   23.8281 S.o2      1 UNK         0.0000 
     26 O26         1.6725   54.4968   22.8817 O.2       1 UNK         0.0000 
     27 O27         0.6499   52.9978   24.6447 O.2       1 UNK         0.0000 
     28 C28         3.1738   53.8238   24.9380 C.ar      1 UNK         0.0000 
     29 C29         4.3175   54.3407   24.3189 C.ar      1 UNK         0.0000 
     30 C30         5.4550   54.6704   25.0543 C.ar      1 UNK         0.0000 
     31 C31         5.4508   54.4963   26.4353 C.ar      1 UNK         0.0000 
     32 C32         4.3081   54.0257   27.0772 C.ar      1 UNK         0.0000 
     33 C33         3.1504   53.6960   26.3482 C.ar      1 UNK         0.0000 
     34 N34         1.9703   53.2424   26.9755 N.am      1 UNK         0.0000 
     35 C35         1.6327   53.2028   28.2862 C.2       1 UNK         0.0000 
     36 O36         2.3300   53.5919   29.2225 O.2       1 UNK         0.0000 
     37 C37         0.2505   52.6388   28.5866 C.3       1 UNK         0.0000 
     38 C38         6.7022   55.1809   24.3578 C.3       1 UNK         0.0000 
     39 H39        -6.5158   54.4926   24.4933 H         1 UNK         0.0000 
     40 H40        -4.8074   54.4154   24.0944 H         1 UNK         0.0000 
     41 H41        -5.3273   54.4095   25.7859 H         1 UNK         0.0000 
     42 H42        -6.4453   52.1820   25.4366 H         1 UNK         0.0000 
     43 H43        -5.9892   52.2054   23.7523 H         1 UNK         0.0000 
     44 H44        -5.2930   49.8437   24.5831 H         1 UNK         0.0000 
     45 H45        -3.2868   48.5192   25.0942 H         1 UNK         0.0000 
     46 H46        -1.1958   52.1043   26.1707 H         1 UNK         0.0000 
     47 H47        -3.1826   53.4325   25.6747 H         1 UNK         0.0000 
     48 H48        -0.4968   49.7087   26.9750 H         1 UNK         0.0000 
     49 H49        -1.0936   48.3418   26.0793 H         1 UNK         0.0000 
     50 H50         0.9714   50.2478   25.3961 H         1 UNK         0.0000 
     51 H51         2.3788   49.6564   23.6453 H         1 UNK         0.0000 
     52 H52         1.7163   48.9281   22.2283 H         1 UNK         0.0000 
     53 H53        -0.7150   49.8104   20.9123 H         1 UNK         0.0000 
     54 H54        -0.9430   49.6539   18.4684 H         1 UNK         0.0000 
     55 H55         0.7173   50.7591   16.9949 H         1 UNK         0.0000 
     56 H56         2.5533   52.0606   17.9781 H         1 UNK         0.0000 
     57 H57         2.7267   53.5619   20.7125 H         1 UNK         0.0000 
     58 H58         3.9750   52.5881   19.9551 H         1 UNK         0.0000 
     59 H59         4.3381   52.5055   22.4818 H         1 UNK         0.0000 
     60 H60         3.7947   50.9822   21.8512 H         1 UNK         0.0000 
     61 H61         4.3185   54.4900   23.2464 H         1 UNK         0.0000 
     62 H62         6.3251   54.7339   27.0261 H         1 UNK         0.0000 
     63 H63         4.3684   53.9173   28.1471 H         1 UNK         0.0000 
     64 H64         1.2486   52.9791   26.3157 H         1 UNK         0.0000 
     65 H65         0.1775   51.6009   28.2609 H         1 UNK         0.0000 
     66 H66         0.0462   52.6713   29.6572 H         1 UNK         0.0000 
     67 H67        -0.5139   53.2284   28.0819 H         1 UNK         0.0000 
     68 H68         7.5950   54.8410   24.8822 H         1 UNK         0.0000 
     69 H69         6.7741   54.8005   23.3377 H         1 UNK         0.0000 
     70 H70         6.7046   56.2698   24.3303 H         1 UNK         0.0000 
@<TRIPOS>BOND
     1    1    2 1    
     2    1   39 1    
     3    1   40 1    
     4    1   41 1    
     5    2    3 1    
     6    2   42 1    
     7    2   43 1    
     8    3    8 ar   
     9    3    4 ar   
    10    4    5 ar   
    11    4   44 1    
    12    5    6 ar   
    13    5   45 1    
    14    6    7 ar   
    15    6    9 1    
    16    7    8 ar   
    17    7   46 1    
    18    8   47 1    
    19    9   10 1    
    20    9   48 1    
    21    9   49 1    
    22   10   11 am   BACKBONE|DICT|INTERRES
    23   10   50 1    
    24   11   12 2    
    25   11   13 1    
    26   13   14 1    
    27   13   51 1    
    28   13   52 1    
    29   14   15 1    
    30   14   24 1    
    31   14   16 1    
    32   16   21 ar   
    33   16   17 ar   
    34   17   18 ar   
    35   17   53 1    
    36   18   19 ar   
    37   18   54 1    
    38   19   20 ar   
    39   19   55 1    
    40   20   21 ar   
    41   20   56 1    
    42   21   22 1    
    43   22   23 1    
    44   22   57 1    
    45   22   58 1    
    46   23   24 1    
    47   23   59 1    
    48   23   60 1    
    49   24   25 1    
    50   25   26 2    
    51   25   27 2    
    52   25   28 1    
    53   28   33 ar   
    54   28   29 ar   
    55   29   30 ar   
    56   29   61 1    
    57   30   31 ar   
    58   30   38 1    
    59   31   32 ar   
    60   31   62 1    
    61   32   33 ar   
    62   32   63 1    
    63   33   34 1    
    64   34   35 am   BACKBONE|DICT|INTERRES
    65   34   64 1    
    66   35   36 2    
    67   35   37 1    
    68   37   65 1    
    69   37   66 1    
    70   37   67 1    
    71   38   68 1    
    72   38   69 1    
    73   38   70 1    
@<TRIPOS>SUBSTRUCTURE
     1 UNK         1 GROUP             0       ****    0 ROOT    
