@<TRIPOS>MOLECULE
ZINC39637477_4079
69   72    1
SMALL
USER_CHARGES


@<TRIPOS>ATOM
      1 C1          5.4237   55.1807   14.3718 C.3       1 UNK         0.0000 
      2 C2          4.8274   54.0233   15.1957 C.3       1 UNK         0.0000 
      3 H3          5.6129   53.2733   15.3068 H         1 UNK         0.0000 
      4 C4          3.6473   53.3572   14.4583 C.3       1 UNK         0.0000 
      5 C5          3.1635   52.1067   15.2108 C.3       1 UNK         0.0000 
      6 C6          2.7874   52.4249   16.6727 C.3       1 UNK         0.0000 
      7 C7          3.8833   53.2116   17.4338 C.3       1 UNK         0.0000 
      8 H8          4.7094   52.4968   17.4545 H         1 UNK         0.0000 
      9 C9          4.3982   54.4481   16.6306 C.3       1 UNK         0.0000 
     10 H10         5.3257   54.7524   17.1180 H         1 UNK         0.0000 
     11 C11         3.4244   55.6493   16.7068 C.3       1 UNK         0.0000 
     12 N12         3.5042   53.4660   18.8247 N.am      1 UNK         0.0000 
     13 C13         4.3630   53.6802   19.8301 C.2       1 UNK         0.0000 
     14 O14         5.5830   53.6529   19.6654 O.2       1 UNK         0.0000 
     15 C15         3.7285   53.8817   21.2332 C.3       1 UNK         0.0000 
     16 H16         3.2235   54.8480   21.2602 H         1 UNK         0.0000 
     17 C17         4.8804   54.0182   22.2402 C.3       1 UNK         0.0000 
     18 N18         4.2428   53.7536   23.5274 N.am      1 UNK         0.0000 
     19 C19         2.9860   53.0319   23.3370 C.3       1 UNK         0.0000 
     20 C20         2.8816   52.7171   21.8283 C.3       1 UNK         0.0000 
     21 C21         3.4354   51.3028   21.4531 C.3       1 UNK         0.0000 
     22 C22         2.6849   50.1541   22.1646 C.3       1 UNK         0.0000 
     23 N23         1.1877   50.2579   21.8020 N.4       1 UNK         0.0000 
     24 C24         0.5650   51.6439   22.0891 C.3       1 UNK         0.0000 
     25 C25         1.4074   52.7209   21.3709 C.3       1 UNK         0.0000 
     26 C26         4.7776   54.2835   24.6600 C.2       1 UNK         0.0000 
     27 O27         5.8428   54.9096   24.5966 O.2       1 UNK         0.0000 
     28 C28         4.1467   54.1113   26.0370 C.ar      1 UNK         0.0000 
     29 C29         4.9414   54.4356   27.1411 C.ar      1 UNK         0.0000 
     30 C30         4.4573   54.3587   28.4341 C.ar      1 UNK         0.0000 
     31 C31         3.1648   53.9012   28.6900 C.ar      1 UNK         0.0000 
     32 C32         2.3408   53.5856   27.6049 C.ar      1 UNK         0.0000 
     33 C33         2.8232   53.7006   26.2980 C.ar      1 UNK         0.0000 
     34 Cl34        0.7069   53.0792   27.8545 Cl        1 UNK         0.0000 
     35 O35         2.7101   53.7984   29.9846 O.3       1 UNK         0.0000 
     36 C36         2.8507   52.4979   30.5448 C.3       1 UNK         0.0000 
     37 Cl37        5.4933   54.8968   29.6816 Cl        1 UNK         0.0000 
     38 H38         4.6784   55.9387   14.1321 H         1 UNK         0.0000 
     39 H39         6.2362   55.6689   14.9093 H         1 UNK         0.0000 
     40 H40         5.8311   54.8193   13.4274 H         1 UNK         0.0000 
     41 H41         2.8360   54.0687   14.3028 H         1 UNK         0.0000 
     42 H42         3.9599   53.0719   13.4528 H         1 UNK         0.0000 
     43 H43         2.3122   51.6622   14.6946 H         1 UNK         0.0000 
     44 H44         3.9483   51.3482   15.2014 H         1 UNK         0.0000 
     45 H45         1.8639   53.0045   16.6700 H         1 UNK         0.0000 
     46 H46         2.5732   51.4890   17.1926 H         1 UNK         0.0000 
     47 H47         2.4693   55.4271   16.2337 H         1 UNK         0.0000 
     48 H48         3.8361   56.5330   16.2214 H         1 UNK         0.0000 
     49 H49         3.2195   55.9316   17.7399 H         1 UNK         0.0000 
     50 H50         2.5290   53.6549   18.9964 H         1 UNK         0.0000 
     51 H51         5.6103   53.2197   22.0914 H         1 UNK         0.0000 
     52 H52         5.3574   54.9961   22.1486 H         1 UNK         0.0000 
     53 H53         2.2158   53.7804   23.5278 H         1 UNK         0.0000 
     54 H54         2.7597   52.1930   23.9928 H         1 UNK         0.0000 
     55 H55         3.4255   51.1382   20.3732 H         1 UNK         0.0000 
     56 H56         4.4880   51.2387   21.7284 H         1 UNK         0.0000 
     57 H57         3.0125   49.1715   21.8198 H         1 UNK         0.0000 
     58 H58         2.7302   50.1709   23.2537 H         1 UNK         0.0000 
     59 H59         1.0861   50.0565   20.8159 H         1 UNK         0.0000 
     60 H60        -0.4608   51.6029   21.7186 H         1 UNK         0.0000 
     61 H61         0.5427   51.7596   23.1741 H         1 UNK         0.0000 
     62 H62         0.9995   53.6922   21.6572 H         1 UNK         0.0000 
     63 H63         1.3115   52.6528   20.2870 H         1 UNK         0.0000 
     64 H64         5.9573   54.7848   27.0131 H         1 UNK         0.0000 
     65 H65         2.1049   53.4873   25.5322 H         1 UNK         0.0000 
     66 H66         2.4411   52.4912   31.5549 H         1 UNK         0.0000 
     67 H67         2.3118   51.7450   29.9661 H         1 UNK         0.0000 
     68 H68         3.8999   52.2033   30.6086 H         1 UNK         0.0000 
     69 H69         0.6710   49.5425   22.2961 H         1 UNK         0.0000 
@<TRIPOS>BOND
     1    1    2 1    
     2    1   38 1    
     3    1   39 1    
     4    1   40 1    
     5    2    3 1    
     6    2    9 1    
     7    2    4 1    
     8    4    5 1    
     9    4   41 1    
    10    4   42 1    
    11    5    6 1    
    12    5   43 1    
    13    5   44 1    
    14    6    7 1    
    15    6   45 1    
    16    6   46 1    
    17    7    8 1    
    18    7    9 1    
    19    7   12 1    
    20    9   10 1    
    21    9   11 1    
    22   11   47 1    
    23   11   48 1    
    24   11   49 1    
    25   12   13 am   BACKBONE|DICT|INTERRES
    26   12   50 1    
    27   13   14 2    
    28   13   15 1    
    29   15   16 1    
    30   15   20 1    
    31   15   17 1    
    32   17   18 1    
    33   17   51 1    
    34   17   52 1    
    35   18   19 1    
    36   18   26 am   BACKBONE|DICT|INTERRES
    37   19   20 1    
    38   19   53 1    
    39   19   54 1    
    40   20   25 1    
    41   20   21 1    
    42   21   22 1    
    43   21   55 1    
    44   21   56 1    
    45   22   23 1    
    46   22   57 1    
    47   22   58 1    
    48   23   24 1    
    49   23   59 1    
    50   23   69 1    
    51   24   25 1    
    52   24   60 1    
    53   24   61 1    
    54   25   62 1    
    55   25   63 1    
    56   26   27 2    
    57   26   28 1    
    58   28   33 ar   
    59   28   29 ar   
    60   29   30 ar   
    61   29   64 1    
    62   30   31 ar   
    63   30   37 1    
    64   31   32 ar   
    65   31   35 1    
    66   32   33 ar   
    67   32   34 1    
    68   33   65 1    
    69   35   36 1    
    70   36   66 1    
    71   36   67 1    
    72   36   68 1    
@<TRIPOS>SUBSTRUCTURE
     1 UNK         1 GROUP             0       ****    0 ROOT    
