ZINC48813954_1645
                    3D
 Schrodinger Suite 2024-2.
 33 34  0  0  1  0            999 V2000
    6.6698   54.0970   26.9072 C   0  0  0  0  0  0
    6.0189   53.7163   28.0808 C   0  0  0  0  0  0
    4.6235   53.5846   28.1180 C   0  0  0  0  0  0
    3.8834   53.8514   26.9535 C   0  0  0  0  0  0
    4.5408   54.2458   25.7873 C   0  0  0  0  0  0
    5.9409   54.3501   25.7442 C   0  0  0  0  0  0
    6.6533   54.7108   24.5822 N   0  0  0  0  0  0
    6.2797   54.4848   23.3058 C   0  0  0  0  0  0
    5.2848   53.8395   22.9755 O   0  0  0  0  0  0
    7.1015   55.0760   22.4217 N   0  0  0  0  0  0
    6.7035   55.6670   21.1329 C   0  0  1  0  0  0
    6.3518   56.6899   21.2859 H   0  0  0  0  0  0
    7.9425   55.7316   20.2074 C   0  0  0  0  0  0
    7.5045   56.2205   18.8223 C   0  0  0  0  0  0
    5.8592   55.3766   18.5317 S   0  0  0  0  0  0
    4.8720   56.3899   18.1471 O   0  0  0  0  0  0
    6.0488   54.1656   17.7273 O   0  0  0  0  0  0
    5.6245   54.8961   20.3268 C   0  0  0  0  0  0
    2.1589   53.6971   26.8945 Cl  0  0  0  0  0  0
    3.9554   53.1811   29.3867 C   0  0  0  0  0  0
    3.9488   51.9636   29.6828 O   0  0  0  0  0  0
    3.4668   54.0998   30.0818 O   0  5  0  0  0  0
    7.7452   54.1749   26.9159 H   0  0  0  0  0  0
    6.6139   53.5189   28.9594 H   0  0  0  0  0  0
    3.9452   54.4545   24.9124 H   0  0  0  0  0  0
    7.5741   55.0965   24.7217 H   0  0  0  0  0  0
    8.0408   55.2931   22.7320 H   0  0  0  0  0  0
    8.7247   56.3658   20.6255 H   0  0  0  0  0  0
    8.4007   54.7451   20.1204 H   0  0  0  0  0  0
    7.3046   57.2904   18.8777 H   0  0  0  0  0  0
    8.1772   56.0484   17.9834 H   0  0  0  0  0  0
    5.9060   53.8448   20.3294 H   0  0  0  0  0  0
    4.5871   54.8970   20.6556 H   0  0  0  0  0  0
  1  6  2  0  0  0
  1  2  1  0  0  0
  1 23  1  0  0  0
  2  3  2  0  0  0
  2 24  1  0  0  0
  3  4  1  0  0  0
  3 20  1  0  0  0
  4  5  2  0  0  0
  4 19  1  0  0  0
  5  6  1  0  0  0
  5 25  1  0  0  0
  6  7  1  0  0  0
  7  8  1  0  0  0
  7 26  1  0  0  0
  8  9  2  0  0  0
  8 10  1  0  0  0
 10 11  1  0  0  0
 10 27  1  0  0  0
 11 12  1  0  0  0
 11 18  1  0  0  0
 11 13  1  0  0  0
 13 14  1  0  0  0
 13 28  1  0  0  0
 13 29  1  0  0  0
 14 15  1  0  0  0
 14 30  1  0  0  0
 14 31  1  0  0  0
 15 16  2  0  0  0
 15 17  2  0  0  0
 15 18  1  0  0  0
 18 32  1  0  0  0
 18 33  1  0  0  0
 20 21  2  0  0  0
 20 22  1  0  0  0
M  CHG  1  22  -1
M  END
> <i_i_glide_confnum>
2

> <i_i_glide_lignum>
1646

> <i_i_glide_posenum>
342

> <i_i_glide_rotatable_bonds>
5

> <i_m_Source_File_Index>
2792

> <b_m_subgroup_collapsed>
0

> <r_i_docking_score>
-6.86596

> <r_i_glide_ecoul>
-5.5837

> <r_i_glide_eff_state_penalty>
0

> <r_i_glide_einternal>
6.17856

> <r_i_glide_emodel>
-60.9472

> <r_i_glide_energy>
-43.7477

> <r_i_glide_erotb>
0.513142

> <r_i_glide_esite>
-0.0149493

> <r_i_glide_evdw>
-38.164

> <r_i_glide_gscore>
-6.86596

> <r_i_glide_hbond>
-0.573039

> <r_i_glide_ligand_efficiency>
-0.32695

> <r_i_glide_ligand_efficiency_ln>
-1.69759

> <r_i_glide_ligand_efficiency_sa>
-0.902032

> <r_i_glide_lipo>
-2.4337

> <r_i_glide_metal>
0

> <r_i_glide_rewards>
-1.61166

> <s_i_glide_gridfile>
wee1_glide-grid

> <s_m_Source_File>
wee1_decoys_glide_SP.sdf

> <s_m_Source_Path>
/Users/zhangxujun/Desktop

> <s_m_entry_id>
3067

> <s_m_entry_name>
wee1_decoys_glide_SP.2792

> <s_m_subgroup_title>
wee1_decoys_glide_SP

> <s_m_subgroupid>
wee1_decoys_glide_SP


$$$$
