ZINC39678375_900
                    3D
 Schrodinger Suite 2024-2.
 84 88  0  0  1  0            999 V2000
    5.8284   54.9010   26.9336 C   0  0  0  0  0  0
    5.0185   53.6078   27.1698 C   0  0  0  0  0  0
    5.2316   53.1354   28.6224 C   0  0  0  0  0  0
    3.4924   53.6704   26.8253 C   0  0  2  0  0  0
    3.1106   52.7125   27.1564 H   0  0  0  0  0  0
    3.1474   53.7692   25.3120 C   0  0  0  0  0  0
    3.8593   54.4609   24.5803 O   0  0  0  0  0  0
    2.1064   53.0576   24.8006 N   0  0  0  0  0  0
    1.8420   53.0300   23.3601 C   0  0  0  0  0  0
    0.4130   52.4564   23.2530 C   0  0  2  0  0  0
   -0.2935   53.2873   23.2607 H   0  0  0  0  0  0
    0.2195   51.5827   24.5308 C   0  0  0  0  0  0
    1.0792   52.3458   25.5713 C   0  0  0  0  0  0
   -1.2829   51.4625   24.8970 C   0  0  0  0  0  0
   -1.5035   50.7230   26.2272 C   0  0  0  0  0  0
   -0.9338   49.2970   26.0817 N   0  3  0  0  0  0
    0.5520   49.2631   25.6677 C   0  0  0  0  0  0
    0.7213   50.1020   24.3791 C   0  0  0  0  0  0
    0.2888   51.6712   21.9194 C   0  0  0  0  0  0
    1.2531   51.0574   21.4624 O   0  0  0  0  0  0
   -0.9105   51.6969   21.3096 N   0  0  0  0  0  0
   -1.2738   50.9074   20.1251 C   0  0  0  0  0  0
   -0.4819   51.2115   18.8459 C   0  0  0  0  0  0
    0.6411   50.4204   18.5746 C   0  0  0  0  0  0
    1.4332   50.6674   17.4605 C   0  0  0  0  0  0
    1.1078   51.7004   16.5908 C   0  0  0  0  0  0
   -0.0301   52.4675   16.8252 C   0  0  0  0  0  0
   -0.8494   52.2340   17.9411 C   0  0  0  0  0  0
   -2.0590   52.9111   18.0748 N   0  0  0  0  0  0
   -2.2016   54.3469   17.7621 C   0  0  0  0  0  0
   -2.6874   54.6641   16.3265 C   0  0  0  0  0  0
   -3.9447   53.8740   15.9445 C   0  0  0  0  0  0
   -3.7508   52.3898   16.2806 C   0  0  0  0  0  0
   -3.3018   52.1866   17.7436 C   0  0  0  0  0  0
    2.9113   54.7999   27.4899 O   0  0  0  0  0  0
    2.0979   54.6638   28.5990 C   0  0  0  0  0  0
    1.4874   53.4701   29.0217 C   0  0  0  0  0  0
    0.6908   53.4563   30.1626 C   0  0  0  0  0  0
    0.5045   54.6295   30.8841 C   0  0  0  0  0  0
    1.1044   55.8196   30.4805 C   0  0  0  0  0  0
    1.8872   55.8336   29.3310 C   0  0  0  0  0  0
    5.5073   55.6966   27.6016 H   0  0  0  0  0  0
    6.8884   54.7357   27.1298 H   0  0  0  0  0  0
    5.7562   55.2738   25.9141 H   0  0  0  0  0  0
    5.4679   52.8541   26.5259 H   0  0  0  0  0  0
    4.7710   53.8229   29.3330 H   0  0  0  0  0  0
    4.8058   52.1461   28.7929 H   0  0  0  0  0  0
    6.2908   53.0808   28.8731 H   0  0  0  0  0  0
    1.9020   54.0151   22.8912 H   0  0  0  0  0  0
    2.5857   52.3409   22.9552 H   0  0  0  0  0  0
    1.4225   51.7183   26.3892 H   0  0  0  0  0  0
    0.4558   53.1207   26.0181 H   0  0  0  0  0  0
   -1.7091   52.4612   25.0058 H   0  0  0  0  0  0
   -1.8506   50.9946   24.0909 H   0  0  0  0  0  0
   -0.9936   51.1790   27.0780 H   0  0  0  0  0  0
   -2.5595   50.6010   26.4756 H   0  0  0  0  0  0
   -1.0617   48.8272   26.9951 H   0  0  0  0  0  0
    1.1044   49.6302   26.5297 H   0  0  0  0  0  0
    0.8063   48.2118   25.5180 H   0  0  0  0  0  0
    0.2067   49.5841   23.5686 H   0  0  0  0  0  0
    1.7733   50.0932   24.0845 H   0  0  0  0  0  0
   -1.6550   52.2166   21.7453 H   0  0  0  0  0  0
   -1.1762   49.8467   20.3672 H   0  0  0  0  0  0
   -2.3405   51.0331   19.9545 H   0  0  0  0  0  0
    0.9271   49.6249   19.2475 H   0  0  0  0  0  0
    2.3043   50.0586   17.2788 H   0  0  0  0  0  0
    1.7287   51.8912   15.7277 H   0  0  0  0  0  0
   -0.2730   53.2330   16.1097 H   0  0  0  0  0  0
   -2.8955   54.7736   18.4815 H   0  0  0  0  0  0
   -1.2505   54.8469   17.9553 H   0  0  0  0  0  0
   -2.9015   55.7313   16.2553 H   0  0  0  0  0  0
   -1.8935   54.5061   15.5987 H   0  0  0  0  0  0
   -4.1629   53.9991   14.8829 H   0  0  0  0  0  0
   -4.8085   54.2677   16.4816 H   0  0  0  0  0  0
   -3.0305   51.9236   15.6058 H   0  0  0  0  0  0
   -4.6877   51.8573   16.1130 H   0  0  0  0  0  0
   -3.1791   51.1189   17.9264 H   0  0  0  0  0  0
   -4.0908   52.4969   18.4277 H   0  0  0  0  0  0
    1.5979   52.5392   28.4945 H   0  0  0  0  0  0
    0.2221   52.5401   30.4941 H   0  0  0  0  0  0
   -0.0978   54.6089   31.7797 H   0  0  0  0  0  0
    0.9650   56.7267   31.0514 H   0  0  0  0  0  0
    2.3483   56.7571   29.0129 H   0  0  0  0  0  0
   -1.4867   48.7721   25.4202 H   0  0  0  0  0  0
  1  2  1  0  0  0
  1 42  1  0  0  0
  1 43  1  0  0  0
  1 44  1  0  0  0
  2  3  1  0  0  0
  2  4  1  0  0  0
  2 45  1  0  0  0
  3 46  1  0  0  0
  3 47  1  0  0  0
  3 48  1  0  0  0
  4  5  1  0  0  0
  4  6  1  0  0  0
  4 35  1  0  0  0
  6  7  2  0  0  0
  6  8  1  0  0  0
  8 13  1  0  0  0
  8  9  1  0  0  0
  9 10  1  0  0  0
  9 49  1  0  0  0
  9 50  1  0  0  0
 10 11  1  0  0  0
 10 12  1  0  0  0
 10 19  1  0  0  0
 12 18  1  0  0  0
 12 13  1  0  0  0
 12 14  1  0  0  0
 13 51  1  0  0  0
 13 52  1  0  0  0
 14 15  1  0  0  0
 14 53  1  0  0  0
 14 54  1  0  0  0
 15 16  1  0  0  0
 15 55  1  0  0  0
 15 56  1  0  0  0
 16 17  1  0  0  0
 16 57  1  0  0  0
 16 84  1  0  0  0
 17 18  1  0  0  0
 17 58  1  0  0  0
 17 59  1  0  0  0
 18 60  1  0  0  0
 18 61  1  0  0  0
 19 20  2  0  0  0
 19 21  1  0  0  0
 21 22  1  0  0  0
 21 62  1  0  0  0
 22 23  1  0  0  0
 22 63  1  0  0  0
 22 64  1  0  0  0
 23 28  2  0  0  0
 23 24  1  0  0  0
 24 25  2  0  0  0
 24 65  1  0  0  0
 25 26  1  0  0  0
 25 66  1  0  0  0
 26 27  2  0  0  0
 26 67  1  0  0  0
 27 28  1  0  0  0
 27 68  1  0  0  0
 28 29  1  0  0  0
 29 34  1  0  0  0
 29 30  1  0  0  0
 30 31  1  0  0  0
 30 69  1  0  0  0
 30 70  1  0  0  0
 31 32  1  0  0  0
 31 71  1  0  0  0
 31 72  1  0  0  0
 32 33  1  0  0  0
 32 73  1  0  0  0
 32 74  1  0  0  0
 33 34  1  0  0  0
 33 75  1  0  0  0
 33 76  1  0  0  0
 34 77  1  0  0  0
 34 78  1  0  0  0
 35 36  1  0  0  0
 36 41  2  0  0  0
 36 37  1  0  0  0
 37 38  2  0  0  0
 37 79  1  0  0  0
 38 39  1  0  0  0
 38 80  1  0  0  0
 39 40  2  0  0  0
 39 81  1  0  0  0
 40 41  1  0  0  0
 40 82  1  0  0  0
 41 83  1  0  0  0
M  CHG  1  16   1
M  END
> <i_i_glide_confnum>
514

> <i_i_glide_lignum>
901

> <i_i_glide_posenum>
213

> <i_i_glide_rotatable_bonds>
10

> <i_m_Source_File_Index>
4351

> <b_m_subgroup_collapsed>
0

> <r_i_docking_score>
-6.31794

> <r_i_glide_ecoul>
-7.14542

> <r_i_glide_eff_state_penalty>
0

> <r_i_glide_einternal>
6.44914

> <r_i_glide_emodel>
-69.0317

> <r_i_glide_energy>
-49.3753

> <r_i_glide_erotb>
0.57948

> <r_i_glide_esite>
-0.142484

> <r_i_glide_evdw>
-42.2299

> <r_i_glide_gscore>
-6.31794

> <r_i_glide_hbond>
-0.191446

> <r_i_glide_ligand_efficiency>
-0.161999

> <r_i_glide_ligand_efficiency_ln>
-1.35475

> <r_i_glide_ligand_efficiency_sa>
-0.549371

> <r_i_glide_lipo>
-2.78319

> <r_i_glide_metal>
0

> <r_i_glide_rewards>
-0.596998

> <s_i_glide_gridfile>
wee1_glide-grid

> <s_m_Source_File>
wee1_decoys_glide_SP.sdf

> <s_m_Source_Path>
/Users/zhangxujun/Desktop

> <s_m_entry_id>
4626

> <s_m_entry_name>
wee1_decoys_glide_SP.4351

> <s_m_subgroup_title>
wee1_decoys_glide_SP

> <s_m_subgroupid>
wee1_decoys_glide_SP


$$$$
