ZINC32091766_1922
                    3D
 Schrodinger Suite 2024-2.
 28 30  0  0  1  0            999 V2000
    2.7425   52.8413   28.0334 C   0  0  0  0  0  0
    2.0778   52.4507   29.1891 C   0  0  0  0  0  0
    1.5222   53.4199   30.0181 C   0  0  0  0  0  0
    1.5862   54.7696   29.6829 C   0  0  0  0  0  0
    2.2487   55.1559   28.5234 C   0  0  0  0  0  0
    2.8447   54.1923   27.7014 C   0  0  0  0  0  0
    3.6511   54.6237   26.4790 C   0  0  1  0  0  0
    3.5182   55.6965   26.3935 H   0  0  0  0  0  0
    5.1813   54.3412   26.6230 C   0  0  0  0  0  0
    5.9898   54.7916   25.3714 C   0  0  0  0  0  0
    7.1043   55.2978   25.4346 O   0  0  0  0  0  0
    5.3924   54.4967   24.1925 N   0  0  0  0  0  0
    4.0834   54.0817   24.0579 C   0  0  0  0  0  0
    3.2230   54.0464   25.1447 C   0  0  0  0  0  0
    1.6948   53.3973   24.6333 S   0  0  0  0  0  0
    2.3597   53.2845   23.0303 C   0  0  0  0  0  0
    3.5990   53.6920   22.8966 N   0  0  0  0  0  0
    1.5990   52.7885   22.0163 N   0  0  0  0  0  0
    0.7044   52.8969   31.6460 Br  0  0  0  0  0  0
    3.1896   52.0970   27.3964 H   0  0  0  0  0  0
    2.0048   51.4041   29.4447 H   0  0  0  0  0  0
    1.1423   55.5132   30.3297 H   0  0  0  0  0  0
    2.3043   56.2059   28.2808 H   0  0  0  0  0  0
    5.5866   54.8363   27.5066 H   0  0  0  0  0  0
    5.3636   53.2716   26.7382 H   0  0  0  0  0  0
    5.9408   54.7326   23.3794 H   0  0  0  0  0  0
    0.7032   52.3546   22.1825 H   0  0  0  0  0  0
    1.9452   52.7753   21.0664 H   0  0  0  0  0  0
  1  6  2  0  0  0
  1  2  1  0  0  0
  1 20  1  0  0  0
  2  3  2  0  0  0
  2 21  1  0  0  0
  3  4  1  0  0  0
  3 19  1  0  0  0
  4  5  2  0  0  0
  4 22  1  0  0  0
  5  6  1  0  0  0
  5 23  1  0  0  0
  6  7  1  0  0  0
  7  8  1  0  0  0
  7 14  1  0  0  0
  7  9  1  0  0  0
  9 10  1  0  0  0
  9 24  1  0  0  0
  9 25  1  0  0  0
 10 11  2  0  0  0
 10 12  1  0  0  0
 12 13  1  0  0  0
 12 26  1  0  0  0
 13 17  1  0  0  0
 13 14  2  0  0  0
 14 15  1  0  0  0
 15 16  1  0  0  0
 16 17  2  0  0  0
 16 18  1  0  0  0
 18 27  1  0  0  0
 18 28  1  0  0  0
M  END
> <i_i_glide_confnum>
3

> <i_i_glide_lignum>
1923

> <i_i_glide_posenum>
238

> <i_i_glide_rotatable_bonds>
1

> <i_m_Source_File_Index>
208

> <b_m_subgroup_collapsed>
0

> <r_i_docking_score>
-7.17445

> <r_i_glide_ecoul>
-2.74886

> <r_i_glide_eff_state_penalty>
0

> <r_i_glide_einternal>
0.401463

> <r_i_glide_emodel>
-54.0666

> <r_i_glide_energy>
-38.124

> <r_i_glide_erotb>
0.178151

> <r_i_glide_esite>
0

> <r_i_glide_evdw>
-35.3751

> <r_i_glide_gscore>
-7.17445

> <r_i_glide_hbond>
-0.32

> <r_i_glide_ligand_efficiency>
-0.39858

> <r_i_glide_ligand_efficiency_ln>
-1.84415

> <r_i_glide_ligand_efficiency_sa>
-1.04458

> <r_i_glide_lipo>
-2.62489

> <r_i_glide_metal>
0

> <r_i_glide_rewards>
-2.22662

> <s_i_glide_gridfile>
wee1_glide-grid

> <s_m_Source_File>
wee1_decoys_glide_SP.sdf

> <s_m_Source_Path>
/Users/zhangxujun/Desktop

> <s_m_entry_id>
483

> <s_m_entry_name>
wee1_decoys_glide_SP.208

> <s_m_subgroup_title>
wee1_decoys_glide_SP

> <s_m_subgroupid>
wee1_decoys_glide_SP


$$$$
