@<TRIPOS>MOLECULE
ZINC29373749_1226
74   77    1
SMALL
USER_CHARGES


@<TRIPOS>ATOM
      1 C1          4.3929   53.9096   19.0591 C.3       1 UNK         0.0000 
      2 C2          3.6927   52.5428   18.9627 C.3       1 UNK         0.0000 
      3 N3          2.4301   52.4966   19.8516 N.4       1 UNK         0.0000 
      4 C4          1.6104   51.2406   19.4797 C.3       1 UNK         0.0000 
      5 C5          0.3828   51.1124   20.3993 C.3       1 UNK         0.0000 
      6 N6          0.7242   51.1242   21.8307 N.pl3     1 UNK         0.0000 
      7 C7          1.5404   52.2902   22.2084 C.3       1 UNK         0.0000 
      8 C8          2.8060   52.4573   21.3483 C.3       1 UNK         0.0000 
      9 C9          0.0451   50.3692   22.7791 C.ar      1 UNK         0.0000 
     10 C10         0.7161   49.9289   23.9251 C.ar      1 UNK         0.0000 
     11 C11         0.0702   49.1445   24.8753 C.ar      1 UNK         0.0000 
     12 C12        -1.2589   48.7690   24.6877 C.ar      1 UNK         0.0000 
     13 C13        -1.9614   49.2116   23.5489 C.ar      1 UNK         0.0000 
     14 C14        -1.2986   50.0086   22.6089 C.ar      1 UNK         0.0000 
     15 C15        -3.4333   48.8858   23.3269 C.3       1 UNK         0.0000 
     16 N16        -1.8318   47.9742   25.6819 N.am      1 UNK         0.0000 
     17 C17        -2.2450   46.7068   25.5219 C.2       1 UNK         0.0000 
     18 O18        -2.1542   46.0980   24.4569 O.2       1 UNK         0.0000 
     19 C19        -2.7977   45.9938   26.7756 C.3       1 UNK         0.0000 
     20 N20        -4.2823   45.9671   26.8304 N.am      1 UNK         0.0000 
     21 C21        -4.9494   46.2407   27.9740 C.2       1 UNK         0.0000 
     22 O22        -4.4957   46.5104   29.0879 O.2       1 UNK         0.0000 
     23 C23        -6.4303   46.2065   27.6092 C.3       1 UNK         0.0000 
     24 C24        -7.0186   47.6379   27.7906 C.3       1 UNK         0.0000 
     25 C25        -8.5385   47.6707   27.5032 C.3       1 UNK         0.0000 
     26 H26        -8.7239   47.3004   26.4966 H         1 UNK         0.0000 
     27 C27        -9.2200   46.7330   28.5366 C.3       1 UNK         0.0000 
     28 C28        -8.7498   45.2510   28.4082 C.3       1 UNK         0.0000 
     29 C29        -7.1985   45.2668   28.5980 C.3       1 UNK         0.0000 
     30 C30        -9.3450   44.4680   29.6010 C.3       1 UNK         0.0000 
     31 C31        -9.1894   44.6171   27.0630 C.3       1 UNK         0.0000 
     32 C32        -9.0860   49.1054   27.5854 C.3       1 UNK         0.0000 
     33 N33        -6.3460   45.7602   26.2518 N.am      1 UNK         0.0000 
     34 C34        -5.1016   45.5451   25.8262 C.2       1 UNK         0.0000 
     35 O35        -4.8027   44.8963   24.8287 O.2       1 UNK         0.0000 
     36 H36         5.2339   53.9476   18.3661 H         1 UNK         0.0000 
     37 H37         3.7173   54.7256   18.7983 H         1 UNK         0.0000 
     38 H38         4.7935   54.1069   20.0546 H         1 UNK         0.0000 
     39 H39         4.3048   51.7085   19.3061 H         1 UNK         0.0000 
     40 H40         3.3672   52.3474   17.9371 H         1 UNK         0.0000 
     41 H41         1.2954   51.3792   18.4436 H         1 UNK         0.0000 
     42 H42         2.2715   50.3712   19.5541 H         1 UNK         0.0000 
     43 H43        -0.1875   50.2204   20.1361 H         1 UNK         0.0000 
     44 H44        -0.2767   51.9703   20.2472 H         1 UNK         0.0000 
     45 H45         0.8937   53.1580   22.0533 H         1 UNK         0.0000 
     46 H46         1.7904   52.2924   23.2695 H         1 UNK         0.0000 
     47 H47         3.2762   53.4156   21.5710 H         1 UNK         0.0000 
     48 H48         3.5167   51.6395   21.5054 H         1 UNK         0.0000 
     49 H49         1.7564   50.1710   24.0779 H         1 UNK         0.0000 
     50 H50         0.6147   48.8025   25.7455 H         1 UNK         0.0000 
     51 H51        -1.8399   50.3504   21.7385 H         1 UNK         0.0000 
     52 H52        -3.9017   49.5660   22.6136 H         1 UNK         0.0000 
     53 H53        -3.5520   47.8612   22.9679 H         1 UNK         0.0000 
     54 H54        -3.9900   48.9806   24.2585 H         1 UNK         0.0000 
     55 H55        -1.6968   48.2722   26.6515 H         1 UNK         0.0000 
     56 H56        -2.3935   46.4900   27.6605 H         1 UNK         0.0000 
     57 H57        -2.4059   44.9800   26.8160 H         1 UNK         0.0000 
     58 H58        -6.5383   48.3242   27.0919 H         1 UNK         0.0000 
     59 H59        -6.7699   48.0634   28.7655 H         1 UNK         0.0000 
     60 H60        -9.0371   47.1197   29.5423 H         1 UNK         0.0000 
     61 H61       -10.3045   46.7913   28.4270 H         1 UNK         0.0000 
     62 H62        -6.9334   45.5264   29.6259 H         1 UNK         0.0000 
     63 H63        -6.8415   44.2412   28.4812 H         1 UNK         0.0000 
     64 H64        -9.0196   43.4266   29.5973 H         1 UNK         0.0000 
     65 H65        -9.0571   44.8912   30.5640 H         1 UNK         0.0000 
     66 H66       -10.4357   44.4599   29.5678 H         1 UNK         0.0000 
     67 H67        -8.8102   43.5990   26.9695 H         1 UNK         0.0000 
     68 H68       -10.2766   44.5586   27.0044 H         1 UNK         0.0000 
     69 H69        -8.8621   45.1615   26.1797 H         1 UNK         0.0000 
     70 H70        -8.9257   49.5374   28.5729 H         1 UNK         0.0000 
     71 H71       -10.1561   49.1325   27.3822 H         1 UNK         0.0000 
     72 H72        -8.6004   49.7551   26.8573 H         1 UNK         0.0000 
     73 H73        -7.1335   45.8478   25.6266 H         1 UNK         0.0000 
     74 H74         1.8620   53.3246   19.6929 H         1 UNK         0.0000 
@<TRIPOS>BOND
     1    1    2 1    
     2    1   36 1    
     3    1   37 1    
     4    1   38 1    
     5    2    3 1    
     6    2   39 1    
     7    2   40 1    
     8    3    8 1    
     9    3    4 1    
    10    3   74 1    
    11    4    5 1    
    12    4   41 1    
    13    4   42 1    
    14    5    6 1    
    15    5   43 1    
    16    5   44 1    
    17    6    7 1    
    18    6    9 1    
    19    7    8 1    
    20    7   45 1    
    21    7   46 1    
    22    8   47 1    
    23    8   48 1    
    24    9   14 ar   
    25    9   10 ar   
    26   10   11 ar   
    27   10   49 1    
    28   11   12 ar   
    29   11   50 1    
    30   12   13 ar   
    31   12   16 1    
    32   13   14 ar   
    33   13   15 1    
    34   14   51 1    
    35   15   52 1    
    36   15   53 1    
    37   15   54 1    
    38   16   17 am   BACKBONE|DICT|INTERRES
    39   16   55 1    
    40   17   18 2    
    41   17   19 1    
    42   19   20 1    
    43   19   56 1    
    44   19   57 1    
    45   20   34 am   BACKBONE|DICT|INTERRES
    46   20   21 am   BACKBONE|DICT|INTERRES
    47   21   22 2    
    48   21   23 1    
    49   23   29 1    
    50   23   24 1    
    51   23   33 1    
    52   24   25 1    
    53   24   58 1    
    54   24   59 1    
    55   25   26 1    
    56   25   27 1    
    57   25   32 1    
    58   27   28 1    
    59   27   60 1    
    60   27   61 1    
    61   28   29 1    
    62   28   30 1    
    63   28   31 1    
    64   29   62 1    
    65   29   63 1    
    66   30   64 1    
    67   30   65 1    
    68   30   66 1    
    69   31   67 1    
    70   31   68 1    
    71   31   69 1    
    72   32   70 1    
    73   32   71 1    
    74   32   72 1    
    75   33   34 am   BACKBONE|DICT|INTERRES
    76   33   73 1    
    77   34   35 2    
@<TRIPOS>SUBSTRUCTURE
     1 UNK         1 GROUP             0       ****    0 ROOT    
