@<TRIPOS>MOLECULE
ZINC09696099_4264
41   42    1
SMALL
USER_CHARGES


@<TRIPOS>ATOM
      1 C1          5.7134   54.8696   18.9551 C.3       1 UNK         0.0000 
      2 C2          5.9044   54.8273   20.4592 C.ar      1 UNK         0.0000 
      3 C3          6.9505   55.5313   21.0554 C.ar      1 UNK         0.0000 
      4 C4          7.1031   55.5060   22.4394 C.ar      1 UNK         0.0000 
      5 C5          6.2209   54.7747   23.2494 C.ar      1 UNK         0.0000 
      6 C6          5.1825   54.0564   22.6291 C.ar      1 UNK         0.0000 
      7 C7          5.0238   54.0885   21.2467 C.ar      1 UNK         0.0000 
      8 C8          6.3339   54.8542   24.7615 C.2       1 UNK         0.0000 
      9 O9          7.0578   55.6966   25.2947 O.2       1 UNK         0.0000 
     10 N10         5.6074   53.9561   25.4543 N.am      1 UNK         0.0000 
     11 N11         5.5165   54.0654   26.8476 N.pl3     1 UNK         0.0000 
     12 C12         4.3072   53.9570   27.4801 C.2       1 UNK         0.0000 
     13 S13         4.3045   54.0967   29.1424 S.2       1 UNK         0.0000 
     14 N14         3.2191   53.6752   26.6856 N.am      1 UNK         0.0000 
     15 C15         1.8912   53.5686   26.9392 C.2       1 UNK         0.0000 
     16 O16         1.3240   53.9997   27.9462 O.2       1 UNK         0.0000 
     17 C17         1.1050   52.8968   25.8325 C.ar      1 UNK         0.0000 
     18 C18         1.4519   53.1407   24.4926 C.ar      1 UNK         0.0000 
     19 C19         0.7387   52.5590   23.4523 C.ar      1 UNK         0.0000 
     20 C20        -0.3503   51.7429   23.7267 C.ar      1 UNK         0.0000 
     21 C21        -0.7244   51.5076   25.0465 C.ar      1 UNK         0.0000 
     22 C22        -0.0081   52.0759   26.1173 C.ar      1 UNK         0.0000 
     23 O23        -0.3432   51.8471   27.4411 O.3       1 UNK         0.0000 
     24 C24        -1.5063   51.0896   27.7564 C.3       1 UNK         0.0000 
     25 Br25        1.2587   52.8894   21.6572 Br        1 UNK         0.0000 
     26 H26         6.1484   53.9847   18.4885 H         1 UNK         0.0000 
     27 H27         4.6514   54.8968   18.7066 H         1 UNK         0.0000 
     28 H28         6.1611   55.7635   18.5185 H         1 UNK         0.0000 
     29 H29         7.6424   56.0981   20.4503 H         1 UNK         0.0000 
     30 H30         7.9026   56.0883   22.8778 H         1 UNK         0.0000 
     31 H31         4.4621   53.4881   23.1985 H         1 UNK         0.0000 
     32 H32         4.2098   53.5460   20.7875 H         1 UNK         0.0000 
     33 H33         5.5092   53.0040   25.1313 H         1 UNK         0.0000 
     34 H34         6.3162   53.6361   27.2932 H         1 UNK         0.0000 
     35 H35         3.4659   53.3428   25.7681 H         1 UNK         0.0000 
     36 H36         2.2710   53.7958   24.2341 H         1 UNK         0.0000 
     37 H37        -0.9067   51.2920   22.9185 H         1 UNK         0.0000 
     38 H38        -1.5772   50.8685   25.2159 H         1 UNK         0.0000 
     39 H39        -1.5584   50.9314   28.8346 H         1 UNK         0.0000 
     40 H40        -2.4127   51.6141   27.4516 H         1 UNK         0.0000 
     41 H41        -1.4870   50.1101   27.2810 H         1 UNK         0.0000 
@<TRIPOS>BOND
     1    1    2 1    
     2    1   26 1    
     3    1   27 1    
     4    1   28 1    
     5    2    7 ar   
     6    2    3 ar   
     7    3    4 ar   
     8    3   29 1    
     9    4    5 ar   
    10    4   30 1    
    11    5    6 ar   
    12    5    8 1    
    13    6    7 ar   
    14    6   31 1    
    15    7   32 1    
    16    8    9 2    
    17    8   10 am   BACKBONE|DICT|INTERRES
    18   10   11 1    
    19   10   33 1    
    20   11   12 1    
    21   11   34 1    
    22   12   13 2    
    23   12   14 am   BACKBONE|DICT|INTERRES
    24   14   15 am   BACKBONE|DICT|INTERRES
    25   14   35 1    
    26   15   16 2    
    27   15   17 1    
    28   17   22 ar   
    29   17   18 ar   
    30   18   19 ar   
    31   18   36 1    
    32   19   20 ar   
    33   19   25 1    
    34   20   21 ar   
    35   20   37 1    
    36   21   22 ar   
    37   21   38 1    
    38   22   23 1    
    39   23   24 1    
    40   24   39 1    
    41   24   40 1    
    42   24   41 1    
@<TRIPOS>SUBSTRUCTURE
     1 UNK         1 GROUP             0       ****    0 ROOT    
