ZINC20560374_4773
                    3D
 Schrodinger Suite 2024-2.
 35 36  0  0  1  0            999 V2000
    2.4842   53.2887   22.3085 C   0  0  0  0  0  0
    3.6925   53.6975   23.1419 C   0  0  0  0  0  0
    4.8474   54.0971   22.4658 C   0  0  0  0  0  0
    5.9759   54.4966   23.1704 C   0  0  0  0  0  0
    5.9607   54.4968   24.5602 C   0  0  0  0  0  0
    4.8160   54.1087   25.2671 C   0  0  0  0  0  0
    3.6654   53.6968   24.5530 C   0  0  0  0  0  0
    2.4203   53.1889   25.2766 C   0  0  0  0  0  0
    4.9041   54.2319   27.0717 S   0  0  0  0  0  0
    5.0514   52.8968   27.6392 O   0  0  0  0  0  0
    5.9044   55.2641   27.3636 O   0  0  0  0  0  0
    3.3424   54.8976   27.5798 N   0  0  0  0  0  0
    2.5306   54.4352   28.6271 C   0  0  0  0  0  0
    2.3683   53.0805   28.9474 C   0  0  0  0  0  0
    1.4816   52.6995   29.9553 C   0  0  0  0  0  0
    0.7555   53.6619   30.6513 C   0  0  0  0  0  0
    0.9162   55.0074   30.3459 C   0  0  0  0  0  0
    1.7929   55.3936   29.3369 C   0  0  0  0  0  0
    1.9036   56.7091   29.0430 F   0  0  0  0  0  0
   -0.0928   53.2969   31.6304 F   0  0  0  0  0  0
    7.1040   54.9336   22.4817 N   0  0  0  0  0  0
    2.6245   53.5061   21.2493 H   0  0  0  0  0  0
    2.2864   52.2218   22.4146 H   0  0  0  0  0  0
    1.5959   53.8317   22.6328 H   0  0  0  0  0  0
    4.8620   54.1072   21.3852 H   0  0  0  0  0  0
    6.8435   54.8170   25.0930 H   0  0  0  0  0  0
    2.6928   52.6518   26.1810 H   0  0  0  0  0  0
    1.8625   52.4605   24.6903 H   0  0  0  0  0  0
    1.7535   54.0119   25.5334 H   0  0  0  0  0  0
    3.3333   55.9013   27.5025 H   0  0  0  0  0  0
    2.8924   52.3063   28.4104 H   0  0  0  0  0  0
    1.3413   51.6578   30.1917 H   0  0  0  0  0  0
    0.3499   55.7537   30.8817 H   0  0  0  0  0  0
    7.9840   55.0574   22.9815 H   0  0  0  0  0  0
    7.1022   54.8969   21.4732 H   0  0  0  0  0  0
  1  2  1  0  0  0
  1 22  1  0  0  0
  1 23  1  0  0  0
  1 24  1  0  0  0
  2  7  2  0  0  0
  2  3  1  0  0  0
  3  4  2  0  0  0
  3 25  1  0  0  0
  4  5  1  0  0  0
  4 21  1  0  0  0
  5  6  2  0  0  0
  5 26  1  0  0  0
  6  7  1  0  0  0
  6  9  1  0  0  0
  7  8  1  0  0  0
  8 27  1  0  0  0
  8 28  1  0  0  0
  8 29  1  0  0  0
  9 10  2  0  0  0
  9 11  2  0  0  0
  9 12  1  0  0  0
 12 13  1  0  0  0
 12 30  1  0  0  0
 13 18  2  0  0  0
 13 14  1  0  0  0
 14 15  2  0  0  0
 14 31  1  0  0  0
 15 16  1  0  0  0
 15 32  1  0  0  0
 16 17  2  0  0  0
 16 20  1  0  0  0
 17 18  1  0  0  0
 17 33  1  0  0  0
 18 19  1  0  0  0
 21 34  1  0  0  0
 21 35  1  0  0  0
M  END
> <i_i_glide_confnum>
13

> <i_i_glide_lignum>
4774

> <i_i_glide_posenum>
164

> <i_i_glide_rotatable_bonds>
3

> <i_m_Source_File_Index>
1638

> <b_m_subgroup_collapsed>
0

> <r_i_docking_score>
-5.31273

> <r_i_glide_ecoul>
-0.329304

> <r_i_glide_eff_state_penalty>
0

> <r_i_glide_einternal>
8.21058

> <r_i_glide_emodel>
-38.2895

> <r_i_glide_energy>
-33.4326

> <r_i_glide_erotb>
0.570708

> <r_i_glide_esite>
-0.0803529

> <r_i_glide_evdw>
-33.1033

> <r_i_glide_gscore>
-5.31273

> <r_i_glide_hbond>
-0.32

> <r_i_glide_ligand_efficiency>
-0.252987

> <r_i_glide_ligand_efficiency_ln>
-1.31356

> <r_i_glide_ligand_efficiency_sa>
-0.697973

> <r_i_glide_lipo>
-2.85305

> <r_i_glide_metal>
0

> <r_i_glide_rewards>
-0.92548

> <s_i_glide_gridfile>
wee1_glide-grid

> <s_m_Source_File>
wee1_decoys_glide_SP.sdf

> <s_m_Source_Path>
/Users/zhangxujun/Desktop

> <s_m_entry_id>
1913

> <s_m_entry_name>
wee1_decoys_glide_SP.1638

> <s_m_subgroup_title>
wee1_decoys_glide_SP

> <s_m_subgroupid>
wee1_decoys_glide_SP


$$$$
