@<TRIPOS>MOLECULE
ZINC21242387_2362
47   50    1
SMALL
USER_CHARGES


@<TRIPOS>ATOM
      1 C1          6.8798   56.2257   18.3502 C.ar      1 UNK         0.0000 
      2 C2          6.9376   56.8621   17.1136 C.ar      1 UNK         0.0000 
      3 C3          5.7763   57.0311   16.3621 C.ar      1 UNK         0.0000 
      4 C4          4.5503   56.5770   16.8487 C.ar      1 UNK         0.0000 
      5 C5          4.4885   55.9330   18.0812 C.ar      1 UNK         0.0000 
      6 C6          5.6488   55.7664   18.8407 C.ar      1 UNK         0.0000 
      7 N7          5.5064   55.1058   20.0707 N.am      1 UNK         0.0000 
      8 C8          6.2217   55.2966   21.1981 C.2       1 UNK         0.0000 
      9 O9          7.1523   56.0966   21.3006 O.2       1 UNK         0.0000 
     10 C10         5.7541   54.4639   22.3993 C.3       1 UNK         0.0000 
     11 S11         6.5745   54.8457   23.9889 S.3       1 UNK         0.0000 
     12 C12         5.4258   54.5349   25.2953 C.ar      1 UNK         0.0000 
     13 N13         5.8819   54.7508   26.5530 N.ar      1 UNK         0.0000 
     14 C14         5.0267   54.4927   27.5749 C.ar      1 UNK         0.0000 
     15 C15         3.7144   54.0175   27.3492 C.ar      1 UNK         0.0000 
     16 C16         2.6299   53.6719   28.2233 C.2       1 UNK         0.0000 
     17 C17         1.5289   53.2078   27.5034 C.2       1 UNK         0.0000 
     18 S18         1.7457   53.2604   25.7670 S.3       1 UNK         0.0000 
     19 C19         3.3749   53.8473   25.9776 C.ar      1 UNK         0.0000 
     20 N20         4.1883   54.0971   24.9503 N.ar      1 UNK         0.0000 
     21 C21         0.2155   52.7687   28.1334 C.3       1 UNK         0.0000 
     22 C22         0.4588   52.4074   29.6122 C.3       1 UNK         0.0000 
     23 C23         1.2349   53.5201   30.3366 C.3       1 UNK         0.0000 
     24 C24         2.6505   53.7422   29.7523 C.3       1 UNK         0.0000 
     25 N25         5.5044   54.7307   28.8602 N.pl3     1 UNK         0.0000 
     26 O26         5.8510   57.6603   15.1460 O.3       1 UNK         0.0000 
     27 C27         5.7850   56.7891   14.0227 C.3       1 UNK         0.0000 
     28 F28         6.3977   57.3626   12.9886 F         1 UNK         0.0000 
     29 F29         4.5179   56.5335   13.6937 F         1 UNK         0.0000 
     30 H30         7.7942   56.0867   18.9080 H         1 UNK         0.0000 
     31 H31         7.8827   57.2191   16.7333 H         1 UNK         0.0000 
     32 H32         3.6513   56.7212   16.2675 H         1 UNK         0.0000 
     33 H33         3.5333   55.5809   18.4451 H         1 UNK         0.0000 
     34 H34         4.7030   54.4985   20.1354 H         1 UNK         0.0000 
     35 H35         4.6804   54.6166   22.5044 H         1 UNK         0.0000 
     36 H36         5.9057   53.4069   22.1827 H         1 UNK         0.0000 
     37 H37        -0.5007   53.5872   28.0764 H         1 UNK         0.0000 
     38 H38        -0.2240   51.9234   27.6018 H         1 UNK         0.0000 
     39 H39        -0.4948   52.2281   30.1121 H         1 UNK         0.0000 
     40 H40         1.0117   51.4687   29.6766 H         1 UNK         0.0000 
     41 H41         0.6646   54.4486   30.2718 H         1 UNK         0.0000 
     42 H42         1.3033   53.2902   31.4006 H         1 UNK         0.0000 
     43 H43         3.3358   52.9897   30.1454 H         1 UNK         0.0000 
     44 H44         3.0200   54.7132   30.0817 H         1 UNK         0.0000 
     45 H45         4.9121   54.5489   29.6548 H         1 UNK         0.0000 
     46 H46         6.4356   55.1226   28.9851 H         1 UNK         0.0000 
     47 H47         6.2980   55.8386   14.1863 H         1 UNK         0.0000 
@<TRIPOS>BOND
     1    1    6 ar   
     2    1    2 ar   
     3    1   30 1    
     4    2    3 ar   
     5    2   31 1    
     6    3    4 ar   
     7    3   26 1    
     8    4    5 ar   
     9    4   32 1    
    10    5    6 ar   
    11    5   33 1    
    12    6    7 1    
    13    7    8 am   BACKBONE|DICT|INTERRES
    14    7   34 1    
    15    8    9 2    
    16    8   10 1    
    17   10   11 1    
    18   10   35 1    
    19   10   36 1    
    20   11   12 1    
    21   12   20 ar   
    22   12   13 ar   
    23   13   14 ar   
    24   14   15 ar   
    25   14   25 1    
    26   15   19 ar   
    27   15   16 1    
    28   16   24 1    
    29   16   17 2    
    30   17   18 1    
    31   17   21 1    
    32   18   19 1    
    33   19   20 ar   
    34   21   22 1    
    35   21   37 1    
    36   21   38 1    
    37   22   23 1    
    38   22   39 1    
    39   22   40 1    
    40   23   24 1    
    41   23   41 1    
    42   23   42 1    
    43   24   43 1    
    44   24   44 1    
    45   25   45 1    
    46   25   46 1    
    47   26   27 1    
    48   27   28 1    
    49   27   29 1    
    50   27   47 1    
@<TRIPOS>SUBSTRUCTURE
     1 UNK         1 GROUP             0       ****    0 ROOT    
