@<TRIPOS>MOLECULE
ZINC08435189_4109
50   53    1
SMALL
USER_CHARGES


@<TRIPOS>ATOM
      1 C1          2.3044   55.8650   30.0817 C.ar      1 UNK         0.0000 
      2 C2          1.4127   56.2168   29.1215 C.ar      1 UNK         0.0000 
      3 C3          1.1041   55.2966   28.1560 C.ar      1 UNK         0.0000 
      4 C4          1.6793   54.0312   28.1104 C.ar      1 UNK         0.0000 
      5 C5          2.6439   53.7381   29.0448 C.ar      1 UNK         0.0000 
      6 C6          3.0261   54.6650   29.9991 C.ar      1 UNK         0.0000 
      7 C7          3.0422   52.3536   28.8819 C.2       1 UNK         0.0000 
      8 O8          3.8339   51.6967   29.5540 O.2       1 UNK         0.0000 
      9 O9          2.3044   51.8531   27.8576 O.3       1 UNK         0.0000 
     10 C10         1.4297   52.8108   27.2475 C.3       1 UNK         0.0000 
     11 C11         1.8891   53.0044   25.7673 C.ar      1 UNK         0.0000 
     12 C12         1.5044   52.0968   24.7644 C.ar      1 UNK         0.0000 
     13 C13         1.9041   52.2717   23.4393 C.ar      1 UNK         0.0000 
     14 C14         2.7089   53.3611   23.1011 C.ar      1 UNK         0.0000 
     15 C15         3.1190   54.2577   24.0816 C.ar      1 UNK         0.0000 
     16 C16         2.7291   54.0705   25.4023 C.ar      1 UNK         0.0000 
     17 N17         3.1075   53.6047   21.7830 N.am      1 UNK         0.0000 
     18 C18         3.9045   52.8045   21.0414 C.2       1 UNK         0.0000 
     19 O19         4.2933   51.6964   21.4201 O.2       1 UNK         0.0000 
     20 C20         4.3036   53.3237   19.6441 C.3       1 UNK         0.0000 
     21 F21         5.5246   52.8967   19.3251 F         1 UNK         0.0000 
     22 F22         4.3044   54.6585   19.6139 F         1 UNK         0.0000 
     23 F23         3.4321   52.8712   18.7427 F         1 UNK         0.0000 
     24 C24        -0.0442   52.3553   27.4543 C.ar      1 UNK         0.0000 
     25 C25        -1.0271   52.4340   26.4530 C.ar      1 UNK         0.0000 
     26 C26        -2.2952   51.8895   26.6505 C.ar      1 UNK         0.0000 
     27 C27        -2.6148   51.2968   27.8783 C.ar      1 UNK         0.0000 
     28 C28        -1.6781   51.2967   28.9056 C.ar      1 UNK         0.0000 
     29 C29        -0.4052   51.8029   28.6915 C.ar      1 UNK         0.0000 
     30 N30        -3.8337   50.6607   28.1463 N.am      1 UNK         0.0000 
     31 C31        -5.0557   50.9711   27.6607 C.2       1 UNK         0.0000 
     32 O32        -5.2742   51.9467   26.9367 O.2       1 UNK         0.0000 
     33 C33        -6.2362   50.0911   28.1190 C.3       1 UNK         0.0000 
     34 F34        -6.9469   50.7597   29.0285 F         1 UNK         0.0000 
     35 F35        -7.0253   49.8151   27.0789 F         1 UNK         0.0000 
     36 F36        -5.8094   48.9468   28.6626 F         1 UNK         0.0000 
     37 H37         2.3044   56.5477   30.9186 H         1 UNK         0.0000 
     38 H38         0.8877   57.1563   29.1798 H         1 UNK         0.0000 
     39 H39         0.3044   55.6643   27.5773 H         1 UNK         0.0000 
     40 H40         3.8088   54.4117   30.6996 H         1 UNK         0.0000 
     41 H41         0.9018   51.2348   25.0123 H         1 UNK         0.0000 
     42 H42         1.5945   51.5636   22.6840 H         1 UNK         0.0000 
     43 H43         3.7578   55.0895   23.8289 H         1 UNK         0.0000 
     44 H44         3.1025   54.7699   26.1358 H         1 UNK         0.0000 
     45 H45         2.8395   54.4961   21.3853 H         1 UNK         0.0000 
     46 H46        -0.8184   52.8913   25.4985 H         1 UNK         0.0000 
     47 H47        -3.0092   51.9128   25.8410 H         1 UNK         0.0000 
     48 H48        -1.9122   50.8607   29.8674 H         1 UNK         0.0000 
     49 H49         0.3073   51.7383   29.5000 H         1 UNK         0.0000 
     50 H50        -3.7669   49.8959   28.8063 H         1 UNK         0.0000 
@<TRIPOS>BOND
     1    1    6 ar   
     2    1    2 ar   
     3    1   37 1    
     4    2    3 ar   
     5    2   38 1    
     6    3    4 ar   
     7    3   39 1    
     8    4   10 1    
     9    4    5 ar   
    10    5    6 ar   
    11    5    7 1    
    12    6   40 1    
    13    7    8 2    
    14    7    9 1    
    15    9   10 1    
    16   10   11 1    
    17   10   24 1    
    18   11   16 ar   
    19   11   12 ar   
    20   12   13 ar   
    21   12   41 1    
    22   13   14 ar   
    23   13   42 1    
    24   14   15 ar   
    25   14   17 1    
    26   15   16 ar   
    27   15   43 1    
    28   16   44 1    
    29   17   18 am   BACKBONE|DICT|INTERRES
    30   17   45 1    
    31   18   19 2    
    32   18   20 1    
    33   20   21 1    
    34   20   22 1    
    35   20   23 1    
    36   24   29 ar   
    37   24   25 ar   
    38   25   26 ar   
    39   25   46 1    
    40   26   27 ar   
    41   26   47 1    
    42   27   28 ar   
    43   27   30 1    
    44   28   29 ar   
    45   28   48 1    
    46   29   49 1    
    47   30   31 am   BACKBONE|DICT|INTERRES
    48   30   50 1    
    49   31   32 2    
    50   31   33 1    
    51   33   34 1    
    52   33   35 1    
    53   33   36 1    
@<TRIPOS>SUBSTRUCTURE
     1 UNK         1 GROUP             0       ****    0 ROOT    
