@<TRIPOS>MOLECULE
ZINC67081504_4612
46   48    1
SMALL
USER_CHARGES


@<TRIPOS>ATOM
      1 C1          2.7028   50.7326   22.1056 C.3       1 UNK         0.0000 
      2 C2          1.8678   49.9086   21.1529 C.2       1 UNK         0.0000 
      3 C3          2.2499   49.6895   19.8181 C.2       1 UNK         0.0000 
      4 C4          1.3543   48.9347   19.0848 C.2       1 UNK         0.0000 
      5 S5         -0.0257   48.4967   20.0198 S.3       1 UNK         0.0000 
      6 C6          0.6240   49.2964   21.4312 C.2       1 UNK         0.0000 
      7 C7         -0.1839   49.2974   22.6413 C.2       1 UNK         0.0000 
      8 O8         -1.3893   49.0313   22.6009 O.2       1 UNK         0.0000 
      9 N9          0.4768   49.6305   23.7709 N.am      1 UNK         0.0000 
     10 N10        -0.1990   49.5675   24.9924 N.am      1 UNK         0.0000 
     11 C11        -0.4033   50.7202   25.6608 C.2       1 UNK         0.0000 
     12 O12        -0.1495   51.8484   25.2272 O.2       1 UNK         0.0000 
     13 N13        -0.9197   50.4967   26.8814 N.am      1 UNK         0.0000 
     14 C14        -1.0860   51.4812   27.9534 C.3       1 UNK         0.0000 
     15 C15         0.1714   52.2492   28.3609 C.ar      1 UNK         0.0000 
     16 C16         0.0798   53.6137   28.6400 C.ar      1 UNK         0.0000 
     17 C17         1.2309   54.3608   28.8769 C.ar      1 UNK         0.0000 
     18 C18         2.4759   53.7374   28.8248 C.ar      1 UNK         0.0000 
     19 C19         2.5677   52.3602   28.6188 C.ar      1 UNK         0.0000 
     20 C20         1.4188   51.6199   28.3773 C.ar      1 UNK         0.0000 
     21 O21         3.6172   54.4958   28.9141 O.3       1 UNK         0.0000 
     22 C22         4.4845   54.4898   27.8399 C.ar      1 UNK         0.0000 
     23 C23         5.8514   54.4948   28.1029 C.ar      1 UNK         0.0000 
     24 C24         6.7647   54.4935   27.0550 C.ar      1 UNK         0.0000 
     25 C25         6.3131   54.4957   25.7371 C.ar      1 UNK         0.0000 
     26 C26         4.9486   54.4979   25.4601 C.ar      1 UNK         0.0000 
     27 C27         4.0344   54.4971   26.5103 C.ar      1 UNK         0.0000 
     28 H28         2.1104   51.5018   22.6022 H         1 UNK         0.0000 
     29 H29         3.1046   50.0972   22.8932 H         1 UNK         0.0000 
     30 H30         3.5328   51.2423   21.6154 H         1 UNK         0.0000 
     31 H31         3.1664   50.0745   19.3907 H         1 UNK         0.0000 
     32 H32         1.4394   48.6402   18.0481 H         1 UNK         0.0000 
     33 H33         1.4777   49.5460   23.8667 H         1 UNK         0.0000 
     34 H34        -0.0608   48.6869   25.4681 H         1 UNK         0.0000 
     35 H35        -1.2085   49.5530   27.1405 H         1 UNK         0.0000 
     36 H36        -1.8836   52.1612   27.6552 H         1 UNK         0.0000 
     37 H37        -1.4576   50.9517   28.8325 H         1 UNK         0.0000 
     38 H38        -0.8863   54.0964   28.6251 H         1 UNK         0.0000 
     39 H39         1.1644   55.4268   29.0415 H         1 UNK         0.0000 
     40 H40         3.5347   51.8809   28.5825 H         1 UNK         0.0000 
     41 H41         1.5060   50.5669   28.1526 H         1 UNK         0.0000 
     42 H42         6.2064   54.4963   29.1232 H         1 UNK         0.0000 
     43 H43         7.8214   54.4903   27.2753 H         1 UNK         0.0000 
     44 H44         7.0243   54.4915   24.9232 H         1 UNK         0.0000 
     45 H45         4.6001   54.4987   24.4375 H         1 UNK         0.0000 
     46 H46         2.9771   54.4988   26.2911 H         1 UNK         0.0000 
@<TRIPOS>BOND
     1    1    2 1    
     2    1   28 1    
     3    1   29 1    
     4    1   30 1    
     5    2    6 2    
     6    2    3 1    
     7    3    4 2    
     8    3   31 1    
     9    4    5 1    
    10    4   32 1    
    11    5    6 1    
    12    6    7 1    
    13    7    8 2    
    14    7    9 am   BACKBONE|DICT|INTERRES
    15    9   10 1    
    16    9   33 1    
    17   10   11 am   BACKBONE|DICT|INTERRES
    18   10   34 1    
    19   11   12 2    
    20   11   13 am   BACKBONE|DICT|INTERRES
    21   13   14 1    
    22   13   35 1    
    23   14   15 1    
    24   14   36 1    
    25   14   37 1    
    26   15   20 ar   
    27   15   16 ar   
    28   16   17 ar   
    29   16   38 1    
    30   17   18 ar   
    31   17   39 1    
    32   18   19 ar   
    33   18   21 1    
    34   19   20 ar   
    35   19   40 1    
    36   20   41 1    
    37   21   22 1    
    38   22   27 ar   
    39   22   23 ar   
    40   23   24 ar   
    41   23   42 1    
    42   24   25 ar   
    43   24   43 1    
    44   25   26 ar   
    45   25   44 1    
    46   26   27 ar   
    47   26   45 1    
    48   27   46 1    
@<TRIPOS>SUBSTRUCTURE
     1 UNK         1 GROUP             0       ****    0 ROOT    
