@<TRIPOS>MOLECULE
ZINC14276621_3163
66   69    1
SMALL
USER_CHARGES


@<TRIPOS>ATOM
      1 C1          1.1045   52.4965   31.4112 C.3       1 UNK         0.0000 
      2 C2          1.3928   52.9936   29.9910 C.3       1 UNK         0.0000 
      3 C3          0.3980   54.0967   29.6015 C.3       1 UNK         0.0000 
      4 O4          2.7357   53.4891   29.9596 O.3       1 UNK         0.0000 
      5 C5          3.3810   53.7059   28.7512 C.ar      1 UNK         0.0000 
      6 C6          2.8357   53.4235   27.4903 C.ar      1 UNK         0.0000 
      7 C7          3.5501   53.7054   26.3273 C.ar      1 UNK         0.0000 
      8 C8          4.8387   54.2636   26.3928 C.ar      1 UNK         0.0000 
      9 C9          5.3916   54.5013   27.6594 C.ar      1 UNK         0.0000 
     10 C10         4.6642   54.2439   28.8181 C.ar      1 UNK         0.0000 
     11 C11         5.6291   54.6381   25.1462 C.2       1 UNK         0.0000 
     12 O12         6.7045   55.2316   25.2707 O.2       1 UNK         0.0000 
     13 N13         5.0678   54.2823   23.9575 N.am      1 UNK         0.0000 
     14 C14         5.4170   54.4882   22.6415 C.2       1 UNK         0.0000 
     15 S15         6.7825   55.2967   22.0817 S.2       1 UNK         0.0000 
     16 N16         4.4913   53.9043   21.8169 N.pl3     1 UNK         0.0000 
     17 C17         4.3531   53.8206   20.4133 C.ar      1 UNK         0.0000 
     18 C18         4.6900   54.8507   19.5253 C.ar      1 UNK         0.0000 
     19 C19         4.4298   54.7172   18.1660 C.ar      1 UNK         0.0000 
     20 C20         3.8361   53.5560   17.6552 C.ar      1 UNK         0.0000 
     21 C21         3.5042   52.5323   18.5538 C.ar      1 UNK         0.0000 
     22 C22         3.7604   52.6605   19.9166 C.ar      1 UNK         0.0000 
     23 N23         3.5322   53.4405   16.2975 N.pl3     1 UNK         0.0000 
     24 C24         3.5690   54.5875   15.3677 C.3       1 UNK         0.0000 
     25 C25         3.0825   54.3257   13.9175 C.3       1 UNK         0.0000 
     26 N26         2.0815   53.2472   13.9314 N.am      1 UNK         0.0000 
     27 C27         2.5423   51.9538   14.4818 C.3       1 UNK         0.0000 
     28 C28         3.6371   52.1694   15.5629 C.3       1 UNK         0.0000 
     29 C29         0.9831   53.3451   13.1302 C.2       1 UNK         0.0000 
     30 O30         0.8072   54.2846   12.3497 O.2       1 UNK         0.0000 
     31 C31        -0.0834   52.2761   13.2027 C.ar      1 UNK         0.0000 
     32 C32        -0.5881   51.7229   12.0185 C.ar      1 UNK         0.0000 
     33 C33        -1.5910   50.7578   12.0666 C.ar      1 UNK         0.0000 
     34 C34        -2.1001   50.3525   13.2965 C.ar      1 UNK         0.0000 
     35 C35        -1.6240   50.9105   14.4803 C.ar      1 UNK         0.0000 
     36 C36        -0.6235   51.8771   14.4329 C.ar      1 UNK         0.0000 
     37 H37         0.1214   52.0255   31.4649 H         1 UNK         0.0000 
     38 H38         1.1044   53.3053   32.1402 H         1 UNK         0.0000 
     39 H39         1.8394   51.7587   31.7333 H         1 UNK         0.0000 
     40 H40         1.2878   52.1354   29.3257 H         1 UNK         0.0000 
     41 H41        -0.6256   53.7299   29.6551 H         1 UNK         0.0000 
     42 H42         0.4775   54.9494   30.2749 H         1 UNK         0.0000 
     43 H43         0.5584   54.4665   28.5908 H         1 UNK         0.0000 
     44 H44         1.8515   52.9964   27.3854 H         1 UNK         0.0000 
     45 H45         3.0697   53.4924   25.3836 H         1 UNK         0.0000 
     46 H46         6.3795   54.9297   27.7642 H         1 UNK         0.0000 
     47 H47         5.1004   54.4889   29.7737 H         1 UNK         0.0000 
     48 H48         4.1981   53.7892   24.0750 H         1 UNK         0.0000 
     49 H49         3.7862   53.3610   22.2921 H         1 UNK         0.0000 
     50 H50         5.1088   55.7815   19.8679 H         1 UNK         0.0000 
     51 H51         4.6884   55.5394   17.5165 H         1 UNK         0.0000 
     52 H52         3.0361   51.6228   18.2074 H         1 UNK         0.0000 
     53 H53         3.4840   51.8521   20.5779 H         1 UNK         0.0000 
     54 H54         2.8868   55.3222   15.7958 H         1 UNK         0.0000 
     55 H55         4.5830   54.9840   15.3103 H         1 UNK         0.0000 
     56 H56         2.7888   55.2405   13.4012 H         1 UNK         0.0000 
     57 H57         3.9220   53.9202   13.3510 H         1 UNK         0.0000 
     58 H58         2.9393   51.2801   13.7225 H         1 UNK         0.0000 
     59 H59         1.7355   51.4993   15.0499 H         1 UNK         0.0000 
     60 H60         4.6134   52.2146   15.0771 H         1 UNK         0.0000 
     61 H61         3.6843   51.3059   16.2235 H         1 UNK         0.0000 
     62 H62        -0.2012   52.0344   11.0588 H         1 UNK         0.0000 
     63 H63        -1.9728   50.3284   11.1524 H         1 UNK         0.0000 
     64 H64        -2.8775   49.6040   13.3331 H         1 UNK         0.0000 
     65 H65        -2.0313   50.5976   15.4300 H         1 UNK         0.0000 
     66 H66        -0.2767   52.3180   15.3576 H         1 UNK         0.0000 
@<TRIPOS>BOND
     1    1    2 1    
     2    1   37 1    
     3    1   38 1    
     4    1   39 1    
     5    2    3 1    
     6    2    4 1    
     7    2   40 1    
     8    3   41 1    
     9    3   42 1    
    10    3   43 1    
    11    4    5 1    
    12    5   10 ar   
    13    5    6 ar   
    14    6    7 ar   
    15    6   44 1    
    16    7    8 ar   
    17    7   45 1    
    18    8    9 ar   
    19    8   11 1    
    20    9   10 ar   
    21    9   46 1    
    22   10   47 1    
    23   11   12 2    
    24   11   13 am   BACKBONE|DICT|INTERRES
    25   13   14 am   BACKBONE|DICT|INTERRES
    26   13   48 1    
    27   14   15 2    
    28   14   16 1    
    29   16   17 1    
    30   16   49 1    
    31   17   22 ar   
    32   17   18 ar   
    33   18   19 ar   
    34   18   50 1    
    35   19   20 ar   
    36   19   51 1    
    37   20   21 ar   
    38   20   23 1    
    39   21   22 ar   
    40   21   52 1    
    41   22   53 1    
    42   23   28 1    
    43   23   24 1    
    44   24   25 1    
    45   24   54 1    
    46   24   55 1    
    47   25   26 1    
    48   25   56 1    
    49   25   57 1    
    50   26   27 1    
    51   26   29 am   BACKBONE|DICT|INTERRES
    52   27   28 1    
    53   27   58 1    
    54   27   59 1    
    55   28   60 1    
    56   28   61 1    
    57   29   30 2    
    58   29   31 1    
    59   31   36 ar   
    60   31   32 ar   
    61   32   33 ar   
    62   32   62 1    
    63   33   34 ar   
    64   33   63 1    
    65   34   35 ar   
    66   34   64 1    
    67   35   36 ar   
    68   35   65 1    
    69   36   66 1    
@<TRIPOS>SUBSTRUCTURE
     1 UNK         1 GROUP             0       ****    0 ROOT    
