ZINC64921750_3294
                    3D
 Schrodinger Suite 2024-2.
 56 59  0  0  1  0            999 V2000
   -3.6961   55.7785   14.6635 C   0  0  0  0  0  0
   -2.4745   56.7028   14.8338 C   0  0  0  0  0  0
   -2.1229   57.0826   16.3010 C   0  0  1  0  0  0
   -3.0150   57.4844   16.7817 H   0  0  0  0  0  0
   -1.6958   55.8027   17.0980 C   0  0  0  0  0  0
   -2.4775   55.0518   17.6808 O   0  0  0  0  0  0
   -0.3654   55.5860   17.0448 N   0  0  0  0  0  0
    0.5682   56.3991   16.4047 C   0  0  0  0  0  0
    1.8635   55.9596   16.1341 C   0  0  0  0  0  0
    2.7636   56.8149   15.4884 C   0  0  0  0  0  0
    2.3681   58.1138   15.1343 C   0  0  0  0  0  0
    1.0664   58.5468   15.3913 C   0  0  0  0  0  0
    0.1738   57.6827   16.0209 C   0  0  0  0  0  0
   -1.1034   58.1149   16.3226 O   0  0  0  0  0  0
    4.3982   56.2198   15.0630 S   0  0  0  0  0  0
    5.0625   57.2960   14.3164 O   0  0  0  0  0  0
    4.2046   54.8962   14.4607 O   0  0  0  0  0  0
    5.2514   56.0089   16.5996 N   0  0  0  0  0  0
    5.0883   54.7610   17.3758 C   0  0  0  0  0  0
    6.4556   54.3989   17.9905 C   0  0  0  0  0  0
    7.1230   55.5632   18.8059 C   0  0  0  0  0  0
    6.9970   56.9327   18.0517 C   0  0  0  0  0  0
    5.6183   57.1924   17.4049 C   0  0  0  0  0  0
    6.5331   55.7001   20.2427 C   0  0  0  0  0  0
    6.7044   56.7432   20.8808 O   0  0  0  0  0  0
    5.8777   54.6381   20.7587 N   0  0  0  0  0  0
    5.4409   54.4967   22.0768 C   0  0  0  0  0  0
    6.3076   54.7169   23.1566 C   0  0  0  0  0  0
    5.8405   54.5544   24.4558 C   0  0  0  0  0  0
    4.5143   54.1866   24.6733 C   0  0  0  0  0  0
    3.6540   53.9585   23.5975 C   0  0  0  0  0  0
    4.1221   54.0966   22.2954 C   0  0  0  0  0  0
    3.9296   54.0139   26.2873 Cl  0  0  0  0  0  0
   -3.9272   55.6263   13.6075 H   0  0  0  0  0  0
   -3.5252   54.7931   15.1003 H   0  0  0  0  0  0
   -4.5856   56.1986   15.1351 H   0  0  0  0  0  0
   -2.6726   57.6240   14.2866 H   0  0  0  0  0  0
   -1.6132   56.2584   14.3320 H   0  0  0  0  0  0
   -0.0628   54.7301   17.4884 H   0  0  0  0  0  0
    2.1690   54.9573   16.4058 H   0  0  0  0  0  0
    3.0599   58.7852   14.6471 H   0  0  0  0  0  0
    0.7615   59.5483   15.1236 H   0  0  0  0  0  0
    4.7140   53.9661   16.7314 H   0  0  0  0  0  0
    4.3586   54.9356   18.1666 H   0  0  0  0  0  0
    7.1591   54.1016   17.2114 H   0  0  0  0  0  0
    6.4454   53.4572   18.5408 H   0  0  0  0  0  0
    8.1748   55.3839   19.0371 H   0  0  0  0  0  0
    7.3311   57.7729   18.6650 H   0  0  0  0  0  0
    7.7877   56.9678   17.2995 H   0  0  0  0  0  0
    5.6235   58.0843   16.7770 H   0  0  0  0  0  0
    4.8705   57.3238   18.1846 H   0  0  0  0  0  0
    5.5867   53.9166   20.1171 H   0  0  0  0  0  0
    7.3363   55.0138   22.9867 H   0  0  0  0  0  0
    6.5032   54.7202   25.2945 H   0  0  0  0  0  0
    2.6274   53.6730   23.7739 H   0  0  0  0  0  0
    3.4513   53.9237   21.4624 H   0  0  0  0  0  0
  1  2  1  0  0  0
  1 34  1  0  0  0
  1 35  1  0  0  0
  1 36  1  0  0  0
  2  3  1  0  0  0
  2 37  1  0  0  0
  2 38  1  0  0  0
  3  4  1  0  0  0
  3 14  1  0  0  0
  3  5  1  0  0  0
  5  6  2  0  0  0
  5  7  1  0  0  0
  7  8  1  0  0  0
  7 39  1  0  0  0
  8 13  2  0  0  0
  8  9  1  0  0  0
  9 10  2  0  0  0
  9 40  1  0  0  0
 10 11  1  0  0  0
 10 15  1  0  0  0
 11 12  2  0  0  0
 11 41  1  0  0  0
 12 13  1  0  0  0
 12 42  1  0  0  0
 13 14  1  0  0  0
 15 16  2  0  0  0
 15 17  2  0  0  0
 15 18  1  0  0  0
 18 23  1  0  0  0
 18 19  1  0  0  0
 19 20  1  0  0  0
 19 43  1  0  0  0
 19 44  1  0  0  0
 20 21  1  0  0  0
 20 45  1  0  0  0
 20 46  1  0  0  0
 21 22  1  0  0  0
 21 24  1  0  0  0
 21 47  1  0  0  0
 22 23  1  0  0  0
 22 48  1  0  0  0
 22 49  1  0  0  0
 23 50  1  0  0  0
 23 51  1  0  0  0
 24 25  2  0  0  0
 24 26  1  0  0  0
 26 27  1  0  0  0
 26 52  1  0  0  0
 27 32  2  0  0  0
 27 28  1  0  0  0
 28 29  2  0  0  0
 28 53  1  0  0  0
 29 30  1  0  0  0
 29 54  1  0  0  0
 30 31  2  0  0  0
 30 33  1  0  0  0
 31 32  1  0  0  0
 31 55  1  0  0  0
 32 56  1  0  0  0
M  END
> <i_i_glide_confnum>
213

> <i_i_glide_lignum>
3295

> <i_i_glide_posenum>
296

> <i_i_glide_rotatable_bonds>
6

> <i_m_Source_File_Index>
5170

> <b_m_subgroup_collapsed>
0

> <r_i_docking_score>
-4.42498

> <r_i_glide_ecoul>
-8.31015

> <r_i_glide_eff_state_penalty>
0

> <r_i_glide_einternal>
6.80586

> <r_i_glide_emodel>
-50.7684

> <r_i_glide_energy>
-42.6335

> <r_i_glide_erotb>
0.443449

> <r_i_glide_esite>
-0.0295062

> <r_i_glide_evdw>
-34.3233

> <r_i_glide_gscore>
-4.42498

> <r_i_glide_hbond>
-0.582107

> <r_i_glide_ligand_efficiency>
-0.138281

> <r_i_glide_ligand_efficiency_ln>
-0.990874

> <r_i_glide_ligand_efficiency_sa>
-0.439014

> <r_i_glide_lipo>
-1.76723

> <r_i_glide_metal>
0

> <r_i_glide_rewards>
0.473105

> <s_i_glide_gridfile>
wee1_glide-grid

> <s_m_Source_File>
wee1_decoys_glide_SP.sdf

> <s_m_Source_Path>
/Users/zhangxujun/Desktop

> <s_m_entry_id>
5445

> <s_m_entry_name>
wee1_decoys_glide_SP.5170

> <s_m_subgroup_title>
wee1_decoys_glide_SP

> <s_m_subgroupid>
wee1_decoys_glide_SP


$$$$
