ZINC11881114_3457
                    3D
 Schrodinger Suite 2024-2.
 66 69  0  0  1  0            999 V2000
    3.7482   52.8252   29.8115 C   0  0  0  0  0  0
    4.3280   53.3757   28.5219 C   0  0  0  0  0  0
    5.6776   53.7011   28.4251 C   0  0  0  0  0  0
    6.2137   54.1630   27.2342 C   0  0  0  0  0  0
    5.4090   54.3211   26.1018 C   0  0  0  0  0  0
    4.0254   54.0289   26.1978 C   0  0  0  0  0  0
    3.5090   53.5585   27.4112 C   0  0  0  0  0  0
    3.0388   54.2086   25.0444 C   0  0  0  0  0  0
    6.0813   54.8142   24.8435 C   0  0  0  0  0  0
    6.9356   55.6973   24.9318 O   0  0  0  0  0  0
    5.6981   54.2118   23.6934 N   0  0  0  0  0  0
    5.9915   54.6018   22.3743 C   0  0  0  0  0  0
    7.1029   55.3745   22.0263 C   0  0  0  0  0  0
    7.2571   55.8378   20.7283 C   0  0  0  0  0  0
    6.2986   55.5640   19.7486 C   0  0  0  0  0  0
    5.2328   54.7142   20.0805 C   0  0  0  0  0  0
    5.0866   54.2233   21.3779 C   0  0  0  0  0  0
    6.3881   56.2036   18.5115 N   0  0  0  0  0  0
    7.6707   56.3785   17.8045 C   0  0  0  0  0  0
    7.7376   57.7670   17.1337 C   0  0  0  0  0  0
    6.6134   57.9484   16.0986 C   0  0  0  0  0  0
    5.2664   57.6353   16.7797 C   0  0  0  0  0  0
    5.2643   56.2988   17.5608 C   0  0  0  0  0  0
    5.7173   59.8043   14.4467 C   0  0  2  0  0  0
    4.7085   59.7355   14.8605 H   0  0  0  0  0  0
    5.8983   58.8088   13.2786 C   0  0  0  0  0  0
    6.0191   61.2665   14.0528 C   0  0  0  0  0  0
    5.0238   61.8150   13.0496 C   0  0  0  0  0  0
    5.1780   61.7945   11.6530 C   0  0  0  0  0  0
    4.1056   62.3439   10.9621 C   0  0  0  0  0  0
    2.8751   62.9227   12.0304 S   0  0  0  0  0  0
    3.8139   62.4110   13.3928 C   0  0  0  0  0  0
    4.2874   53.1881   30.6864 H   0  0  0  0  0  0
    2.7084   53.1350   29.9274 H   0  0  0  0  0  0
    3.7844   51.7357   29.7985 H   0  0  0  0  0  0
    6.3518   53.5863   29.2501 H   0  0  0  0  0  0
    7.2717   54.3848   27.1979 H   0  0  0  0  0  0
    2.4614   53.3083   27.4875 H   0  0  0  0  0  0
    2.0013   54.1568   25.3791 H   0  0  0  0  0  0
    3.1654   55.1800   24.5640 H   0  0  0  0  0  0
    3.1843   53.4346   24.2913 H   0  0  0  0  0  0
    5.0067   53.4853   23.7948 H   0  0  0  0  0  0
    7.8581   55.6646   22.7420 H   0  0  0  0  0  0
    8.1110   56.4594   20.5124 H   0  0  0  0  0  0
    4.4890   54.4480   19.3421 H   0  0  0  0  0  0
    4.2371   53.5941   21.6059 H   0  0  0  0  0  0
    7.7532   55.5860   17.0575 H   0  0  0  0  0  0
    8.5337   56.2587   18.4589 H   0  0  0  0  0  0
    8.7144   57.9580   16.6860 H   0  0  0  0  0  0
    7.6496   58.5229   17.9178 H   0  0  0  0  0  0
    6.8284   57.2537   15.2857 H   0  0  0  0  0  0
    5.0033   58.4333   17.4778 H   0  0  0  0  0  0
    4.4569   57.6655   16.0491 H   0  0  0  0  0  0
    5.2866   55.4433   16.8840 H   0  0  0  0  0  0
    4.3213   56.2544   18.1067 H   0  0  0  0  0  0
    5.3194   59.1125   12.4068 H   0  0  0  0  0  0
    6.9396   58.7325   12.9622 H   0  0  0  0  0  0
    5.5491   57.8095   13.5397 H   0  0  0  0  0  0
    7.0393   61.3667   13.6795 H   0  0  0  0  0  0
    5.9944   61.8945   14.9451 H   0  0  0  0  0  0
    6.0449   61.3787   11.1605 H   0  0  0  0  0  0
    3.9832   62.4346    9.8922 H   0  0  0  0  0  0
    3.4367   62.5545   14.3969 H   0  0  0  0  0  0
    6.6320   59.4230   15.6331 N   0  3  0  0  0  0
    7.5851   59.6811   15.4245 H   0  0  0  0  0  0
    6.3694   60.0147   16.4200 H   0  0  0  0  0  0
  1  2  1  0  0  0
  1 33  1  0  0  0
  1 34  1  0  0  0
  1 35  1  0  0  0
  2  7  2  0  0  0
  2  3  1  0  0  0
  3  4  2  0  0  0
  3 36  1  0  0  0
  4  5  1  0  0  0
  4 37  1  0  0  0
  5  6  2  0  0  0
  5  9  1  0  0  0
  6  7  1  0  0  0
  6  8  1  0  0  0
  7 38  1  0  0  0
  8 39  1  0  0  0
  8 40  1  0  0  0
  8 41  1  0  0  0
  9 10  2  0  0  0
  9 11  1  0  0  0
 11 12  1  0  0  0
 11 42  1  0  0  0
 12 17  2  0  0  0
 12 13  1  0  0  0
 13 14  2  0  0  0
 13 43  1  0  0  0
 14 15  1  0  0  0
 14 44  1  0  0  0
 15 16  2  0  0  0
 15 18  1  0  0  0
 16 17  1  0  0  0
 16 45  1  0  0  0
 17 46  1  0  0  0
 18 23  1  0  0  0
 18 19  1  0  0  0
 19 20  1  0  0  0
 19 47  1  0  0  0
 19 48  1  0  0  0
 20 21  1  0  0  0
 20 49  1  0  0  0
 20 50  1  0  0  0
 21 22  1  0  0  0
 21 51  1  0  0  0
 21 64  1  0  0  0
 22 23  1  0  0  0
 22 52  1  0  0  0
 22 53  1  0  0  0
 23 54  1  0  0  0
 23 55  1  0  0  0
 24 25  1  0  0  0
 24 26  1  0  0  0
 24 27  1  0  0  0
 24 64  1  0  0  0
 26 56  1  0  0  0
 26 57  1  0  0  0
 26 58  1  0  0  0
 27 28  1  0  0  0
 27 59  1  0  0  0
 27 60  1  0  0  0
 28 32  2  0  0  0
 28 29  1  0  0  0
 29 30  2  0  0  0
 29 61  1  0  0  0
 30 31  1  0  0  0
 30 62  1  0  0  0
 31 32  1  0  0  0
 32 63  1  0  0  0
 64 65  1  0  0  0
 64 66  1  0  0  0
M  CHG  1  64   1
M  END
> <i_i_glide_confnum>
153

> <i_i_glide_lignum>
3458

> <i_i_glide_posenum>
12

> <i_i_glide_rotatable_bonds>
8

> <i_m_Source_File_Index>
1628

> <b_m_subgroup_collapsed>
0

> <r_i_docking_score>
-6.18507

> <r_i_glide_ecoul>
-5.15878

> <r_i_glide_eff_state_penalty>
0

> <r_i_glide_einternal>
5.80935

> <r_i_glide_emodel>
-60.0506

> <r_i_glide_energy>
-42.5253

> <r_i_glide_erotb>
0.69674

> <r_i_glide_esite>
-0.0851821

> <r_i_glide_evdw>
-37.3665

> <r_i_glide_gscore>
-6.18507

> <r_i_glide_hbond>
-0.476996

> <r_i_glide_ligand_efficiency>
-0.193283

> <r_i_glide_ligand_efficiency_ln>
-1.38501

> <r_i_glide_ligand_efficiency_sa>
-0.613637

> <r_i_glide_lipo>
-2.8113

> <r_i_glide_metal>
0

> <r_i_glide_rewards>
-0.866187

> <s_i_glide_gridfile>
wee1_glide-grid

> <s_m_Source_File>
wee1_decoys_glide_SP.sdf

> <s_m_Source_Path>
/Users/zhangxujun/Desktop

> <s_m_entry_id>
1903

> <s_m_entry_name>
wee1_decoys_glide_SP.1628

> <s_m_subgroup_title>
wee1_decoys_glide_SP

> <s_m_subgroupid>
wee1_decoys_glide_SP


$$$$
