ZINC34716129_4627
                    3D
 Schrodinger Suite 2024-2.
 77 81  0  0  1  0            999 V2000
    0.6882   54.1917   28.5855 C   0  0  0  0  0  0
    1.9154   53.3449   28.1415 C   0  0  1  0  0  0
    1.4404   51.9029   27.7802 C   0  0  0  0  0  0
    0.6340   51.8249   26.4693 C   0  0  0  0  0  0
    1.4260   52.3697   25.2483 C   0  0  2  0  0  0
    2.3043   51.7595   25.1154 H   0  0  0  0  0  0
    1.9584   53.8088   25.5311 C   0  0  1  0  0  0
    1.1051   54.4635   25.5238 H   0  0  0  0  0  0
    2.6648   53.9811   26.9227 C   0  0  2  0  0  0
    2.7266   55.0486   27.1383 H   0  0  0  0  0  0
    4.1000   53.4426   27.0224 C   0  0  0  0  0  0
    4.3701   53.1212   28.4968 C   0  0  0  0  0  0
    3.0385   53.3285   29.2461 C   0  0  2  0  0  0
    2.8463   52.3184   30.3980 C   0  0  0  0  0  0
    3.1117   54.5574   29.9416 O   0  0  0  0  0  0
    2.8502   54.2648   24.3536 C   0  0  0  0  0  0
    2.0959   54.2203   23.0154 C   0  0  0  0  0  0
    1.6064   52.7969   22.7724 C   0  0  0  0  0  0
    2.0016   52.0770   21.6968 C   0  0  0  0  0  0
    1.6378   50.7165   21.4160 C   0  0  0  0  0  0
    2.0251   50.1703   20.3310 N   0  0  0  0  0  0
    1.5233   48.8575   20.1643 O   0  0  0  0  0  0
    1.4338   48.5343   18.7722 C   0  0  0  0  0  0
    0.1293   49.0622   18.1351 C   0  0  0  0  0  0
   -0.2356   48.6124   17.0490 O   0  0  0  0  0  0
   -0.5673   49.9992   18.8009 N   0  0  0  0  0  0
   -1.8293   50.6248   18.3816 C   0  0  1  0  0  0
   -1.7608   50.9335   17.3371 H   0  0  0  0  0  0
   -3.0081   49.6305   18.5881 C   0  0  0  0  0  0
   -4.3703   50.0877   18.0873 C   0  0  0  0  0  0
   -5.2463   50.7884   18.9455 C   0  0  0  0  0  0
   -6.4464   51.2877   18.4608 C   0  0  0  0  0  0
   -6.7867   51.1168   17.1246 C   0  0  0  0  0  0
   -5.9190   50.4617   16.2585 C   0  0  0  0  0  0
   -4.7093   49.9603   16.7215 C   0  0  0  0  0  0
   -2.0645   51.9021   19.2573 C   0  0  0  0  0  0
   -2.4962   52.8957   18.6322 O   0  0  0  0  0  0
   -1.8306   51.7867   20.4830 O   0  5  0  0  0  0
    0.8152   50.1132   22.4398 C   0  0  0  0  0  0
    0.3756   50.7534   23.5416 C   0  0  0  0  0  0
    0.6683   52.2283   23.8812 C   0  0  1  0  0  0
   -0.6902   52.9719   23.8503 C   0  0  0  0  0  0
    0.9169   55.2577   28.6416 H   0  0  0  0  0  0
   -0.1681   54.0921   27.9246 H   0  0  0  0  0  0
    0.3417   53.8853   29.5729 H   0  0  0  0  0  0
    0.8643   51.4747   28.6012 H   0  0  0  0  0  0
    2.3045   51.2498   27.6819 H   0  0  0  0  0  0
   -0.3112   52.3532   26.5734 H   0  0  0  0  0  0
    0.3511   50.7858   26.3010 H   0  0  0  0  0  0
    4.1736   52.5057   26.4831 H   0  0  0  0  0  0
    4.8365   54.1187   26.5857 H   0  0  0  0  0  0
    4.7292   52.0970   28.5951 H   0  0  0  0  0  0
    5.1675   53.7653   28.8753 H   0  0  0  0  0  0
    2.8966   51.2971   30.0270 H   0  0  0  0  0  0
    3.6248   52.4141   31.1593 H   0  0  0  0  0  0
    1.8820   52.4432   30.8933 H   0  0  0  0  0  0
    3.2389   55.2518   29.2905 H   0  0  0  0  0  0
    3.7592   53.6645   24.3007 H   0  0  0  0  0  0
    3.1922   55.2837   24.5351 H   0  0  0  0  0  0
    2.7491   54.5527   22.2063 H   0  0  0  0  0  0
    1.2500   54.9037   23.0115 H   0  0  0  0  0  0
    2.6554   52.5741   20.9933 H   0  0  0  0  0  0
    1.4248   47.4479   18.6926 H   0  0  0  0  0  0
    2.3035   48.8661   18.1991 H   0  0  0  0  0  0
   -0.1787   50.3625   19.6616 H   0  0  0  0  0  0
   -3.0984   49.3603   19.6413 H   0  0  0  0  0  0
   -2.7834   48.6966   18.0701 H   0  0  0  0  0  0
   -4.9773   50.9387   19.9815 H   0  0  0  0  0  0
   -7.1159   51.8183   19.1255 H   0  0  0  0  0  0
   -7.7254   51.5026   16.7551 H   0  0  0  0  0  0
   -6.1841   50.3464   15.2176 H   0  0  0  0  0  0
   -4.0283   49.4733   16.0366 H   0  0  0  0  0  0
    0.5159   49.0777   22.3416 H   0  0  0  0  0  0
   -0.2449   50.1814   24.2192 H   0  0  0  0  0  0
   -1.1562   52.8958   22.8683 H   0  0  0  0  0  0
   -1.3981   52.5566   24.5688 H   0  0  0  0  0  0
   -0.5899   54.0308   24.0787 H   0  0  0  0  0  0
  1  2  1  0  0  0
  1 43  1  0  0  0
  1 44  1  0  0  0
  1 45  1  0  0  0
  2  9  1  0  0  0
  2 13  1  0  0  0
  2  3  1  0  0  0
  3  4  1  0  0  0
  3 46  1  0  0  0
  3 47  1  0  0  0
  4  5  1  0  0  0
  4 48  1  0  0  0
  4 49  1  0  0  0
  5  6  1  0  0  0
  5 41  1  0  0  0
  5  7  1  0  0  0
  7  8  1  0  0  0
  7  9  1  0  0  0
  7 16  1  0  0  0
  9 10  1  0  0  0
  9 11  1  0  0  0
 11 12  1  0  0  0
 11 50  1  0  0  0
 11 51  1  0  0  0
 12 13  1  0  0  0
 12 52  1  0  0  0
 12 53  1  0  0  0
 13 14  1  0  0  0
 13 15  1  0  0  0
 14 54  1  0  0  0
 14 55  1  0  0  0
 14 56  1  0  0  0
 15 57  1  0  0  0
 16 17  1  0  0  0
 16 58  1  0  0  0
 16 59  1  0  0  0
 17 18  1  0  0  0
 17 60  1  0  0  0
 17 61  1  0  0  0
 18 41  1  0  0  0
 18 19  2  0  0  0
 19 20  1  0  0  0
 19 62  1  0  0  0
 20 21  2  0  0  0
 20 39  1  0  0  0
 21 22  1  0  0  0
 22 23  1  0  0  0
 23 24  1  0  0  0
 23 63  1  0  0  0
 23 64  1  0  0  0
 24 25  2  0  0  0
 24 26  1  0  0  0
 26 27  1  0  0  0
 26 65  1  0  0  0
 27 28  1  0  0  0
 27 29  1  0  0  0
 27 36  1  0  0  0
 29 30  1  0  0  0
 29 66  1  0  0  0
 29 67  1  0  0  0
 30 35  2  0  0  0
 30 31  1  0  0  0
 31 32  2  0  0  0
 31 68  1  0  0  0
 32 33  1  0  0  0
 32 69  1  0  0  0
 33 34  2  0  0  0
 33 70  1  0  0  0
 34 35  1  0  0  0
 34 71  1  0  0  0
 35 72  1  0  0  0
 36 37  2  0  0  0
 36 38  1  0  0  0
 39 40  2  0  0  0
 39 73  1  0  0  0
 40 41  1  0  0  0
 40 74  1  0  0  0
 41 42  1  0  0  0
 42 75  1  0  0  0
 42 76  1  0  0  0
 42 77  1  0  0  0
M  CHG  1  38  -1
M  END
> <i_i_glide_confnum>
19

> <i_i_glide_lignum>
4628

> <i_i_glide_posenum>
158

> <i_i_glide_rotatable_bonds>
9

> <i_m_Source_File_Index>
2463

> <b_m_subgroup_collapsed>
0

> <r_i_docking_score>
-4.8885

> <r_i_glide_ecoul>
-6.92752

> <r_i_glide_eff_state_penalty>
0

> <r_i_glide_einternal>
1.48669

> <r_i_glide_emodel>
-46.7334

> <r_i_glide_energy>
-34.3543

> <r_i_glide_erotb>
0.456517

> <r_i_glide_esite>
-0.0810501

> <r_i_glide_evdw>
-27.4268

> <r_i_glide_gscore>
-4.8885

> <r_i_glide_hbond>
-0.496322

> <r_i_glide_ligand_efficiency>
-0.128645

> <r_i_glide_ligand_efficiency_ln>
-1.0541

> <r_i_glide_ligand_efficiency_sa>
-0.4325

> <r_i_glide_lipo>
-2.41834

> <r_i_glide_metal>
0

> <r_i_glide_rewards>
0.0611711

> <s_i_glide_gridfile>
wee1_glide-grid

> <s_m_Source_File>
wee1_decoys_glide_SP.sdf

> <s_m_Source_Path>
/Users/zhangxujun/Desktop

> <s_m_entry_id>
2738

> <s_m_entry_name>
wee1_decoys_glide_SP.2463

> <s_m_subgroup_title>
wee1_decoys_glide_SP

> <s_m_subgroupid>
wee1_decoys_glide_SP


$$$$
