@<TRIPOS>MOLECULE
ZINC39584689_2730
41   43    1
SMALL
USER_CHARGES


@<TRIPOS>ATOM
      1 C1          1.0793   53.8534   29.4742 C.3       1 UNK         0.0000 
      2 O2          2.4533   54.2261   29.4273 O.3       1 UNK         0.0000 
      3 C3          3.1354   54.1672   28.2216 C.ar      1 UNK         0.0000 
      4 C4          2.5384   53.8090   26.9986 C.ar      1 UNK         0.0000 
      5 C5          3.2733   53.7782   25.8029 C.ar      1 UNK         0.0000 
      6 C6          4.6333   54.0969   25.8529 C.ar      1 UNK         0.0000 
      7 C7          5.2457   54.4488   27.0514 C.ar      1 UNK         0.0000 
      8 C8          4.4984   54.4968   28.2298 C.ar      1 UNK         0.0000 
      9 O9          5.1049   54.8967   29.3944 O.3       1 UNK         0.0000 
     10 Br10        7.1042   54.8593   27.0408 Br        1 UNK         0.0000 
     11 C11         2.6760   53.4166   24.5098 C.2       1 UNK         0.0000 
     12 N12         1.4399   53.1659   24.3465 N.2       1 UNK         0.0000 
     13 N13         1.1347   52.8216   23.0779 N.am      1 UNK         0.0000 
     14 C14        -0.1162   52.4966   22.6920 C.2       1 UNK         0.0000 
     15 O15        -1.0982   52.5503   23.4428 O.2       1 UNK         0.0000 
     16 C16        -0.2593   52.0680   21.2075 C.3       1 UNK         0.0000 
     17 H17         0.0680   52.8969   20.5803 H         1 UNK         0.0000 
     18 C18         0.4747   50.8001   20.8878 C.2       1 UNK         0.0000 
     19 C19        -0.4937   49.9609   20.5017 C.2       1 UNK         0.0000 
     20 N20        -1.7181   50.5375   20.5033 N.2       1 UNK         0.0000 
     21 N21        -1.6288   51.7433   20.8873 N.2       1 UNK         0.0000 
     22 C22        -0.3349   48.5789   19.9900 C.ar      1 UNK         0.0000 
     23 C23         0.8581   48.1904   19.3660 C.ar      1 UNK         0.0000 
     24 C24         1.0081   46.8960   18.8758 C.ar      1 UNK         0.0000 
     25 C25        -0.0227   45.9721   19.0294 C.ar      1 UNK         0.0000 
     26 C26        -1.2072   46.3378   19.6603 C.ar      1 UNK         0.0000 
     27 C27        -1.3631   47.6363   20.1354 C.ar      1 UNK         0.0000 
     28 Cl28        0.1791   44.3581   18.4496 Cl        1 UNK         0.0000 
     29 H29         0.7188   53.9538   30.4983 H         1 UNK         0.0000 
     30 H30         0.4651   54.4981   28.8435 H         1 UNK         0.0000 
     31 H31         0.9335   52.8143   29.1750 H         1 UNK         0.0000 
     32 H32         1.4907   53.5539   26.9617 H         1 UNK         0.0000 
     33 H33         5.2365   54.0696   24.9567 H         1 UNK         0.0000 
     34 H34         6.0226   55.1763   29.2797 H         1 UNK         0.0000 
     35 H35         3.3904   53.3780   23.6871 H         1 UNK         0.0000 
     36 H36         1.9087   52.7898   22.4295 H         1 UNK         0.0000 
     37 H37         1.5438   50.6493   20.9452 H         1 UNK         0.0000 
     38 H38         1.6703   48.8915   19.2313 H         1 UNK         0.0000 
     39 H39         1.9212   46.6143   18.3739 H         1 UNK         0.0000 
     40 H40        -2.0025   45.6193   19.7876 H         1 UNK         0.0000 
     41 H41        -2.2879   47.9124   20.6215 H         1 UNK         0.0000 
@<TRIPOS>BOND
     1    1    2 1    
     2    1   29 1    
     3    1   30 1    
     4    1   31 1    
     5    2    3 1    
     6    3    8 ar   
     7    3    4 ar   
     8    4    5 ar   
     9    4   32 1    
    10    5    6 ar   
    11    5   11 1    
    12    6    7 ar   
    13    6   33 1    
    14    7    8 ar   
    15    7   10 1    
    16    8    9 1    
    17    9   34 1    
    18   11   12 2    
    19   11   35 1    
    20   12   13 1    
    21   13   14 am   BACKBONE|DICT|INTERRES
    22   13   36 1    
    23   14   15 2    
    24   14   16 1    
    25   16   17 1    
    26   16   21 1    
    27   16   18 1    
    28   18   19 2    
    29   18   37 1    
    30   19   20 1    
    31   19   22 1    
    32   20   21 2    
    33   22   27 ar   
    34   22   23 ar   
    35   23   24 ar   
    36   23   38 1    
    37   24   25 ar   
    38   24   39 1    
    39   25   26 ar   
    40   25   28 1    
    41   26   27 ar   
    42   26   40 1    
    43   27   41 1    
@<TRIPOS>SUBSTRUCTURE
     1 UNK         1 GROUP             0       ****    0 ROOT    
