@<TRIPOS>MOLECULE
ZINC35664797_324
73   75    1
SMALL
USER_CHARGES


@<TRIPOS>ATOM
      1 C1          7.0056   54.2706   26.7798 C.3       1 UNK         0.0000 
      2 C2          6.7413   55.3046   25.6720 C.3       1 UNK         0.0000 
      3 O3          5.4655   55.0717   25.1001 O.3       1 UNK         0.0000 
      4 C4          5.2725   54.1862   24.0979 C.2       1 UNK         0.0000 
      5 O5          6.2161   53.6974   23.4776 O.2       1 UNK         0.0000 
      6 C6          3.8281   53.8971   23.8395 C.2       1 UNK         0.0000 
      7 C7          3.3536   53.1140   22.8192 C.2       1 UNK         0.0000 
      8 N8          1.9870   52.8405   22.6984 N.am      1 UNK         0.0000 
      9 C9          1.0453   53.4484   23.4967 C.2       1 UNK         0.0000 
     10 O10        -0.1302   53.1260   23.6801 O.2       1 UNK         0.0000 
     11 N11         1.5047   54.4950   24.2081 N.am      1 UNK         0.0000 
     12 C12         2.8158   54.4473   24.8802 C.3       1 UNK         0.0000 
     13 H13         3.1049   55.4703   25.1094 H         1 UNK         0.0000 
     14 C14         2.7755   53.8066   26.2938 C.ar      1 UNK         0.0000 
     15 C15         1.9305   52.7258   26.5979 C.ar      1 UNK         0.0000 
     16 C16         1.8790   52.2053   27.8901 C.ar      1 UNK         0.0000 
     17 C17         2.6546   52.7708   28.8966 C.ar      1 UNK         0.0000 
     18 C18         3.4569   53.8732   28.6282 C.ar      1 UNK         0.0000 
     19 C19         3.5000   54.3971   27.3400 C.ar      1 UNK         0.0000 
     20 F20         2.6245   52.2525   30.1460 F         1 UNK         0.0000 
     21 C21         1.4091   51.7698   21.8485 C.3       1 UNK         0.0000 
     22 C22         1.5546   50.3887   22.4736 C.2       1 UNK         0.0000 
     23 C23         0.5254   49.6172   22.8486 C.2       1 UNK         0.0000 
     24 C24         4.2182   52.5100   21.6885 C.3       1 UNK         0.0000 
     25 N25         4.1539   53.3496   20.3852 N.4       1 UNK         0.0000 
     26 C26         4.5439   52.4971   19.1546 C.3       1 UNK         0.0000 
     27 C27         4.2749   53.1838   17.8013 C.3       1 UNK         0.0000 
     28 C28         5.3912   54.1255   17.2926 C.3       1 UNK         0.0000 
     29 N29         5.8784   55.1170   18.2742 N.am      1 UNK         0.0000 
     30 C30         4.9078   55.5592   19.2817 C.3       1 UNK         0.0000 
     31 C31         4.9126   54.6876   20.5527 C.3       1 UNK         0.0000 
     32 C32         7.1968   55.4385   18.4173 C.2       1 UNK         0.0000 
     33 O33         7.6255   56.0356   19.4100 O.2       1 UNK         0.0000 
     34 N34         7.9586   55.2442   17.3197 N.am      1 UNK         0.0000 
     35 C35         9.4140   55.3927   17.2037 C.3       1 UNK         0.0000 
     36 C36         9.9124   56.8372   17.4033 C.3       1 UNK         0.0000 
     37 C37        10.1736   54.3833   18.0814 C.3       1 UNK         0.0000 
     38 H38         7.9052   54.4952   27.3410 H         1 UNK         0.0000 
     39 H39         6.1993   54.2452   27.5097 H         1 UNK         0.0000 
     40 H40         7.1080   53.2674   26.3669 H         1 UNK         0.0000 
     41 H41         7.5245   55.2912   24.9135 H         1 UNK         0.0000 
     42 H42         6.7310   56.3072   26.0938 H         1 UNK         0.0000 
     43 H43         0.7785   54.9534   24.7404 H         1 UNK         0.0000 
     44 H44         1.3216   52.2530   25.8451 H         1 UNK         0.0000 
     45 H45         1.2420   51.3610   28.1084 H         1 UNK         0.0000 
     46 H46         4.0412   54.3202   29.4181 H         1 UNK         0.0000 
     47 H47         4.1065   55.2728   27.1647 H         1 UNK         0.0000 
     48 H48         0.3485   51.9382   21.6481 H         1 UNK         0.0000 
     49 H49         1.8710   51.7829   20.8622 H         1 UNK         0.0000 
     50 H50         2.5590   50.0195   22.6275 H         1 UNK         0.0000 
     51 H51         0.6938   48.6470   23.2952 H         1 UNK         0.0000 
     52 H52        -0.4964   49.9404   22.7241 H         1 UNK         0.0000 
     53 H53         5.2758   52.3660   21.8863 H         1 UNK         0.0000 
     54 H54         3.8749   51.5091   21.4398 H         1 UNK         0.0000 
     55 H55         5.5823   52.1864   19.2856 H         1 UNK         0.0000 
     56 H56         3.9014   51.6211   19.2301 H         1 UNK         0.0000 
     57 H57         4.1181   52.4082   17.0483 H         1 UNK         0.0000 
     58 H58         3.3252   53.7185   17.8430 H         1 UNK         0.0000 
     59 H59         4.9565   54.6788   16.4586 H         1 UNK         0.0000 
     60 H60         6.2114   53.5070   16.9232 H         1 UNK         0.0000 
     61 H61         3.9125   55.7293   18.8697 H         1 UNK         0.0000 
     62 H62         5.2140   56.5599   19.5933 H         1 UNK         0.0000 
     63 H63         4.4151   55.2031   21.3731 H         1 UNK         0.0000 
     64 H64         5.9233   54.4467   20.8907 H         1 UNK         0.0000 
     65 H65         7.4867   54.9347   16.4837 H         1 UNK         0.0000 
     66 H66         9.6416   55.1344   16.1673 H         1 UNK         0.0000 
     67 H67        10.9947   56.8895   17.2782 H         1 UNK         0.0000 
     68 H68         9.4701   57.5234   16.6801 H         1 UNK         0.0000 
     69 H69         9.7095   57.2075   18.4084 H         1 UNK         0.0000 
     70 H70        11.2509   54.5374   18.0171 H         1 UNK         0.0000 
     71 H71         9.9074   54.4967   19.1329 H         1 UNK         0.0000 
     72 H72         9.9850   53.3557   17.7725 H         1 UNK         0.0000 
     73 H73         3.1797   53.5876   20.2435 H         1 UNK         0.0000 
@<TRIPOS>BOND
     1    1    2 1    
     2    1   38 1    
     3    1   39 1    
     4    1   40 1    
     5    2    3 1    
     6    2   41 1    
     7    2   42 1    
     8    3    4 1    
     9    4    5 2    
    10    4    6 1    
    11    6   12 1    
    12    6    7 2    
    13    7    8 1    
    14    7   24 1    
    15    8    9 am   BACKBONE|DICT|INTERRES
    16    8   21 1    
    17    9   10 2    
    18    9   11 am   BACKBONE|DICT|INTERRES
    19   11   12 1    
    20   11   43 1    
    21   12   13 1    
    22   12   14 1    
    23   14   19 ar   
    24   14   15 ar   
    25   15   16 ar   
    26   15   44 1    
    27   16   17 ar   
    28   16   45 1    
    29   17   18 ar   
    30   17   20 1    
    31   18   19 ar   
    32   18   46 1    
    33   19   47 1    
    34   21   22 1    
    35   21   48 1    
    36   21   49 1    
    37   22   23 2    
    38   22   50 1    
    39   23   51 1    
    40   23   52 1    
    41   24   25 1    
    42   24   53 1    
    43   24   54 1    
    44   25   31 1    
    45   25   26 1    
    46   25   73 1    
    47   26   27 1    
    48   26   55 1    
    49   26   56 1    
    50   27   28 1    
    51   27   57 1    
    52   27   58 1    
    53   28   29 1    
    54   28   59 1    
    55   28   60 1    
    56   29   30 1    
    57   29   32 am   BACKBONE|DICT|INTERRES
    58   30   31 1    
    59   30   61 1    
    60   30   62 1    
    61   31   63 1    
    62   31   64 1    
    63   32   33 2    
    64   32   34 am   BACKBONE|DICT|INTERRES
    65   34   35 1    
    66   34   65 1    
    67   35   36 1    
    68   35   37 1    
    69   35   66 1    
    70   36   67 1    
    71   36   68 1    
    72   36   69 1    
    73   37   70 1    
    74   37   71 1    
    75   37   72 1    
@<TRIPOS>SUBSTRUCTURE
     1 UNK         1 GROUP             0       ****    0 ROOT    
