@<TRIPOS>MOLECULE
ZINC43737069_497
80   84    1
SMALL
USER_CHARGES


@<TRIPOS>ATOM
      1 C1         -1.9870   48.3416   18.4214 C.3       1 UNK         0.0000 
      2 C2         -1.5733   49.2535   19.5806 C.2       1 UNK         0.0000 
      3 O3         -2.3301   50.1703   19.9109 O.2       1 UNK         0.0000 
      4 C4         -0.1996   49.0261   20.3104 C.3       1 UNK         0.0000 
      5 C5         -0.4777   48.9916   21.8469 C.3       1 UNK         0.0000 
      6 C6          0.2247   50.1937   22.4709 C.3       1 UNK         0.0000 
      7 C7          0.4900   51.1512   21.3041 C.3       1 UNK         0.0000 
      8 H8         -0.4600   51.6384   21.0736 H         1 UNK         0.0000 
      9 C9          0.8220   50.2257   20.0955 C.3       1 UNK         0.0000 
     10 C10         2.3095   49.7446   20.2320 C.3       1 UNK         0.0000 
     11 C11         3.3283   50.8955   20.3673 C.3       1 UNK         0.0000 
     12 C12         3.0169   51.8073   21.5790 C.3       1 UNK         0.0000 
     13 H13         3.1047   51.1752   22.4641 H         1 UNK         0.0000 
     14 C14         1.5293   52.2785   21.5479 C.3       1 UNK         0.0000 
     15 H15         1.4050   52.9739   20.7220 H         1 UNK         0.0000 
     16 C16         1.2428   53.0016   22.8777 C.3       1 UNK         0.0000 
     17 C17         2.1022   54.2548   22.9859 C.3       1 UNK         0.0000 
     18 C18         3.5773   53.8776   22.9425 C.2       1 UNK         0.0000 
     19 C19         4.4260   54.3118   23.8976 C.2       1 UNK         0.0000 
     20 C20         5.8528   54.1612   23.9173 C.2       1 UNK         0.0000 
     21 N21         6.7006   54.5260   24.8131 N.2       1 UNK         0.0000 
     22 O22         6.2896   54.8967   26.1419 O.3       1 UNK         0.0000 
     23 C23         5.1862   54.1845   26.7313 C.3       1 UNK         0.0000 
     24 C24         5.5858   53.6550   28.1078 C.2       1 UNK         0.0000 
     25 O25         6.7547   53.6967   28.4816 O.2       1 UNK         0.0000 
     26 N26         4.6272   53.1150   28.8834 N.am      1 UNK         0.0000 
     27 C27         3.1713   53.0803   28.6377 C.3       1 UNK         0.0000 
     28 H28         3.0172   52.9528   27.5640 H         1 UNK         0.0000 
     29 C29         2.5801   51.8490   29.3453 C.3       1 UNK         0.0000 
     30 C30         1.2342   51.3949   28.7700 C.3       1 UNK         0.0000 
     31 C31         0.0813   52.3825   28.9197 C.3       1 UNK         0.0000 
     32 C32         0.2823   53.6594   28.1063 C.3       1 UNK         0.0000 
     33 N33         1.2447   54.6062   28.6538 N.am      1 UNK         0.0000 
     34 C34         2.5164   54.4311   29.0477 C.2       1 UNK         0.0000 
     35 O35         3.1046   55.2967   29.6817 O.2       1 UNK         0.0000 
     36 C36         6.4247   53.5703   22.6439 C.3       1 UNK         0.0000 
     37 C37         5.4831   52.5374   21.9577 C.3       1 UNK         0.0000 
     38 C38         4.0235   53.0236   21.7231 C.3       1 UNK         0.0000 
     39 C39         4.0751   53.9244   20.4550 C.3       1 UNK         0.0000 
     40 C40         0.6658   50.9842   18.7383 C.3       1 UNK         0.0000 
     41 O41         0.3068   47.7684   19.8740 O.3       1 UNK         0.0000 
     42 H42        -1.2540   48.3979   17.6174 H         1 UNK         0.0000 
     43 H43        -2.9525   48.6527   18.0218 H         1 UNK         0.0000 
     44 H44        -2.0726   47.3095   18.7601 H         1 UNK         0.0000 
     45 H45        -1.5381   49.0109   22.1085 H         1 UNK         0.0000 
     46 H46        -0.0956   48.0964   22.3206 H         1 UNK         0.0000 
     47 H47        -0.3358   50.6563   23.2835 H         1 UNK         0.0000 
     48 H48         1.1688   49.8600   22.9049 H         1 UNK         0.0000 
     49 H49         2.4199   49.1002   21.1056 H         1 UNK         0.0000 
     50 H50         2.5869   49.1192   19.3813 H         1 UNK         0.0000 
     51 H51         3.3570   51.4764   19.4467 H         1 UNK         0.0000 
     52 H52         4.3366   50.4967   20.4585 H         1 UNK         0.0000 
     53 H53         0.1935   53.2919   22.9116 H         1 UNK         0.0000 
     54 H54         1.3766   52.3405   23.7363 H         1 UNK         0.0000 
     55 H55         1.8462   54.8088   23.8900 H         1 UNK         0.0000 
     56 H56         1.8809   54.8999   22.1478 H         1 UNK         0.0000 
     57 H57         3.9744   54.9235   24.6578 H         1 UNK         0.0000 
     58 H58         4.3468   54.8711   26.8392 H         1 UNK         0.0000 
     59 H59         4.8669   53.2975   26.1865 H         1 UNK         0.0000 
     60 H60         4.9124   52.8194   29.8049 H         1 UNK         0.0000 
     61 H61         3.2773   51.0137   29.2815 H         1 UNK         0.0000 
     62 H62         2.4735   52.0535   30.4122 H         1 UNK         0.0000 
     63 H63         0.9247   50.4969   29.2707 H         1 UNK         0.0000 
     64 H64         1.3558   51.1112   27.7228 H         1 UNK         0.0000 
     65 H65        -0.0997   52.6163   29.9710 H         1 UNK         0.0000 
     66 H66        -0.8235   51.8866   28.5653 H         1 UNK         0.0000 
     67 H67        -0.6705   54.1841   28.0795 H         1 UNK         0.0000 
     68 H68         0.5477   53.4240   27.0739 H         1 UNK         0.0000 
     69 H69         0.8807   55.5046   28.9329 H         1 UNK         0.0000 
     70 H70         6.6692   54.3908   21.9656 H         1 UNK         0.0000 
     71 H71         7.3664   53.0722   22.8826 H         1 UNK         0.0000 
     72 H72         5.5059   51.5900   22.4817 H         1 UNK         0.0000 
     73 H73         5.9006   52.2359   20.9990 H         1 UNK         0.0000 
     74 H74         4.6585   53.4716   19.6518 H         1 UNK         0.0000 
     75 H75         3.1046   54.0969   20.0132 H         1 UNK         0.0000 
     76 H76         4.5220   54.8965   20.6634 H         1 UNK         0.0000 
     77 H77         1.3808   51.7965   18.6247 H         1 UNK         0.0000 
     78 H78         0.8102   50.3115   17.8937 H         1 UNK         0.0000 
     79 H79        -0.3121   51.4509   18.6268 H         1 UNK         0.0000 
     80 H80         0.7640   47.9011   19.0384 H         1 UNK         0.0000 
@<TRIPOS>BOND
     1    1    2 1    
     2    1   42 1    
     3    1   43 1    
     4    1   44 1    
     5    2    3 2    
     6    2    4 1    
     7    4    9 1    
     8    4    5 1    
     9    4   41 1    
    10    5    6 1    
    11    5   45 1    
    12    5   46 1    
    13    6    7 1    
    14    6   47 1    
    15    6   48 1    
    16    7    8 1    
    17    7   14 1    
    18    7    9 1    
    19    9   10 1    
    20    9   40 1    
    21   10   11 1    
    22   10   49 1    
    23   10   50 1    
    24   11   12 1    
    25   11   51 1    
    26   11   52 1    
    27   12   13 1    
    28   12   38 1    
    29   12   14 1    
    30   14   15 1    
    31   14   16 1    
    32   16   17 1    
    33   16   53 1    
    34   16   54 1    
    35   17   18 1    
    36   17   55 1    
    37   17   56 1    
    38   18   38 1    
    39   18   19 2    
    40   19   20 1    
    41   19   57 1    
    42   20   21 2    
    43   20   36 1    
    44   21   22 1    
    45   22   23 1    
    46   23   24 1    
    47   23   58 1    
    48   23   59 1    
    49   24   25 2    
    50   24   26 am   BACKBONE|DICT|INTERRES
    51   26   27 1    
    52   26   60 1    
    53   27   28 1    
    54   27   34 1    
    55   27   29 1    
    56   29   30 1    
    57   29   61 1    
    58   29   62 1    
    59   30   31 1    
    60   30   63 1    
    61   30   64 1    
    62   31   32 1    
    63   31   65 1    
    64   31   66 1    
    65   32   33 1    
    66   32   67 1    
    67   32   68 1    
    68   33   34 am   BACKBONE|DICT|INTERRES
    69   33   69 1    
    70   34   35 2    
    71   36   37 1    
    72   36   70 1    
    73   36   71 1    
    74   37   38 1    
    75   37   72 1    
    76   37   73 1    
    77   38   39 1    
    78   39   74 1    
    79   39   75 1    
    80   39   76 1    
    81   40   77 1    
    82   40   78 1    
    83   40   79 1    
    84   41   80 1    
@<TRIPOS>SUBSTRUCTURE
     1 UNK         1 GROUP             0       ****    0 ROOT    
