@<TRIPOS>MOLECULE
ZINC21289779_2909
68   72    1
SMALL
USER_CHARGES


@<TRIPOS>ATOM
      1 C1          1.7721   56.0820   29.5522 C.3       1 UNK         0.0000 
      2 C2          1.4150   54.6831   29.0215 C.3       1 UNK         0.0000 
      3 H3          0.3270   54.6011   28.9731 H         1 UNK         0.0000 
      4 C4          1.9302   53.5933   29.9576 C.ar      1 UNK         0.0000 
      5 C5          1.0500   53.0462   30.8915 C.ar      1 UNK         0.0000 
      6 C6          1.5071   52.0969   31.7934 C.ar      1 UNK         0.0000 
      7 C7          2.8434   51.6990   31.7634 C.ar      1 UNK         0.0000 
      8 C8          3.7191   52.2108   30.8144 C.ar      1 UNK         0.0000 
      9 C9          3.2669   53.1719   29.9166 C.ar      1 UNK         0.0000 
     10 N10         1.9141   54.4971   27.6637 N.pl3     1 UNK         0.0000 
     11 C11         1.5043   53.4346   26.8424 C.ar      1 UNK         0.0000 
     12 C12         1.7278   53.5555   25.4695 C.ar      1 UNK         0.0000 
     13 C13         1.3897   52.5063   24.6120 C.ar      1 UNK         0.0000 
     14 C14         0.7044   51.4084   25.1643 C.ar      1 UNK         0.0000 
     15 C15         0.4465   51.3797   26.5358 C.ar      1 UNK         0.0000 
     16 N16         0.8506   52.3654   27.3734 N.ar      1 UNK         0.0000 
     17 C17         1.8091   52.5357   23.1630 C.ar      1 UNK         0.0000 
     18 C18         2.9888   52.9822   22.4988 C.ar      1 UNK         0.0000 
     19 N19         2.9195   52.6710   21.2141 N.2       1 UNK         0.0000 
     20 C20         1.7672   52.1050   20.9962 C.ar      1 UNK         0.0000 
     21 N21         1.0095   52.0398   22.1411 N.pl3     1 UNK         0.0000 
     22 C22        -0.3700   51.5614   22.2239 C.3       1 UNK         0.0000 
     23 C23         1.3748   51.5361   19.6354 C.3       1 UNK         0.0000 
     24 C24         1.7389   52.4747   18.4610 C.3       1 UNK         0.0000 
     25 C25         1.2932   51.8994   17.1071 C.3       1 UNK         0.0000 
     26 N26         1.9044   50.4966   16.9349 N.4       1 UNK         0.0000 
     27 C27         1.5766   49.5212   18.0795 C.3       1 UNK         0.0000 
     28 C28         2.0163   50.1500   19.4121 C.3       1 UNK         0.0000 
     29 C29         4.2470   53.6960   22.9678 C.ar      1 UNK         0.0000 
     30 C30         5.1281   54.2687   22.0324 C.ar      1 UNK         0.0000 
     31 C31         6.3044   54.8967   22.4372 C.ar      1 UNK         0.0000 
     32 C32         6.6155   54.9922   23.7898 C.ar      1 UNK         0.0000 
     33 C33         5.7772   54.4166   24.7463 C.ar      1 UNK         0.0000 
     34 C34         4.6218   53.7617   24.3166 C.ar      1 UNK         0.0000 
     35 C35         6.0964   54.4865   26.2395 C.3       1 UNK         0.0000 
     36 F36         5.0277   54.8959   26.9196 F         1 UNK         0.0000 
     37 F37         6.4508   53.2968   26.7064 F         1 UNK         0.0000 
     38 F38         7.1029   55.3147   26.4913 F         1 UNK         0.0000 
     39 H39         1.3969   56.2292   30.5662 H         1 UNK         0.0000 
     40 H40         2.8510   56.2431   29.5728 H         1 UNK         0.0000 
     41 H41         1.3345   56.8655   28.9311 H         1 UNK         0.0000 
     42 H42         0.0175   53.3616   30.9383 H         1 UNK         0.0000 
     43 H43         0.8286   51.6955   32.5341 H         1 UNK         0.0000 
     44 H44         3.1980   50.9740   32.4820 H         1 UNK         0.0000 
     45 H45         4.7457   51.8802   30.7871 H         1 UNK         0.0000 
     46 H46         3.9531   53.5868   29.1920 H         1 UNK         0.0000 
     47 H47         2.1430   55.3466   27.1730 H         1 UNK         0.0000 
     48 H48         2.2000   54.4425   25.0744 H         1 UNK         0.0000 
     49 H49         0.4297   50.5559   24.5635 H         1 UNK         0.0000 
     50 H50        -0.0615   50.5384   26.9889 H         1 UNK         0.0000 
     51 H51        -0.9295   51.8687   21.3412 H         1 UNK         0.0000 
     52 H52        -0.3689   50.4742   22.2990 H         1 UNK         0.0000 
     53 H53        -0.8684   51.9865   23.0928 H         1 UNK         0.0000 
     54 H54         0.2942   51.3911   19.5839 H         1 UNK         0.0000 
     55 H55         1.2441   53.4379   18.5811 H         1 UNK         0.0000 
     56 H56         2.8180   52.6411   18.4213 H         1 UNK         0.0000 
     57 H57         0.2112   51.7779   17.0361 H         1 UNK         0.0000 
     58 H58         1.6439   52.4968   16.2645 H         1 UNK         0.0000 
     59 H59         1.6172   50.0917   16.0548 H         1 UNK         0.0000 
     60 H60         0.5053   49.3181   18.0320 H         1 UNK         0.0000 
     61 H61         2.1433   48.6126   17.8573 H         1 UNK         0.0000 
     62 H62         3.1064   50.2266   19.4074 H         1 UNK         0.0000 
     63 H63         1.7271   49.4642   20.2102 H         1 UNK         0.0000 
     64 H64         4.9098   54.2330   20.9755 H         1 UNK         0.0000 
     65 H65         6.9659   55.3322   21.7023 H         1 UNK         0.0000 
     66 H66         7.5044   55.5229   24.0840 H         1 UNK         0.0000 
     67 H67         4.0573   53.2481   25.0704 H         1 UNK         0.0000 
     68 H68         2.9224   50.5365   16.8815 H         1 UNK         0.0000 
@<TRIPOS>BOND
     1    1    2 1    
     2    1   39 1    
     3    1   40 1    
     4    1   41 1    
     5    2    3 1    
     6    2    4 1    
     7    2   10 1    
     8    4    9 ar   
     9    4    5 ar   
    10    5    6 ar   
    11    5   42 1    
    12    6    7 ar   
    13    6   43 1    
    14    7    8 ar   
    15    7   44 1    
    16    8    9 ar   
    17    8   45 1    
    18    9   46 1    
    19   10   11 1    
    20   10   47 1    
    21   11   16 ar   
    22   11   12 ar   
    23   12   13 ar   
    24   12   48 1    
    25   13   14 ar   
    26   13   17 1    
    27   14   15 ar   
    28   14   49 1    
    29   15   16 ar   
    30   15   50 1    
    31   17   21 ar   
    32   17   18 ar   
    33   18   19 ar   
    34   18   29 1    
    35   19   20 ar   
    36   20   21 ar   
    37   20   23 1    
    38   21   22 1    
    39   22   51 1    
    40   22   52 1    
    41   22   53 1    
    42   23   28 1    
    43   23   24 1    
    44   23   54 1    
    45   24   25 1    
    46   24   55 1    
    47   24   56 1    
    48   25   26 1    
    49   25   57 1    
    50   25   58 1    
    51   26   27 1    
    52   26   59 1    
    53   26   68 1    
    54   27   28 1    
    55   27   60 1    
    56   27   61 1    
    57   28   62 1    
    58   28   63 1    
    59   29   34 ar   
    60   29   30 ar   
    61   30   31 ar   
    62   30   64 1    
    63   31   32 ar   
    64   31   65 1    
    65   32   33 ar   
    66   32   66 1    
    67   33   34 ar   
    68   33   35 1    
    69   34   67 1    
    70   35   36 1    
    71   35   37 1    
    72   35   38 1    
@<TRIPOS>SUBSTRUCTURE
     1 UNK         1 GROUP             0       ****    0 ROOT    
