@<TRIPOS>MOLECULE
ZINC25143390_4883
66   69    1
SMALL
USER_CHARGES


@<TRIPOS>ATOM
      1 C1          7.1880   58.5005   17.2237 C.ar      1 UNK         0.0000 
      2 C2          7.3313   57.4753   16.2931 C.ar      1 UNK         0.0000 
      3 C3          6.9283   56.1875   16.6257 C.ar      1 UNK         0.0000 
      4 C4          6.3691   55.9341   17.8812 C.ar      1 UNK         0.0000 
      5 C5          6.2486   56.9686   18.8232 C.ar      1 UNK         0.0000 
      6 C6          6.6526   58.2548   18.4855 C.ar      1 UNK         0.0000 
      7 N7          5.9509   54.6151   18.1168 N.am      1 UNK         0.0000 
      8 C8          4.9788   54.1809   18.9425 C.2       1 UNK         0.0000 
      9 O9          4.3089   54.8965   19.6828 O.2       1 UNK         0.0000 
     10 C10         4.7104   52.6777   18.8738 C.3       1 UNK         0.0000 
     11 N11         3.4474   52.2825   19.6810 N.4       1 UNK         0.0000 
     12 C12         2.6389   51.1583   18.9750 C.3       1 UNK         0.0000 
     13 C13         1.3624   50.8811   19.8044 C.3       1 UNK         0.0000 
     14 C14         1.7497   50.4892   21.2460 C.3       1 UNK         0.0000 
     15 C15         2.5406   51.6440   21.8664 C.3       1 UNK         0.0000 
     16 C16         3.8504   51.8673   21.1169 C.3       1 UNK         0.0000 
     17 N17         0.5194   50.2417   22.0568 N.pl3     1 UNK         0.0000 
     18 S18        -0.5839   51.4942   22.6628 S.o2      1 UNK         0.0000 
     19 O19        -0.8013   52.4713   21.5906 O.2       1 UNK         0.0000 
     20 O20        -1.7187   50.7980   23.2764 O.2       1 UNK         0.0000 
     21 C21         0.2903   52.3273   23.9932 C.ar      1 UNK         0.0000 
     22 C22         0.3872   51.7176   25.2432 C.ar      1 UNK         0.0000 
     23 C23         1.1566   52.3110   26.2421 C.ar      1 UNK         0.0000 
     24 C24         1.8703   53.4873   25.9798 C.ar      1 UNK         0.0000 
     25 C25         1.7623   54.0961   24.7256 C.ar      1 UNK         0.0000 
     26 C26         0.9309   53.5476   23.7601 C.ar      1 UNK         0.0000 
     27 C27         2.7399   54.1230   27.0651 C.3       1 UNK         0.0000 
     28 C28         1.9237   54.4775   28.3351 C.3       1 UNK         0.0000 
     29 C29         2.8048   55.0902   29.4414 C.3       1 UNK         0.0000 
     30 C30         4.0331   54.2118   29.7516 C.3       1 UNK         0.0000 
     31 C31         4.8526   53.9044   28.4870 C.3       1 UNK         0.0000 
     32 C32         3.9840   53.2664   27.3876 C.3       1 UNK         0.0000 
     33 H33         7.4739   59.5084   16.9599 H         1 UNK         0.0000 
     34 H34         7.7418   57.6831   15.3174 H         1 UNK         0.0000 
     35 H35         7.0253   55.3987   15.8956 H         1 UNK         0.0000 
     36 H36         5.8439   56.7942   19.8074 H         1 UNK         0.0000 
     37 H37         6.5399   59.0720   19.1880 H         1 UNK         0.0000 
     38 H38         6.3563   53.9309   17.4970 H         1 UNK         0.0000 
     39 H39         4.5246   52.4138   17.8302 H         1 UNK         0.0000 
     40 H40         5.5483   52.0969   19.2674 H         1 UNK         0.0000 
     41 H41         2.3758   51.5251   17.9803 H         1 UNK         0.0000 
     42 H42         3.2729   50.2752   18.8820 H         1 UNK         0.0000 
     43 H43         0.7278   51.7674   19.7802 H         1 UNK         0.0000 
     44 H44         0.7781   50.0838   19.3415 H         1 UNK         0.0000 
     45 H45         2.3699   49.5896   21.2144 H         1 UNK         0.0000 
     46 H46         2.7051   51.4813   22.9306 H         1 UNK         0.0000 
     47 H47         1.9814   52.5669   21.7505 H         1 UNK         0.0000 
     48 H48         4.4791   50.9752   21.0615 H         1 UNK         0.0000 
     49 H49         4.4057   52.6995   21.5530 H         1 UNK         0.0000 
     50 H50         0.4544   49.3311   22.5171 H         1 UNK         0.0000 
     51 H51        -0.1185   50.7828   25.4396 H         1 UNK         0.0000 
     52 H52         1.2229   51.8260   27.2057 H         1 UNK         0.0000 
     53 H53         2.3085   54.9960   24.4872 H         1 UNK         0.0000 
     54 H54         0.8525   54.0474   22.8075 H         1 UNK         0.0000 
     55 H55         3.1050   55.0650   26.6494 H         1 UNK         0.0000 
     56 H56         1.1460   55.2000   28.0856 H         1 UNK         0.0000 
     57 H57         1.4342   53.5912   28.7405 H         1 UNK         0.0000 
     58 H58         3.1301   56.0845   29.1411 H         1 UNK         0.0000 
     59 H59         2.2096   55.2381   30.3439 H         1 UNK         0.0000 
     60 H60         4.6786   54.6974   30.4800 H         1 UNK         0.0000 
     61 H61         3.7077   53.2777   30.2123 H         1 UNK         0.0000 
     62 H62         5.3005   54.8255   28.1101 H         1 UNK         0.0000 
     63 H63         5.6841   53.2424   28.7389 H         1 UNK         0.0000 
     64 H64         3.6739   52.2783   27.7254 H         1 UNK         0.0000 
     65 H65         4.5987   53.1438   26.4953 H         1 UNK         0.0000 
     66 H66         2.8623   53.1113   19.7225 H         1 UNK         0.0000 
@<TRIPOS>BOND
     1    1    6 ar   
     2    1    2 ar   
     3    1   33 1    
     4    2    3 ar   
     5    2   34 1    
     6    3    4 ar   
     7    3   35 1    
     8    4    5 ar   
     9    4    7 1    
    10    5    6 ar   
    11    5   36 1    
    12    6   37 1    
    13    7    8 am   BACKBONE|DICT|INTERRES
    14    7   38 1    
    15    8    9 2    
    16    8   10 1    
    17   10   11 1    
    18   10   39 1    
    19   10   40 1    
    20   11   16 1    
    21   11   12 1    
    22   11   66 1    
    23   12   13 1    
    24   12   41 1    
    25   12   42 1    
    26   13   14 1    
    27   13   43 1    
    28   13   44 1    
    29   14   15 1    
    30   14   17 1    
    31   14   45 1    
    32   15   16 1    
    33   15   46 1    
    34   15   47 1    
    35   16   48 1    
    36   16   49 1    
    37   17   18 1    
    38   17   50 1    
    39   18   19 2    
    40   18   20 2    
    41   18   21 1    
    42   21   26 ar   
    43   21   22 ar   
    44   22   23 ar   
    45   22   51 1    
    46   23   24 ar   
    47   23   52 1    
    48   24   25 ar   
    49   24   27 1    
    50   25   26 ar   
    51   25   53 1    
    52   26   54 1    
    53   27   32 1    
    54   27   28 1    
    55   27   55 1    
    56   28   29 1    
    57   28   56 1    
    58   28   57 1    
    59   29   30 1    
    60   29   58 1    
    61   29   59 1    
    62   30   31 1    
    63   30   60 1    
    64   30   61 1    
    65   31   32 1    
    66   31   62 1    
    67   31   63 1    
    68   32   64 1    
    69   32   65 1    
@<TRIPOS>SUBSTRUCTURE
     1 UNK         1 GROUP             0       ****    0 ROOT    
