@<TRIPOS>MOLECULE
ZINC63270967_4093
65   69    1
SMALL
USER_CHARGES


@<TRIPOS>ATOM
      1 C1          4.4525   54.4954   24.6511 C.2       1 UNK         0.0000 
      2 C2          5.8903   54.5476   24.8841 C.2       1 UNK         0.0000 
      3 C3          6.4224   54.3782   26.1235 C.2       1 UNK         0.0000 
      4 C4          5.5862   54.1446   27.2228 C.2       1 UNK         0.0000 
      5 N5          5.8991   53.9699   28.4816 N.pl3     1 UNK         0.0000 
      6 C6          4.6766   53.7594   29.2735 C.3       1 UNK         0.0000 
      7 C7          3.5870   53.9315   28.2391 C.2       1 UNK         0.0000 
      8 C8          4.1966   54.0991   27.0512 C.2       1 UNK         0.0000 
      9 C9          3.6415   54.2800   25.7042 C.2       1 UNK         0.0000 
     10 C10         2.1197   53.9589   28.6388 C.3       1 UNK         0.0000 
     11 C11         1.5440   52.6210   29.1465 C.3       1 UNK         0.0000 
     12 N12         1.3135   51.6425   28.0824 N.am      1 UNK         0.0000 
     13 C13         0.2200   51.6442   27.2992 C.2       1 UNK         0.0000 
     14 O14        -0.6616   52.4978   27.3979 O.2       1 UNK         0.0000 
     15 C15         0.1021   50.5120   26.2668 C.3       1 UNK         0.0000 
     16 C16        -1.0337   50.6872   25.2216 C.3       1 UNK         0.0000 
     17 C17        -0.8643   51.8601   24.2286 C.3       1 UNK         0.0000 
     18 N18         0.2742   51.6628   23.3318 N.am      1 UNK         0.0000 
     19 C19         0.2283   51.6419   21.9852 C.2       1 UNK         0.0000 
     20 O20        -0.7932   51.9503   21.3654 O.2       1 UNK         0.0000 
     21 N21         1.3578   51.1721   21.3823 N.am      1 UNK         0.0000 
     22 C22         1.3261   50.9057   19.9147 C.3       1 UNK         0.0000 
     23 C23         2.0010   52.0879   19.1625 C.3       1 UNK         0.0000 
     24 C24         3.4110   52.2705   19.7386 C.3       1 UNK         0.0000 
     25 H25         3.9044   51.2956   19.6741 H         1 UNK         0.0000 
     26 C26         3.2932   52.6265   21.2068 C.3       1 UNK         0.0000 
     27 H27         2.5765   53.4456   21.3506 H         1 UNK         0.0000 
     28 C28         2.7173   51.4065   21.9633 C.3       1 UNK         0.0000 
     29 N29         4.5804   53.1639   21.6059 N.2       1 UNK         0.0000 
     30 C30         5.0216   53.7568   20.5619 C.2       1 UNK         0.0000 
     31 C31         4.4229   53.2763   19.2263 C.3       1 UNK         0.0000 
     32 H32         5.1839   52.7200   18.6736 H         1 UNK         0.0000 
     33 C33         4.0478   54.4663   18.3333 C.2       1 UNK         0.0000 
     34 C34         4.7591   55.6166   18.4038 C.2       1 UNK         0.0000 
     35 C35         5.8119   55.7431   19.4175 C.2       1 UNK         0.0000 
     36 C36         5.9031   54.8885   20.4658 C.2       1 UNK         0.0000 
     37 Cl37        4.3024   57.0061   17.4163 Cl        1 UNK         0.0000 
     38 H38         4.0424   54.6193   23.6601 H         1 UNK         0.0000 
     39 H39         6.5504   54.7244   24.0457 H         1 UNK         0.0000 
     40 H40         7.4965   54.4305   26.2455 H         1 UNK         0.0000 
     41 H41         4.7041   52.7486   29.6818 H         1 UNK         0.0000 
     42 H42         4.6559   54.5009   30.0714 H         1 UNK         0.0000 
     43 H43         2.5788   54.2216   25.5187 H         1 UNK         0.0000 
     44 H44         2.0421   54.6959   29.4382 H         1 UNK         0.0000 
     45 H45         1.5105   54.3476   27.8221 H         1 UNK         0.0000 
     46 H46         2.2150   52.1752   29.8813 H         1 UNK         0.0000 
     47 H47         0.6093   52.8035   29.6843 H         1 UNK         0.0000 
     48 H48         1.9843   50.8964   27.9774 H         1 UNK         0.0000 
     49 H49         1.0582   50.3584   25.7666 H         1 UNK         0.0000 
     50 H50        -0.0950   49.5999   26.8337 H         1 UNK         0.0000 
     51 H51        -1.1420   49.7598   24.6569 H         1 UNK         0.0000 
     52 H52        -1.9845   50.7998   25.7467 H         1 UNK         0.0000 
     53 H53        -1.8017   52.0196   23.6907 H         1 UNK         0.0000 
     54 H54        -0.6791   52.7901   24.7676 H         1 UNK         0.0000 
     55 H55         1.1463   51.4237   23.7748 H         1 UNK         0.0000 
     56 H56         1.9116   49.9987   19.7561 H         1 UNK         0.0000 
     57 H57         0.3291   50.6575   19.5464 H         1 UNK         0.0000 
     58 H58         2.0655   51.8782   18.0941 H         1 UNK         0.0000 
     59 H59         1.4121   53.0027   19.2276 H         1 UNK         0.0000 
     60 H60         2.7037   51.5408   23.0439 H         1 UNK         0.0000 
     61 H61         3.3299   50.5196   21.7953 H         1 UNK         0.0000 
     62 H62         3.2474   54.3720   17.6140 H         1 UNK         0.0000 
     63 H63         6.5174   56.5568   19.3320 H         1 UNK         0.0000 
     64 H64         6.6906   55.0313   21.1902 H         1 UNK         0.0000 
     65 H65         6.8398   53.9849   28.8694 H         1 UNK         0.0000 
@<TRIPOS>BOND
     1    1    9 2    
     2    1    2 1    
     3    1   38 1    
     4    2    3 2    
     5    2   39 1    
     6    3    4 1    
     7    3   40 1    
     8    4    8 1    
     9    4    5 2    
    10    5    6 1    
    11    5   65 1    
    12    6    7 1    
    13    6   41 1    
    14    6   42 1    
    15    7    8 2    
    16    7   10 1    
    17    8    9 1    
    18    9   43 1    
    19   10   11 1    
    20   10   44 1    
    21   10   45 1    
    22   11   12 1    
    23   11   46 1    
    24   11   47 1    
    25   12   13 am   BACKBONE|DICT|INTERRES
    26   12   48 1    
    27   13   14 2    
    28   13   15 1    
    29   15   16 1    
    30   15   49 1    
    31   15   50 1    
    32   16   17 1    
    33   16   51 1    
    34   16   52 1    
    35   17   18 1    
    36   17   53 1    
    37   17   54 1    
    38   18   19 am   BACKBONE|DICT|INTERRES
    39   18   55 1    
    40   19   20 2    
    41   19   21 am   BACKBONE|DICT|INTERRES
    42   21   28 1    
    43   21   22 1    
    44   22   23 1    
    45   22   56 1    
    46   22   57 1    
    47   23   24 1    
    48   23   58 1    
    49   23   59 1    
    50   24   25 1    
    51   24   31 1    
    52   24   26 1    
    53   26   27 1    
    54   26   28 1    
    55   26   29 1    
    56   28   60 1    
    57   28   61 1    
    58   29   30 2    
    59   30   36 1    
    60   30   31 1    
    61   31   32 1    
    62   31   33 1    
    63   33   34 2    
    64   33   62 1    
    65   34   35 1    
    66   34   37 1    
    67   35   36 2    
    68   35   63 1    
    69   36   64 1    
@<TRIPOS>SUBSTRUCTURE
     1 UNK         1 GROUP             0       ****    0 ROOT    
