@<TRIPOS>MOLECULE
ZINC01165495_5911
47   49    1
SMALL
USER_CHARGES


@<TRIPOS>ATOM
      1 C1          3.1078   53.7072   21.7402 C.3       1 UNK         0.0000 
      2 O2          4.1240   54.3760   22.4812 O.3       1 UNK         0.0000 
      3 C3          4.1525   54.2441   23.8580 C.ar      1 UNK         0.0000 
      4 C4          3.0517   53.8022   24.5986 C.ar      1 UNK         0.0000 
      5 C5          3.1027   53.6717   25.9945 C.ar      1 UNK         0.0000 
      6 C6          4.2999   53.9982   26.6417 C.ar      1 UNK         0.0000 
      7 C7          5.4246   54.4398   25.9234 C.ar      1 UNK         0.0000 
      8 C8          5.3352   54.5830   24.5344 C.ar      1 UNK         0.0000 
      9 O9          6.4229   55.0833   23.8523 O.3       1 UNK         0.0000 
     10 C10         7.1039   54.1367   23.0423 C.3       1 UNK         0.0000 
     11 O11         6.6447   54.7272   26.5065 O.3       1 UNK         0.0000 
     12 C12         6.8653   54.3125   27.8458 C.3       1 UNK         0.0000 
     13 C13         1.9081   53.1709   26.7889 C.2       1 UNK         0.0000 
     14 O14         1.9084   53.2240   28.0206 O.2       1 UNK         0.0000 
     15 N15         0.8961   52.6905   26.0356 N.am      1 UNK         0.0000 
     16 C16        -0.3508   52.2022   26.3997 C.2       1 UNK         0.0000 
     17 C17        -1.4428   52.0720   25.5107 C.2       1 UNK         0.0000 
     18 C18        -2.5896   51.5309   26.1696 C.2       1 UNK         0.0000 
     19 C19        -2.3292   51.2966   27.5208 C.2       1 UNK         0.0000 
     20 S20        -0.7263   51.6969   28.0188 S.3       1 UNK         0.0000 
     21 C21        -3.9340   51.2159   25.5792 C.ar      1 UNK         0.0000 
     22 C22        -5.0937   51.5810   26.2711 C.ar      1 UNK         0.0000 
     23 C23        -6.3492   51.3307   25.7219 C.ar      1 UNK         0.0000 
     24 C24        -6.4472   50.7002   24.4853 C.ar      1 UNK         0.0000 
     25 C25        -5.3014   50.3051   23.7999 C.ar      1 UNK         0.0000 
     26 C26        -4.0489   50.5587   24.3497 C.ar      1 UNK         0.0000 
     27 Br27       -8.1595   50.3772   23.7223 Br        1 UNK         0.0000 
     28 C28        -1.3831   52.5126   24.0895 C.2       1 UNK         0.0000 
     29 O29        -2.4399   52.9104   23.5495 O.co2     1 UNK         0.0000 
     30 O30        -0.2587   52.5172   23.5324 O.co2     1 UNK         0.0000 
     31 H31         3.2839   53.8461   20.6738 H         1 UNK         0.0000 
     32 H32         3.1163   52.6348   21.9398 H         1 UNK         0.0000 
     33 H33         2.1161   54.0965   21.9710 H         1 UNK         0.0000 
     34 H34         2.1419   53.5654   24.0701 H         1 UNK         0.0000 
     35 H35         4.3528   53.8907   27.7148 H         1 UNK         0.0000 
     36 H36         7.9043   54.6236   22.4822 H         1 UNK         0.0000 
     37 H37         7.5455   53.3404   23.6425 H         1 UNK         0.0000 
     38 H38         6.4316   53.6956   22.3120 H         1 UNK         0.0000 
     39 H39         7.9043   54.4967   28.1003 H         1 UNK         0.0000 
     40 H40         6.2422   54.8718   28.5434 H         1 UNK         0.0000 
     41 H41         6.6858   53.2439   27.9760 H         1 UNK         0.0000 
     42 H42         0.9781   52.7987   25.0314 H         1 UNK         0.0000 
     43 H43        -2.9979   50.8612   28.2485 H         1 UNK         0.0000 
     44 H44        -5.0258   52.0796   27.2262 H         1 UNK         0.0000 
     45 H45        -7.2424   51.6299   26.2504 H         1 UNK         0.0000 
     46 H46        -5.3817   49.8120   22.8420 H         1 UNK         0.0000 
     47 H47        -3.1648   50.2570   23.8089 H         1 UNK         0.0000 
@<TRIPOS>BOND
     1    1    2 1    
     2    1   31 1    
     3    1   32 1    
     4    1   33 1    
     5    2    3 1    
     6    3    8 ar   
     7    3    4 ar   
     8    4    5 ar   
     9    4   34 1    
    10    5    6 ar   
    11    5   13 1    
    12    6    7 ar   
    13    6   35 1    
    14    7    8 ar   
    15    7   11 1    
    16    8    9 1    
    17    9   10 1    
    18   10   36 1    
    19   10   37 1    
    20   10   38 1    
    21   11   12 1    
    22   12   39 1    
    23   12   40 1    
    24   12   41 1    
    25   13   14 2    
    26   13   15 am   BACKBONE|DICT|INTERRES
    27   15   16 am   BACKBONE|DICT|INTERRES
    28   15   42 1    
    29   16   20 1    
    30   16   17 2    
    31   17   18 1    
    32   17   28 1    
    33   18   19 2    
    34   18   21 1    
    35   19   20 1    
    36   19   43 1    
    37   21   26 ar   
    38   21   22 ar   
    39   22   23 ar   
    40   22   44 1    
    41   23   24 ar   
    42   23   45 1    
    43   24   25 ar   
    44   24   27 1    
    45   25   26 ar   
    46   25   46 1    
    47   26   47 1    
    48   28   29 2    
    49   28   30 1    
@<TRIPOS>SUBSTRUCTURE
     1 UNK         1 GROUP             0       ****    0 ROOT    
