ZINC12206307_5077
                    3D
 Schrodinger Suite 2024-2.
 76 80  0  0  1  0            999 V2000
    1.3388   52.4383   29.9973 C   0  0  0  0  0  0
    0.3514   51.7301   29.3096 C   0  0  0  0  0  0
    0.3841   51.6556   27.9186 C   0  0  0  0  0  0
    1.4218   52.2907   27.2247 C   0  0  0  0  0  0
    2.4252   53.0015   27.8971 C   0  0  0  0  0  0
    2.3763   53.0591   29.2966 C   0  0  0  0  0  0
    3.4441   53.5925   27.1539 N   0  0  0  0  0  0
    3.0846   54.4917   26.0537 C   0  0  0  0  0  0
    4.0620   54.3356   24.8874 C   0  0  0  0  0  0
    5.5138   54.6651   25.2762 C   0  0  0  0  0  0
    5.8545   53.9602   26.6211 C   0  0  0  0  0  0
    4.7407   54.0178   27.7012 C   0  0  0  0  0  0
    6.5867   54.8213   22.8425 C   0  0  0  0  0  0
    5.4887   54.4715   21.7926 C   0  0  1  0  0  0
    4.5769   55.0370   21.9882 H   0  0  0  0  0  0
    5.9250   54.9655   20.4004 C   0  0  0  0  0  0
    4.8552   54.6555   19.3505 C   0  0  0  0  0  0
    4.4280   53.1751   19.3751 C   0  0  0  0  0  0
    3.9918   52.7075   20.7098 N   0  0  0  0  0  0
    5.0609   52.9768   21.6994 C   0  0  0  0  0  0
    3.1119   51.6214   20.8387 C   0  0  0  0  0  0
    2.4263   51.2092   19.7302 N   0  0  0  0  0  0
    1.5533   50.1802   19.8805 C   0  0  0  0  0  0
    1.3224   49.5702   21.1140 C   0  0  0  0  0  0
    2.0412   50.0660   22.2040 C   0  0  0  0  0  0
    2.9230   51.0919   22.0816 N   0  0  0  0  0  0
   -0.6084   50.8967   27.2794 N   0  0  0  0  0  0
   -1.1964   51.1612   26.0966 C   0  0  0  0  0  0
   -0.9336   52.1321   25.3863 O   0  0  0  0  0  0
   -2.2830   50.1697   25.6537 C   0  0  0  0  0  0
   -3.7432   50.5699   26.0079 C   0  0  0  0  0  0
   -4.0505   50.7387   27.5055 C   0  0  0  0  0  0
   -5.3907   51.4774   27.5538 C   0  0  0  0  0  0
   -5.4494   52.3253   26.2723 C   0  0  0  0  0  0
   -4.2653   51.8847   25.3970 C   0  0  0  0  0  0
    1.2997   52.4961   31.0761 H   0  0  0  0  0  0
   -0.4494   51.2549   29.8637 H   0  0  0  0  0  0
    1.4721   52.1988   26.1496 H   0  0  0  0  0  0
    3.1337   53.5957   29.8473 H   0  0  0  0  0  0
    2.0753   54.3060   25.6866 H   0  0  0  0  0  0
    3.1046   55.5072   26.4460 H   0  0  0  0  0  0
    3.9864   53.2963   24.5748 H   0  0  0  0  0  0
    3.7402   54.9022   24.0172 H   0  0  0  0  0  0
    5.6319   55.7405   25.4140 H   0  0  0  0  0  0
    6.8019   54.3315   27.0158 H   0  0  0  0  0  0
    6.0467   52.8973   26.4749 H   0  0  0  0  0  0
    4.6578   55.0095   28.1469 H   0  0  0  0  0  0
    5.0215   53.3313   28.5014 H   0  0  0  0  0  0
    6.6603   55.8870   23.0641 H   0  0  0  0  0  0
    7.5690   54.5073   22.4833 H   0  0  0  0  0  0
    6.1338   56.0371   20.4209 H   0  0  0  0  0  0
    6.8666   54.4969   20.1108 H   0  0  0  0  0  0
    3.9769   55.2957   19.4630 H   0  0  0  0  0  0
    5.2468   54.8901   18.3601 H   0  0  0  0  0  0
    3.6059   53.0871   18.6640 H   0  0  0  0  0  0
    5.2221   52.5222   19.0097 H   0  0  0  0  0  0
    5.9042   52.3059   21.5416 H   0  0  0  0  0  0
    4.6865   52.7085   22.6782 H   0  0  0  0  0  0
    1.0430   49.8528   18.9855 H   0  0  0  0  0  0
    0.6239   48.7527   21.2191 H   0  0  0  0  0  0
    1.9207   49.6441   23.1924 H   0  0  0  0  0  0
   -0.9430   50.0705   27.7744 H   0  0  0  0  0  0
   -2.0697   49.1890   26.0819 H   0  0  0  0  0  0
   -2.1942   50.0381   24.5744 H   0  0  0  0  0  0
   -4.4124   49.7823   25.6549 H   0  0  0  0  0  0
   -3.3006   51.3765   27.9735 H   0  0  0  0  0  0
   -4.0257   49.7953   28.0536 H   0  0  0  0  0  0
   -5.4910   52.0818   28.4558 H   0  0  0  0  0  0
   -6.2076   50.7544   27.5595 H   0  0  0  0  0  0
   -5.3896   53.3917   26.5005 H   0  0  0  0  0  0
   -6.3955   52.1650   25.7544 H   0  0  0  0  0  0
   -4.5008   51.7958   24.3356 H   0  0  0  0  0  0
   -3.5078   52.6635   25.4816 H   0  0  0  0  0  0
    6.4664   54.0970   24.2023 N   0  3  0  0  0  0
    7.3856   54.0646   24.6156 H   0  0  0  0  0  0
    6.2208   53.1301   24.0466 H   0  0  0  0  0  0
  1  6  2  0  0  0
  1  2  1  0  0  0
  1 36  1  0  0  0
  2  3  2  0  0  0
  2 37  1  0  0  0
  3  4  1  0  0  0
  3 27  1  0  0  0
  4  5  2  0  0  0
  4 38  1  0  0  0
  5  6  1  0  0  0
  5  7  1  0  0  0
  6 39  1  0  0  0
  7 12  1  0  0  0
  7  8  1  0  0  0
  8  9  1  0  0  0
  8 40  1  0  0  0
  8 41  1  0  0  0
  9 10  1  0  0  0
  9 42  1  0  0  0
  9 43  1  0  0  0
 10 11  1  0  0  0
 10 44  1  0  0  0
 10 74  1  0  0  0
 11 12  1  0  0  0
 11 45  1  0  0  0
 11 46  1  0  0  0
 12 47  1  0  0  0
 12 48  1  0  0  0
 13 14  1  0  0  0
 13 49  1  0  0  0
 13 50  1  0  0  0
 13 74  1  0  0  0
 14 15  1  0  0  0
 14 20  1  0  0  0
 14 16  1  0  0  0
 16 17  1  0  0  0
 16 51  1  0  0  0
 16 52  1  0  0  0
 17 18  1  0  0  0
 17 53  1  0  0  0
 17 54  1  0  0  0
 18 19  1  0  0  0
 18 55  1  0  0  0
 18 56  1  0  0  0
 19 20  1  0  0  0
 19 21  1  0  0  0
 20 57  1  0  0  0
 20 58  1  0  0  0
 21 26  2  0  0  0
 21 22  1  0  0  0
 22 23  2  0  0  0
 23 24  1  0  0  0
 23 59  1  0  0  0
 24 25  2  0  0  0
 24 60  1  0  0  0
 25 26  1  0  0  0
 25 61  1  0  0  0
 27 28  1  0  0  0
 27 62  1  0  0  0
 28 29  2  0  0  0
 28 30  1  0  0  0
 30 31  1  0  0  0
 30 63  1  0  0  0
 30 64  1  0  0  0
 31 35  1  0  0  0
 31 32  1  0  0  0
 31 65  1  0  0  0
 32 33  1  0  0  0
 32 66  1  0  0  0
 32 67  1  0  0  0
 33 34  1  0  0  0
 33 68  1  0  0  0
 33 69  1  0  0  0
 34 35  1  0  0  0
 34 70  1  0  0  0
 34 71  1  0  0  0
 35 72  1  0  0  0
 35 73  1  0  0  0
 74 75  1  0  0  0
 74 76  1  0  0  0
M  CHG  1  74   1
M  END
> <i_i_glide_confnum>
407

> <i_i_glide_lignum>
5078

> <i_i_glide_posenum>
310

> <i_i_glide_rotatable_bonds>
9

> <i_m_Source_File_Index>
1396

> <b_m_subgroup_collapsed>
0

> <r_i_docking_score>
-5.07677

> <r_i_glide_ecoul>
-1.90548

> <r_i_glide_eff_state_penalty>
0

> <r_i_glide_einternal>
8.65685

> <r_i_glide_emodel>
-54.9994

> <r_i_glide_energy>
-41.9405

> <r_i_glide_erotb>
0.710325

> <r_i_glide_esite>
-0.137016

> <r_i_glide_evdw>
-40.035

> <r_i_glide_gscore>
-5.07677

> <r_i_glide_hbond>
-0.16

> <r_i_glide_ligand_efficiency>
-0.145051

> <r_i_glide_ligand_efficiency_ln>
-1.11446

> <r_i_glide_ligand_efficiency_sa>
-0.47447

> <r_i_glide_lipo>
-2.86107

> <r_i_glide_metal>
0

> <r_i_glide_rewards>
-0.341442

> <s_i_glide_gridfile>
wee1_glide-grid

> <s_m_Source_File>
wee1_decoys_glide_SP.sdf

> <s_m_Source_Path>
/Users/zhangxujun/Desktop

> <s_m_entry_id>
1671

> <s_m_entry_name>
wee1_decoys_glide_SP.1396

> <s_m_subgroup_title>
wee1_decoys_glide_SP

> <s_m_subgroupid>
wee1_decoys_glide_SP


$$$$
