@<TRIPOS>MOLECULE
ZINC40295459_4684
31   32    1
SMALL
USER_CHARGES


@<TRIPOS>ATOM
      1 C1          4.0986   53.8907   21.3723 C.3       1 UNK         0.0000 
      2 C2          4.0849   53.9455   22.8803 C.ar      1 UNK         0.0000 
      3 C3          2.9958   53.8495   23.7553 C.ar      1 UNK         0.0000 
      4 C4          3.5187   53.9430   25.0372 C.ar      1 UNK         0.0000 
      5 N5          4.8709   54.1012   24.8424 N.pl3     1 UNK         0.0000 
      6 N6          5.2107   54.0967   23.5446 N.2       1 UNK         0.0000 
      7 C7          5.9180   54.2288   25.8477 C.3       1 UNK         0.0000 
      8 N8          2.9408   53.9019   26.2944 N.am      1 UNK         0.0000 
      9 C9          1.7698   53.2966   26.5929 C.2       1 UNK         0.0000 
     10 O10         1.1090   52.6284   25.7943 O.2       1 UNK         0.0000 
     11 C11         1.2993   53.4612   28.0221 C.ar      1 UNK         0.0000 
     12 C12         1.6595   54.5923   28.7728 C.ar      1 UNK         0.0000 
     13 C13         1.2160   54.7440   30.0816 C.ar      1 UNK         0.0000 
     14 C14         0.4084   53.7728   30.6660 C.ar      1 UNK         0.0000 
     15 C15         0.0012   52.6539   29.9285 C.ar      1 UNK         0.0000 
     16 C16         0.4523   52.5044   28.6122 C.ar      1 UNK         0.0000 
     17 N17        -0.8579   51.6967   30.4817 N.pl3     1 UNK         0.0000 
     18 Br18       -0.0954   54.0171   32.4817 Br        1 UNK         0.0000 
     19 H19         3.1058   53.6996   20.9635 H         1 UNK         0.0000 
     20 H20         4.7502   53.0989   21.0013 H         1 UNK         0.0000 
     21 H21         4.4476   54.8280   20.9391 H         1 UNK         0.0000 
     22 H22         1.9586   53.7181   23.4832 H         1 UNK         0.0000 
     23 H23         5.6708   55.0454   26.5262 H         1 UNK         0.0000 
     24 H24         5.9876   53.2966   26.4091 H         1 UNK         0.0000 
     25 H25         6.8824   54.4348   25.3798 H         1 UNK         0.0000 
     26 H26         3.5019   54.2293   27.0644 H         1 UNK         0.0000 
     27 H27         2.2752   55.3747   28.3519 H         1 UNK         0.0000 
     28 H28         1.5011   55.6191   30.6485 H         1 UNK         0.0000 
     29 H29         0.1388   51.6369   28.0464 H         1 UNK         0.0000 
     30 H30        -1.0922   51.7306   31.4813 H         1 UNK         0.0000 
     31 H31        -1.0857   50.8588   29.9605 H         1 UNK         0.0000 
@<TRIPOS>BOND
     1    1    2 1    
     2    1   19 1    
     3    1   20 1    
     4    1   21 1    
     5    2    6 ar   
     6    2    3 ar   
     7    3    4 ar   
     8    3   22 1    
     9    4    5 ar   
    10    4    8 1    
    11    5    6 ar   
    12    5    7 1    
    13    7   23 1    
    14    7   24 1    
    15    7   25 1    
    16    8    9 am   BACKBONE|DICT|INTERRES
    17    8   26 1    
    18    9   10 2    
    19    9   11 1    
    20   11   16 ar   
    21   11   12 ar   
    22   12   13 ar   
    23   12   27 1    
    24   13   14 ar   
    25   13   28 1    
    26   14   15 ar   
    27   14   18 1    
    28   15   16 ar   
    29   15   17 1    
    30   16   29 1    
    31   17   30 1    
    32   17   31 1    
@<TRIPOS>SUBSTRUCTURE
     1 UNK         1 GROUP             0       ****    0 ROOT    
