@<TRIPOS>MOLECULE
ZINC38550662_5110
63   67    1
SMALL
USER_CHARGES


@<TRIPOS>ATOM
      1 C1          0.4675   52.9745   32.4638 C.3       1 UNK         0.0000 
      2 O2          1.0855   52.0968   31.5356 O.3       1 UNK         0.0000 
      3 C3          1.2444   52.5203   30.2360 C.ar      1 UNK         0.0000 
      4 C4          1.5040   51.5501   29.2817 C.ar      1 UNK         0.0000 
      5 C5          1.7171   51.8749   27.9630 C.ar      1 UNK         0.0000 
      6 C6          1.6386   53.1944   27.5257 C.ar      1 UNK         0.0000 
      7 C7          1.3869   54.2030   28.4822 C.ar      1 UNK         0.0000 
      8 C8          1.1816   53.8531   29.8253 C.ar      1 UNK         0.0000 
      9 O9          1.4019   55.5179   28.0817 O.3       1 UNK         0.0000 
     10 C10         1.6095   56.5494   29.0444 C.3       1 UNK         0.0000 
     11 C11         1.7886   53.4685   26.0125 C.3       1 UNK         0.0000 
     12 H12         1.1045   54.2838   25.7993 H         1 UNK         0.0000 
     13 C13         3.1996   53.8762   25.4944 C.2       1 UNK         0.0000 
     14 C14         4.3625   54.1994   26.2659 C.2       1 UNK         0.0000 
     15 C15         5.4768   54.5106   25.4700 C.2       1 UNK         0.0000 
     16 S16         5.1424   54.4913   23.7970 S.3       1 UNK         0.0000 
     17 C17         3.5275   53.9326   24.1163 C.2       1 UNK         0.0000 
     18 N18         2.7004   53.5843   23.0524 N.am      1 UNK         0.0000 
     19 C19         3.0772   52.8525   21.9773 C.2       1 UNK         0.0000 
     20 O20         4.2354   52.5531   21.6815 O.2       1 UNK         0.0000 
     21 C21         1.9822   52.3702   21.1793 C.2       1 UNK         0.0000 
     22 C22         1.9846   51.6941   19.9638 C.2       1 UNK         0.0000 
     23 C23         0.6557   51.3936   19.6647 C.2       1 UNK         0.0000 
     24 C24        -0.1011   51.8801   20.7169 C.2       1 UNK         0.0000 
     25 O25         0.7013   52.4776   21.6351 O.3       1 UNK         0.0000 
     26 C26         6.8599   54.8532   25.9718 C.3       1 UNK         0.0000 
     27 C27         7.0367   54.1974   27.3482 C.3       1 UNK         0.0000 
     28 C28         5.8975   54.6083   28.2804 C.3       1 UNK         0.0000 
     29 C29         4.5045   54.1611   27.7937 C.3       1 UNK         0.0000 
     30 N30         1.2033   52.3891   25.1758 N.pl3     1 UNK         0.0000 
     31 C31        -0.0706   51.7583   25.2835 C.ar      1 UNK         0.0000 
     32 C32        -1.0500   52.0972   26.2279 C.ar      1 UNK         0.0000 
     33 C33        -2.2324   51.3545   26.2996 C.ar      1 UNK         0.0000 
     34 C34        -2.4321   50.2913   25.4164 C.ar      1 UNK         0.0000 
     35 C35        -1.4442   49.9894   24.4766 C.ar      1 UNK         0.0000 
     36 N36        -0.3155   50.7280   24.4482 N.pl3     1 UNK         0.0000 
     37 H37         0.3053   52.4662   33.4135 H         1 UNK         0.0000 
     38 H38         1.0920   53.8275   32.6757 H         1 UNK         0.0000 
     39 H39        -0.4956   53.3251   32.0900 H         1 UNK         0.0000 
     40 H40         1.5045   50.5032   29.5211 H         1 UNK         0.0000 
     41 H41         1.9015   51.0626   27.2819 H         1 UNK         0.0000 
     42 H42         0.9809   54.6198   30.5556 H         1 UNK         0.0000 
     43 H43         1.8960   57.4607   28.5225 H         1 UNK         0.0000 
     44 H44         0.7062   56.7520   29.6211 H         1 UNK         0.0000 
     45 H45         2.4246   56.3179   29.7306 H         1 UNK         0.0000 
     46 H46         1.7074   53.6906   23.1947 H         1 UNK         0.0000 
     47 H47         2.8538   51.4432   19.3689 H         1 UNK         0.0000 
     48 H48         0.2937   50.8748   18.7889 H         1 UNK         0.0000 
     49 H49        -1.1589   51.8785   20.9350 H         1 UNK         0.0000 
     50 H50         7.6101   54.5002   25.2658 H         1 UNK         0.0000 
     51 H51         6.9740   55.9366   26.0377 H         1 UNK         0.0000 
     52 H52         7.0776   53.1089   27.2560 H         1 UNK         0.0000 
     53 H53         7.9753   54.5051   27.7937 H         1 UNK         0.0000 
     54 H54         6.0792   54.2246   29.2815 H         1 UNK         0.0000 
     55 H55         5.9044   55.6943   28.3789 H         1 UNK         0.0000 
     56 H56         3.8044   54.8386   28.2659 H         1 UNK         0.0000 
     57 H57         4.3028   53.1565   28.1646 H         1 UNK         0.0000 
     58 H58         1.8436   52.0112   24.4911 H         1 UNK         0.0000 
     59 H59        -0.8951   52.8992   26.9312 H         1 UNK         0.0000 
     60 H60        -2.9784   51.5863   27.0459 H         1 UNK         0.0000 
     61 H61        -3.3347   49.7002   25.4753 H         1 UNK         0.0000 
     62 H62        -1.5066   49.1773   23.7663 H         1 UNK         0.0000 
     63 H63         0.4010   50.4766   23.7816 H         1 UNK         0.0000 
@<TRIPOS>BOND
     1    1    2 1    
     2    1   37 1    
     3    1   38 1    
     4    1   39 1    
     5    2    3 1    
     6    3    8 ar   
     7    3    4 ar   
     8    4    5 ar   
     9    4   40 1    
    10    5    6 ar   
    11    5   41 1    
    12    6    7 ar   
    13    6   11 1    
    14    7    8 ar   
    15    7    9 1    
    16    8   42 1    
    17    9   10 1    
    18   10   43 1    
    19   10   44 1    
    20   10   45 1    
    21   11   12 1    
    22   11   13 1    
    23   11   30 1    
    24   13   17 2    
    25   13   14 1    
    26   14   29 1    
    27   14   15 2    
    28   15   16 1    
    29   15   26 1    
    30   16   17 1    
    31   17   18 am   BACKBONE|DICT|INTERRES
    32   18   19 am   BACKBONE|DICT|INTERRES
    33   18   46 1    
    34   19   20 2    
    35   19   21 1    
    36   21   25 1    
    37   21   22 2    
    38   22   23 1    
    39   22   47 1    
    40   23   24 2    
    41   23   48 1    
    42   24   25 1    
    43   24   49 1    
    44   26   27 1    
    45   26   50 1    
    46   26   51 1    
    47   27   28 1    
    48   27   52 1    
    49   27   53 1    
    50   28   29 1    
    51   28   54 1    
    52   28   55 1    
    53   29   56 1    
    54   29   57 1    
    55   30   31 1    
    56   30   58 1    
    57   31   36 ar   
    58   31   32 ar   
    59   32   33 ar   
    60   32   59 1    
    61   33   34 ar   
    62   33   60 1    
    63   34   35 ar   
    64   34   61 1    
    65   35   36 ar   
    66   35   62 1    
    67   36   63 1    
@<TRIPOS>SUBSTRUCTURE
     1 UNK         1 GROUP             0       ****    0 ROOT    
