ZINC09280971_5475
                    3D
 Schrodinger Suite 2024-2.
 62 66  0  0  1  0            999 V2000
    5.6651   54.1242   13.6835 C   0  0  0  0  0  0
    5.4347   53.9873   15.1769 C   0  0  0  0  0  0
    4.5037   53.0576   15.6496 C   0  0  0  0  0  0
    4.2490   52.9107   17.0134 C   0  0  0  0  0  0
    4.9789   53.7278   17.8848 C   0  0  0  0  0  0
    5.9303   54.6726   17.4443 C   0  0  0  0  0  0
    6.1497   54.8060   16.0612 C   0  0  0  0  0  0
    6.4574   55.2861   18.6324 C   0  0  0  0  0  0
    5.7695   54.6785   19.6953 C   0  0  0  0  0  0
    4.8843   53.7342   19.2409 O   0  0  0  0  0  0
    5.8620   54.8964   21.1260 C   0  0  0  0  0  0
    6.7034   55.6623   21.6022 O   0  0  0  0  0  0
    4.9472   54.1902   21.8342 N   0  0  0  0  0  0
    4.7399   54.1528   23.2139 C   0  0  0  0  0  0
    3.5530   53.7421   23.8673 C   0  0  0  0  0  0
    3.6687   53.9093   25.2886 C   0  0  0  0  0  0
    4.9500   54.3486   25.6691 C   0  0  0  0  0  0
    5.9953   54.6155   24.3295 S   0  0  0  0  0  0
    5.4236   54.6216   27.0883 C   0  0  0  0  0  0
    4.4358   53.9857   28.0882 C   0  0  2  0  0  0
    4.6038   52.9045   28.0938 H   0  0  0  0  0  0
    2.9838   54.3064   27.6980 C   0  0  0  0  0  0
    2.5857   53.6630   26.3572 C   0  0  0  0  0  0
    4.7438   54.4953   29.5043 C   0  0  0  0  0  0
    2.4122   53.1724   23.1396 C   0  0  0  0  0  0
    2.4859   52.8949   21.9415 O   0  0  0  0  0  0
    1.2992   52.9274   23.8517 N   0  0  0  0  0  0
    0.0892   52.2710   23.3552 C   0  0  2  0  0  0
    0.0264   52.4863   22.2838 H   0  0  0  0  0  0
   -1.1816   52.8091   24.0430 C   0  0  0  0  0  0
   -1.2801   52.2075   25.4572 C   0  0  0  0  0  0
   -0.4978   50.5062   25.3186 S   0  0  0  0  0  0
   -1.5386   49.4743   25.2817 O   0  0  0  0  0  0
    0.6159   50.4306   26.2680 O   0  0  0  0  0  0
    0.1471   50.7558   23.5754 C   0  0  0  0  0  0
    7.5147   56.3720   18.6725 C   0  0  0  0  0  0
    6.4675   53.4621   13.3560 H   0  0  0  0  0  0
    4.7612   53.8803   13.1242 H   0  0  0  0  0  0
    5.9273   55.1497   13.4197 H   0  0  0  0  0  0
    3.9721   52.4285   14.9507 H   0  0  0  0  0  0
    3.5439   52.1779   17.3826 H   0  0  0  0  0  0
    6.8674   55.5227   15.6912 H   0  0  0  0  0  0
    4.2213   53.7364   21.2900 H   0  0  0  0  0  0
    6.4237   54.2113   27.2458 H   0  0  0  0  0  0
    5.4937   55.6964   27.2469 H   0  0  0  0  0  0
    2.3098   53.9486   28.4764 H   0  0  0  0  0  0
    2.8223   55.3853   27.6855 H   0  0  0  0  0  0
    1.6271   54.0965   26.0784 H   0  0  0  0  0  0
    2.4277   52.5920   26.4965 H   0  0  0  0  0  0
    4.3859   55.5101   29.6599 H   0  0  0  0  0  0
    4.2955   53.8609   30.2657 H   0  0  0  0  0  0
    5.8185   54.5035   29.6803 H   0  0  0  0  0  0
    1.3077   53.1623   24.8311 H   0  0  0  0  0  0
   -2.0546   52.5236   23.4537 H   0  0  0  0  0  0
   -1.1889   53.9002   24.0640 H   0  0  0  0  0  0
   -2.2779   52.1209   25.8877 H   0  0  0  0  0  0
   -0.6673   52.7853   26.1495 H   0  0  0  0  0  0
    1.0989   50.2424   23.4434 H   0  0  0  0  0  0
   -0.5942   50.2954   22.9238 H   0  0  0  0  0  0
    8.1714   56.3356   17.7985 H   0  0  0  0  0  0
    7.0627   57.3666   18.6922 H   0  0  0  0  0  0
    8.1629   56.2936   19.5475 H   0  0  0  0  0  0
  1  2  1  0  0  0
  1 37  1  0  0  0
  1 38  1  0  0  0
  1 39  1  0  0  0
  2  7  2  0  0  0
  2  3  1  0  0  0
  3  4  2  0  0  0
  3 40  1  0  0  0
  4  5  1  0  0  0
  4 41  1  0  0  0
  5 10  1  0  0  0
  5  6  2  0  0  0
  6  7  1  0  0  0
  6  8  1  0  0  0
  7 42  1  0  0  0
  8  9  2  0  0  0
  8 36  1  0  0  0
  9 10  1  0  0  0
  9 11  1  0  0  0
 11 12  2  0  0  0
 11 13  1  0  0  0
 13 14  1  0  0  0
 13 43  1  0  0  0
 14 18  1  0  0  0
 14 15  2  0  0  0
 15 16  1  0  0  0
 15 25  1  0  0  0
 16 23  1  0  0  0
 16 17  2  0  0  0
 17 18  1  0  0  0
 17 19  1  0  0  0
 19 20  1  0  0  0
 19 44  1  0  0  0
 19 45  1  0  0  0
 20 21  1  0  0  0
 20 22  1  0  0  0
 20 24  1  0  0  0
 22 23  1  0  0  0
 22 46  1  0  0  0
 22 47  1  0  0  0
 23 48  1  0  0  0
 23 49  1  0  0  0
 24 50  1  0  0  0
 24 51  1  0  0  0
 24 52  1  0  0  0
 25 26  2  0  0  0
 25 27  1  0  0  0
 27 28  1  0  0  0
 27 53  1  0  0  0
 28 29  1  0  0  0
 28 35  1  0  0  0
 28 30  1  0  0  0
 30 31  1  0  0  0
 30 54  1  0  0  0
 30 55  1  0  0  0
 31 32  1  0  0  0
 31 56  1  0  0  0
 31 57  1  0  0  0
 32 33  2  0  0  0
 32 34  2  0  0  0
 32 35  1  0  0  0
 35 58  1  0  0  0
 35 59  1  0  0  0
 36 60  1  0  0  0
 36 61  1  0  0  0
 36 62  1  0  0  0
M  END
> <i_i_glide_confnum>
209

> <i_i_glide_lignum>
5476

> <i_i_glide_posenum>
229

> <i_i_glide_rotatable_bonds>
6

> <i_m_Source_File_Index>
4684

> <b_m_subgroup_collapsed>
0

> <r_i_docking_score>
-4.75244

> <r_i_glide_ecoul>
1.45303

> <r_i_glide_eff_state_penalty>
0

> <r_i_glide_einternal>
5.42992

> <r_i_glide_emodel>
-46.735

> <r_i_glide_energy>
-39.1463

> <r_i_glide_erotb>
0.488866

> <r_i_glide_esite>
-0.134029

> <r_i_glide_evdw>
-40.5993

> <r_i_glide_gscore>
-4.75244

> <r_i_glide_hbond>
0

> <r_i_glide_ligand_efficiency>
-0.139778

> <r_i_glide_ligand_efficiency_ln>
-1.04995

> <r_i_glide_ligand_efficiency_sa>
-0.452825

> <r_i_glide_lipo>
-2.68412

> <r_i_glide_metal>
0

> <r_i_glide_rewards>
-0.611145

> <s_i_glide_gridfile>
wee1_glide-grid

> <s_m_Source_File>
wee1_decoys_glide_SP.sdf

> <s_m_Source_Path>
/Users/zhangxujun/Desktop

> <s_m_entry_id>
4959

> <s_m_entry_name>
wee1_decoys_glide_SP.4684

> <s_m_subgroup_title>
wee1_decoys_glide_SP

> <s_m_subgroupid>
wee1_decoys_glide_SP


$$$$
