@<TRIPOS>MOLECULE
ZINC00747584_4338
60   63    1
SMALL
USER_CHARGES


@<TRIPOS>ATOM
      1 C1          7.2286   54.2079   17.5674 C.ar      1 UNK         0.0000 
      2 C2          6.0906   54.0525   18.3540 C.ar      1 UNK         0.0000 
      3 C3          6.0557   54.5781   19.6457 C.ar      1 UNK         0.0000 
      4 C4          7.1548   55.2995   20.1349 C.ar      1 UNK         0.0000 
      5 C5          8.2918   55.4544   19.3455 C.ar      1 UNK         0.0000 
      6 C6          8.3387   54.9025   18.0609 C.ar      1 UNK         0.0000 
      7 C7          9.5960   55.0785   17.2080 C.3       1 UNK         0.0000 
      8 F8         10.0101   56.3481   17.2496 F         1 UNK         0.0000 
      9 F9         10.5650   54.2949   17.6823 F         1 UNK         0.0000 
     10 F10         9.3882   54.7550   15.9295 F         1 UNK         0.0000 
     11 N11         4.8848   54.3558   20.3887 N.am      1 UNK         0.0000 
     12 C12         4.7815   54.2020   21.7229 C.2       1 UNK         0.0000 
     13 O13         5.7385   54.1849   22.4996 O.2       1 UNK         0.0000 
     14 N14         3.4912   54.0512   22.0821 N.am      1 UNK         0.0000 
     15 C15         2.9637   53.7889   23.3613 C.ar      1 UNK         0.0000 
     16 C16         3.6128   54.0980   24.5577 C.ar      1 UNK         0.0000 
     17 C17         3.0071   53.8030   25.7725 C.ar      1 UNK         0.0000 
     18 C18         1.7580   53.1666   25.8484 C.ar      1 UNK         0.0000 
     19 C19         1.1087   52.8015   24.6325 C.ar      1 UNK         0.0000 
     20 C20         1.7044   53.1951   23.4174 C.ar      1 UNK         0.0000 
     21 C21        -0.2888   52.1902   24.5828 C.2       1 UNK         0.0000 
     22 O22        -1.1231   52.5050   25.4329 O.2       1 UNK         0.0000 
     23 N23        -0.6129   51.3313   23.5702 N.am      1 UNK         0.0000 
     24 C24         0.3774   50.4435   22.9276 C.3       1 UNK         0.0000 
     25 C25         0.4788   49.1725   23.7887 C.3       1 UNK         0.0000 
     26 C26        -0.8872   48.4799   23.9760 C.3       1 UNK         0.0000 
     27 C27        -1.9799   49.4837   24.4011 C.3       1 UNK         0.0000 
     28 C28        -1.9756   50.7577   23.5172 C.3       1 UNK         0.0000 
     29 N29         1.2360   52.9463   27.1410 N.pl3     1 UNK         0.0000 
     30 C30         1.4205   53.8419   28.2916 C.3       1 UNK         0.0000 
     31 C31         0.7234   53.2533   29.5201 C.3       1 UNK         0.0000 
     32 C32        -0.0485   52.0808   28.9527 C.3       1 UNK         0.0000 
     33 C33         0.7628   51.6893   27.7215 C.3       1 UNK         0.0000 
     34 H34         7.2428   53.7738   16.5782 H         1 UNK         0.0000 
     35 H35         5.2520   53.4935   17.9617 H         1 UNK         0.0000 
     36 H36         7.1435   55.7282   21.1259 H         1 UNK         0.0000 
     37 H37         9.1426   55.9952   19.7361 H         1 UNK         0.0000 
     38 H38         4.0636   54.1502   19.8401 H         1 UNK         0.0000 
     39 H39         2.8112   54.0599   21.3352 H         1 UNK         0.0000 
     40 H40         4.5750   54.5859   24.5705 H         1 UNK         0.0000 
     41 H41         3.5437   54.0718   26.6685 H         1 UNK         0.0000 
     42 H42         1.1878   53.0212   22.4823 H         1 UNK         0.0000 
     43 H43         1.3416   50.8941   22.7059 H         1 UNK         0.0000 
     44 H44        -0.0119   50.1956   21.9388 H         1 UNK         0.0000 
     45 H45         0.9271   49.4053   24.7574 H         1 UNK         0.0000 
     46 H46         1.1711   48.4947   23.2945 H         1 UNK         0.0000 
     47 H47        -1.1791   48.0053   23.0389 H         1 UNK         0.0000 
     48 H48        -0.8035   47.6794   24.7127 H         1 UNK         0.0000 
     49 H49        -2.9583   49.0050   24.3506 H         1 UNK         0.0000 
     50 H50        -1.8459   49.7594   25.4490 H         1 UNK         0.0000 
     51 H51        -2.7437   51.4914   23.7675 H         1 UNK         0.0000 
     52 H52        -2.1821   50.5011   22.4778 H         1 UNK         0.0000 
     53 H53         2.4823   53.9565   28.5099 H         1 UNK         0.0000 
     54 H54         1.0537   54.8429   28.0626 H         1 UNK         0.0000 
     55 H55         1.4549   52.9057   30.2520 H         1 UNK         0.0000 
     56 H56         0.0567   53.9681   30.0040 H         1 UNK         0.0000 
     57 H57        -1.0605   52.3567   28.6540 H         1 UNK         0.0000 
     58 H58        -0.1484   51.2713   29.6738 H         1 UNK         0.0000 
     59 H59         0.1432   51.1367   27.0186 H         1 UNK         0.0000 
     60 H60         1.5996   51.0217   27.9305 H         1 UNK         0.0000 
@<TRIPOS>BOND
     1    1    6 ar   
     2    1    2 ar   
     3    1   34 1    
     4    2    3 ar   
     5    2   35 1    
     6    3    4 ar   
     7    3   11 1    
     8    4    5 ar   
     9    4   36 1    
    10    5    6 ar   
    11    5   37 1    
    12    6    7 1    
    13    7    8 1    
    14    7    9 1    
    15    7   10 1    
    16   11   12 am   BACKBONE|DICT|INTERRES
    17   11   38 1    
    18   12   13 2    
    19   12   14 am   BACKBONE|DICT|INTERRES
    20   14   15 1    
    21   14   39 1    
    22   15   20 ar   
    23   15   16 ar   
    24   16   17 ar   
    25   16   40 1    
    26   17   18 ar   
    27   17   41 1    
    28   18   19 ar   
    29   18   29 1    
    30   19   20 ar   
    31   19   21 1    
    32   20   42 1    
    33   21   22 2    
    34   21   23 am   BACKBONE|DICT|INTERRES
    35   23   28 1    
    36   23   24 1    
    37   24   25 1    
    38   24   43 1    
    39   24   44 1    
    40   25   26 1    
    41   25   45 1    
    42   25   46 1    
    43   26   27 1    
    44   26   47 1    
    45   26   48 1    
    46   27   28 1    
    47   27   49 1    
    48   27   50 1    
    49   28   51 1    
    50   28   52 1    
    51   29   33 1    
    52   29   30 1    
    53   30   31 1    
    54   30   53 1    
    55   30   54 1    
    56   31   32 1    
    57   31   55 1    
    58   31   56 1    
    59   32   33 1    
    60   32   57 1    
    61   32   58 1    
    62   33   59 1    
    63   33   60 1    
@<TRIPOS>SUBSTRUCTURE
     1 UNK         1 GROUP             0       ****    0 ROOT    
