@<TRIPOS>MOLECULE
ZINC13685014_5034
64   67    1
SMALL
USER_CHARGES


@<TRIPOS>ATOM
      1 C1          6.4824   54.9123   24.4884 C.ar      1 UNK         0.0000 
      2 C2          5.6051   54.9174   25.5636 C.ar      1 UNK         0.0000 
      3 C3          4.2908   54.4962   25.3900 C.ar      1 UNK         0.0000 
      4 C4          3.8274   54.0461   24.1388 C.ar      1 UNK         0.0000 
      5 C5          4.7198   54.0637   23.0292 C.ar      1 UNK         0.0000 
      6 C6          6.0445   54.4949   23.2371 C.ar      1 UNK         0.0000 
      7 C7          4.3073   53.6170   21.6336 C.2       1 UNK         0.0000 
      8 O8          3.4377   52.7601   21.4692 O.2       1 UNK         0.0000 
      9 N9          4.9256   54.2354   20.6091 N.am      1 UNK         0.0000 
     10 C10         4.7064   53.9890   19.1785 C.3       1 UNK         0.0000 
     11 C11         4.3043   55.2919   18.4442 C.3       1 UNK         0.0000 
     12 C12         5.4075   56.3740   18.4807 C.3       1 UNK         0.0000 
     13 C13         6.7355   55.8430   17.9039 C.3       1 UNK         0.0000 
     14 C14         7.1520   54.4942   18.5274 C.3       1 UNK         0.0000 
     15 C15         5.9931   53.4701   18.4920 C.3       1 UNK         0.0000 
     16 N16         2.5070   53.5526   23.9554 N.am      1 UNK         0.0000 
     17 C17         1.5652   53.1785   24.8557 C.2       1 UNK         0.0000 
     18 O18         1.7063   53.2968   26.0733 O.2       1 UNK         0.0000 
     19 C19         0.2068   52.6397   24.3010 C.3       1 UNK         0.0000 
     20 C20         0.3844   51.8285   22.9796 C.3       1 UNK         0.0000 
     21 C21         1.0513   50.4538   23.1902 C.3       1 UNK         0.0000 
     22 N22         0.3048   49.6608   24.1999 N.pl3     1 UNK         0.0000 
     23 C23         0.1337   50.3181   25.5206 C.3       1 UNK         0.0000 
     24 C24        -0.4968   51.7267   25.3619 C.3       1 UNK         0.0000 
     25 S25        -0.9444   48.5083   23.6666 S.o2      1 UNK         0.0000 
     26 O26        -0.8957   48.4206   22.2023 O.2       1 UNK         0.0000 
     27 O27        -0.8082   47.2962   24.4814 O.2       1 UNK         0.0000 
     28 C28        -2.5163   49.2492   24.1125 C.ar      1 UNK         0.0000 
     29 C29        -3.0290   49.0436   25.3976 C.ar      1 UNK         0.0000 
     30 C30        -4.2227   49.6541   25.7721 C.ar      1 UNK         0.0000 
     31 C31        -4.9003   50.4630   24.8619 C.ar      1 UNK         0.0000 
     32 C32        -4.3947   50.6631   23.5781 C.ar      1 UNK         0.0000 
     33 C33        -3.1974   50.0581   23.1999 C.ar      1 UNK         0.0000 
     34 Cl34       -6.3744   51.2300   25.3274 Cl        1 UNK         0.0000 
     35 H35         7.5044   55.2349   24.6145 H         1 UNK         0.0000 
     36 H36         5.9390   55.2462   26.5369 H         1 UNK         0.0000 
     37 H37         3.6554   54.5316   26.2586 H         1 UNK         0.0000 
     38 H38         6.7660   54.5005   22.4321 H         1 UNK         0.0000 
     39 H39         5.6116   54.9388   20.8297 H         1 UNK         0.0000 
     40 H40         3.9139   53.2476   19.0419 H         1 UNK         0.0000 
     41 H41         3.3897   55.6915   18.8781 H         1 UNK         0.0000 
     42 H42         4.0519   55.0625   17.4079 H         1 UNK         0.0000 
     43 H43         5.5614   56.7131   19.5062 H         1 UNK         0.0000 
     44 H44         5.0839   57.2531   17.9210 H         1 UNK         0.0000 
     45 H45         7.5266   56.5816   18.0427 H         1 UNK         0.0000 
     46 H46         6.6261   55.7171   16.8250 H         1 UNK         0.0000 
     47 H47         7.4763   54.6526   19.5573 H         1 UNK         0.0000 
     48 H48         8.0175   54.0911   17.9994 H         1 UNK         0.0000 
     49 H49         5.7697   53.2018   17.4582 H         1 UNK         0.0000 
     50 H50         6.3038   52.5363   18.9623 H         1 UNK         0.0000 
     51 H51         2.3069   53.3327   22.9872 H         1 UNK         0.0000 
     52 H52        -0.3622   53.5537   24.1306 H         1 UNK         0.0000 
     53 H53        -0.6005   51.6996   22.5280 H         1 UNK         0.0000 
     54 H54         0.8633   52.4246   22.2022 H         1 UNK         0.0000 
     55 H55         1.1181   49.8863   22.2619 H         1 UNK         0.0000 
     56 H56         2.0722   50.5857   23.5520 H         1 UNK         0.0000 
     57 H57        -0.4646   49.6761   26.1683 H         1 UNK         0.0000 
     58 H58         1.1039   50.3981   25.9981 H         1 UNK         0.0000 
     59 H59        -0.6001   52.2413   26.3189 H         1 UNK         0.0000 
     60 H60        -1.5516   51.6606   25.0998 H         1 UNK         0.0000 
     61 H61        -2.4982   48.4294   26.1154 H         1 UNK         0.0000 
     62 H62        -4.6109   49.5045   26.7689 H         1 UNK         0.0000 
     63 H63        -4.9287   51.2930   22.8823 H         1 UNK         0.0000 
     64 H64        -2.8012   50.2202   22.2086 H         1 UNK         0.0000 
@<TRIPOS>BOND
     1    1    6 ar   
     2    1    2 ar   
     3    1   35 1    
     4    2    3 ar   
     5    2   36 1    
     6    3    4 ar   
     7    3   37 1    
     8    4    5 ar   
     9    4   16 1    
    10    5    6 ar   
    11    5    7 1    
    12    6   38 1    
    13    7    8 2    
    14    7    9 am   BACKBONE|DICT|INTERRES
    15    9   10 1    
    16    9   39 1    
    17   10   15 1    
    18   10   11 1    
    19   10   40 1    
    20   11   12 1    
    21   11   41 1    
    22   11   42 1    
    23   12   13 1    
    24   12   43 1    
    25   12   44 1    
    26   13   14 1    
    27   13   45 1    
    28   13   46 1    
    29   14   15 1    
    30   14   47 1    
    31   14   48 1    
    32   15   49 1    
    33   15   50 1    
    34   16   17 am   BACKBONE|DICT|INTERRES
    35   16   51 1    
    36   17   18 2    
    37   17   19 1    
    38   19   24 1    
    39   19   20 1    
    40   19   52 1    
    41   20   21 1    
    42   20   53 1    
    43   20   54 1    
    44   21   22 1    
    45   21   55 1    
    46   21   56 1    
    47   22   23 1    
    48   22   25 1    
    49   23   24 1    
    50   23   57 1    
    51   23   58 1    
    52   24   59 1    
    53   24   60 1    
    54   25   26 2    
    55   25   27 2    
    56   25   28 1    
    57   28   33 ar   
    58   28   29 ar   
    59   29   30 ar   
    60   29   61 1    
    61   30   31 ar   
    62   30   62 1    
    63   31   32 ar   
    64   31   34 1    
    65   32   33 ar   
    66   32   63 1    
    67   33   64 1    
@<TRIPOS>SUBSTRUCTURE
     1 UNK         1 GROUP             0       ****    0 ROOT    
