ZINC20534240_5489
                    3D
 Schrodinger Suite 2024-2.
 51 54  0  0  1  0            999 V2000
    1.1186   54.7070   29.9520 C   0  0  0  0  0  0
    1.9529   55.0932   28.9077 C   0  0  0  0  0  0
    1.9823   54.3681   27.7182 C   0  0  0  0  0  0
    1.1417   53.2389   27.5448 C   0  0  0  0  0  0
    1.1195   52.4968   26.3345 C   0  0  0  0  0  0
    0.3050   51.3690   26.2075 C   0  0  0  0  0  0
   -0.5116   50.9829   27.2679 C   0  0  0  0  0  0
   -0.5261   51.6971   28.4618 C   0  0  0  0  0  0
    0.2957   52.8371   28.6242 C   0  0  0  0  0  0
    0.3054   53.5835   29.8285 C   0  0  0  0  0  0
    0.3547   50.3679   24.7121 S   0  0  0  0  0  0
    0.2613   48.9661   25.1308 O   0  0  0  0  0  0
    1.5024   50.8296   23.9246 O   0  0  0  0  0  0
   -1.1013   50.7375   23.7810 N   0  0  0  0  0  0
   -2.4300   50.2804   24.2962 C   0  0  0  0  0  0
   -3.3492   51.4730   23.9993 C   0  0  0  0  0  0
   -2.4346   52.6438   23.6937 C   0  0  0  0  0  0
   -1.1991   52.0219   23.0332 C   0  0  2  0  0  0
   -0.3333   52.6651   23.1885 H   0  0  0  0  0  0
   -1.3650   51.6989   21.5108 C   0  0  0  0  0  0
   -2.4839   51.6439   20.9947 O   0  0  0  0  0  0
   -0.2325   51.4527   20.7651 O   0  0  0  0  0  0
    0.9395   52.0941   21.2429 N   0  0  0  0  0  0
    1.9569   51.9338   20.4815 C   0  0  0  0  0  0
    3.2041   52.6941   20.8042 C   0  0  0  0  0  0
    3.3886   53.2744   22.0770 C   0  0  0  0  0  0
    4.5098   54.0469   22.3808 C   0  0  0  0  0  0
    5.4800   54.2733   21.4078 C   0  0  0  0  0  0
    5.3283   53.7167   20.1419 C   0  0  0  0  0  0
    4.2199   52.9181   19.8516 C   0  0  0  0  0  0
    6.6369   54.0569   18.8022 Br  0  0  0  0  0  0
    2.0686   51.1456   19.3478 N   0  0  0  0  0  0
    1.1061   55.2817   30.8660 H   0  0  0  0  0  0
    2.5804   55.9649   29.0180 H   0  0  0  0  0  0
    2.6396   54.6704   26.9156 H   0  0  0  0  0  0
    1.7680   52.7970   25.5237 H   0  0  0  0  0  0
   -1.1227   50.0983   27.1865 H   0  0  0  0  0  0
   -1.1566   51.3686   29.2745 H   0  0  0  0  0  0
   -0.3290   53.2784   30.6491 H   0  0  0  0  0  0
   -2.4424   50.1498   25.3792 H   0  0  0  0  0  0
   -2.8285   49.4375   23.7247 H   0  0  0  0  0  0
   -4.0237   51.6922   24.8291 H   0  0  0  0  0  0
   -3.9833   51.2603   23.1361 H   0  0  0  0  0  0
   -2.1381   53.1296   24.6244 H   0  0  0  0  0  0
   -2.9127   53.4115   23.0835 H   0  0  0  0  0  0
    2.6492   53.1380   22.8539 H   0  0  0  0  0  0
    4.6162   54.4802   23.3656 H   0  0  0  0  0  0
    6.3395   54.8836   21.6353 H   0  0  0  0  0  0
    4.1532   52.5130   18.8519 H   0  0  0  0  0  0
    1.2730   50.5997   19.0534 H   0  0  0  0  0  0
    2.9639   50.9669   18.9087 H   0  0  0  0  0  0
  1 10  2  0  0  0
  1  2  1  0  0  0
  1 33  1  0  0  0
  2  3  2  0  0  0
  2 34  1  0  0  0
  3  4  1  0  0  0
  3 35  1  0  0  0
  4  9  2  0  0  0
  4  5  1  0  0  0
  5  6  2  0  0  0
  5 36  1  0  0  0
  6  7  1  0  0  0
  6 11  1  0  0  0
  7  8  2  0  0  0
  7 37  1  0  0  0
  8  9  1  0  0  0
  8 38  1  0  0  0
  9 10  1  0  0  0
 10 39  1  0  0  0
 11 12  2  0  0  0
 11 13  2  0  0  0
 11 14  1  0  0  0
 14 18  1  0  0  0
 14 15  1  0  0  0
 15 16  1  0  0  0
 15 40  1  0  0  0
 15 41  1  0  0  0
 16 17  1  0  0  0
 16 42  1  0  0  0
 16 43  1  0  0  0
 17 18  1  0  0  0
 17 44  1  0  0  0
 17 45  1  0  0  0
 18 19  1  0  0  0
 18 20  1  0  0  0
 20 21  2  0  0  0
 20 22  1  0  0  0
 22 23  1  0  0  0
 23 24  2  0  0  0
 24 25  1  0  0  0
 24 32  1  0  0  0
 25 30  2  0  0  0
 25 26  1  0  0  0
 26 27  2  0  0  0
 26 46  1  0  0  0
 27 28  1  0  0  0
 27 47  1  0  0  0
 28 29  2  0  0  0
 28 48  1  0  0  0
 29 30  1  0  0  0
 29 31  1  0  0  0
 30 49  1  0  0  0
 32 50  1  0  0  0
 32 51  1  0  0  0
M  END
> <i_i_glide_confnum>
186

> <i_i_glide_lignum>
5490

> <i_i_glide_posenum>
70

> <i_i_glide_rotatable_bonds>
6

> <i_m_Source_File_Index>
881

> <b_m_subgroup_collapsed>
0

> <r_i_docking_score>
-3.9292

> <r_i_glide_ecoul>
-2.31437

> <r_i_glide_eff_state_penalty>
0

> <r_i_glide_einternal>
7.35791

> <r_i_glide_emodel>
-50.3283

> <r_i_glide_energy>
-43.2012

> <r_i_glide_erotb>
0.40479

> <r_i_glide_esite>
-0.140467

> <r_i_glide_evdw>
-40.8868

> <r_i_glide_gscore>
-3.9292

> <r_i_glide_hbond>
-0.0230482

> <r_i_glide_ligand_efficiency>
-0.126748

> <r_i_glide_ligand_efficiency_ln>
-0.886154

> <r_i_glide_ligand_efficiency_sa>
-0.398165

> <r_i_glide_lipo>
-1.90492

> <r_i_glide_metal>
0

> <r_i_glide_rewards>
0.125943

> <s_i_glide_gridfile>
wee1_glide-grid

> <s_m_Source_File>
wee1_decoys_glide_SP.sdf

> <s_m_Source_Path>
/Users/zhangxujun/Desktop

> <s_m_entry_id>
1156

> <s_m_entry_name>
wee1_decoys_glide_SP.881

> <s_m_subgroup_title>
wee1_decoys_glide_SP

> <s_m_subgroupid>
wee1_decoys_glide_SP


$$$$
