@<TRIPOS>MOLECULE
ZINC11130107_4221
64   67    1
SMALL
USER_CHARGES


@<TRIPOS>ATOM
      1 C1          6.6097   54.3523   24.3070 C.3       1 UNK         0.0000 
      2 C2          5.7128   54.3388   25.5329 C.ar      1 UNK         0.0000 
      3 C3          4.3250   54.4246   25.3900 C.ar      1 UNK         0.0000 
      4 C4          3.5047   54.4062   26.5171 C.ar      1 UNK         0.0000 
      5 C5          4.0724   54.2959   27.7865 C.ar      1 UNK         0.0000 
      6 C6          5.4608   54.1943   27.9263 C.ar      1 UNK         0.0000 
      7 C7          6.2778   54.2100   26.8018 C.ar      1 UNK         0.0000 
      8 S8          3.0357   54.3629   29.2491 S.o2      1 UNK         0.0000 
      9 O9          2.4546   55.7097   29.2820 O.2       1 UNK         0.0000 
     10 O10         3.8729   53.8754   30.3515 O.2       1 UNK         0.0000 
     11 N11         1.7239   53.1898   29.0247 N.pl3     1 UNK         0.0000 
     12 C12         2.0234   51.7470   29.0296 C.3       1 UNK         0.0000 
     13 C13         1.6157   51.1406   27.6816 C.3       1 UNK         0.0000 
     14 C14         0.0943   51.3332   27.4599 C.3       1 UNK         0.0000 
     15 C15        -0.1723   52.8642   27.3926 C.3       1 UNK         0.0000 
     16 C16         0.3376   53.5947   28.6633 C.3       1 UNK         0.0000 
     17 C17        -0.2850   50.7190   26.0866 C.2       1 UNK         0.0000 
     18 O18         0.2273   51.1746   25.0600 O.2       1 UNK         0.0000 
     19 N19        -1.1781   49.7024   26.0817 N.am      1 UNK         0.0000 
     20 C20        -1.6867   49.1354   24.9216 C.2       1 UNK         0.0000 
     21 C21        -2.3032   49.7184   23.7881 C.2       1 UNK         0.0000 
     22 C22        -2.4943   48.7482   22.7668 C.2       1 UNK         0.0000 
     23 C23        -2.2173   47.4441   23.2124 C.2       1 UNK         0.0000 
     24 S24        -1.6112   47.4120   24.8323 S.3       1 UNK         0.0000 
     25 C25        -2.4883   46.1702   22.4222 C.3       1 UNK         0.0000 
     26 C26        -2.6403   46.5210   20.9298 C.3       1 UNK         0.0000 
     27 C27        -3.6034   47.7009   20.7285 C.3       1 UNK         0.0000 
     28 C28        -3.0697   49.0033   21.3644 C.3       1 UNK         0.0000 
     29 C29        -2.6322   51.1286   23.6303 C.2       1 UNK         0.0000 
     30 O30        -2.4951   51.7025   22.5446 O.2       1 UNK         0.0000 
     31 N31        -3.1606   51.6757   24.7486 N.am      1 UNK         0.0000 
     32 C32        -3.7167   52.8944   24.8900 C.2       1 UNK         0.0000 
     33 O33        -3.6835   53.8233   24.0788 O.2       1 UNK         0.0000 
     34 O34        -4.3519   52.8863   26.1067 O.3       1 UNK         0.0000 
     35 C35        -5.1532   54.0294   26.3827 C.3       1 UNK         0.0000 
     36 H36         6.0992   53.9278   23.4435 H         1 UNK         0.0000 
     37 H37         6.9186   55.3697   24.0669 H         1 UNK         0.0000 
     38 H38         7.5039   53.7479   24.4662 H         1 UNK         0.0000 
     39 H39         3.8808   54.5197   24.4092 H         1 UNK         0.0000 
     40 H40         2.4332   54.4869   26.4033 H         1 UNK         0.0000 
     41 H41         5.9172   54.1242   28.9015 H         1 UNK         0.0000 
     42 H42         7.3491   54.1295   26.9239 H         1 UNK         0.0000 
     43 H43         1.5034   51.2969   29.8740 H         1 UNK         0.0000 
     44 H44         3.0926   51.6142   29.2007 H         1 UNK         0.0000 
     45 H45         1.9044   50.0962   27.6892 H         1 UNK         0.0000 
     46 H46         2.1900   51.6978   26.9397 H         1 UNK         0.0000 
     47 H47        -0.5018   50.8306   28.2250 H         1 UNK         0.0000 
     48 H48         0.4037   53.2966   26.5751 H         1 UNK         0.0000 
     49 H49        -1.2362   53.0846   27.2888 H         1 UNK         0.0000 
     50 H50        -0.3029   53.3869   29.5207 H         1 UNK         0.0000 
     51 H51         0.3062   54.6749   28.5193 H         1 UNK         0.0000 
     52 H52        -1.2958   49.1782   26.9577 H         1 UNK         0.0000 
     53 H53        -1.6955   45.4364   22.5573 H         1 UNK         0.0000 
     54 H54        -3.4103   45.7103   22.7793 H         1 UNK         0.0000 
     55 H55        -1.6661   46.7673   20.5044 H         1 UNK         0.0000 
     56 H56        -2.9965   45.6494   20.3804 H         1 UNK         0.0000 
     57 H57        -3.7818   47.8627   19.6641 H         1 UNK         0.0000 
     58 H58        -4.5752   47.4541   21.1602 H         1 UNK         0.0000 
     59 H59        -3.8685   49.7459   21.3867 H         1 UNK         0.0000 
     60 H60        -2.2899   49.4299   20.7324 H         1 UNK         0.0000 
     61 H61        -3.2216   51.0737   25.5545 H         1 UNK         0.0000 
     62 H62        -5.6962   53.8832   27.3142 H         1 UNK         0.0000 
     63 H63        -5.8931   54.1983   25.5973 H         1 UNK         0.0000 
     64 H64        -4.5382   54.9256   26.4816 H         1 UNK         0.0000 
@<TRIPOS>BOND
     1    1    2 1    
     2    1   36 1    
     3    1   37 1    
     4    1   38 1    
     5    2    7 ar   
     6    2    3 ar   
     7    3    4 ar   
     8    3   39 1    
     9    4    5 ar   
    10    4   40 1    
    11    5    6 ar   
    12    5    8 1    
    13    6    7 ar   
    14    6   41 1    
    15    7   42 1    
    16    8    9 2    
    17    8   10 2    
    18    8   11 1    
    19   11   16 1    
    20   11   12 1    
    21   12   13 1    
    22   12   43 1    
    23   12   44 1    
    24   13   14 1    
    25   13   45 1    
    26   13   46 1    
    27   14   15 1    
    28   14   17 1    
    29   14   47 1    
    30   15   16 1    
    31   15   48 1    
    32   15   49 1    
    33   16   50 1    
    34   16   51 1    
    35   17   18 2    
    36   17   19 am   BACKBONE|DICT|INTERRES
    37   19   20 am   BACKBONE|DICT|INTERRES
    38   19   52 1    
    39   20   24 1    
    40   20   21 2    
    41   21   22 1    
    42   21   29 1    
    43   22   28 1    
    44   22   23 2    
    45   23   24 1    
    46   23   25 1    
    47   25   26 1    
    48   25   53 1    
    49   25   54 1    
    50   26   27 1    
    51   26   55 1    
    52   26   56 1    
    53   27   28 1    
    54   27   57 1    
    55   27   58 1    
    56   28   59 1    
    57   28   60 1    
    58   29   30 2    
    59   29   31 am   BACKBONE|DICT|INTERRES
    60   31   32 am   BACKBONE|DICT|INTERRES
    61   31   61 1    
    62   32   33 2    
    63   32   34 1    
    64   34   35 1    
    65   35   62 1    
    66   35   63 1    
    67   35   64 1    
@<TRIPOS>SUBSTRUCTURE
     1 UNK         1 GROUP             0       ****    0 ROOT    
