@<TRIPOS>MOLECULE
ZINC39675413_897
81   84    1
SMALL
USER_CHARGES


@<TRIPOS>ATOM
      1 C1         -4.6974   50.1058   30.8527 C.3       1 UNK         0.0000 
      2 C2         -5.0179   50.7986   29.5525 C.ar      1 UNK         0.0000 
      3 C3         -4.2217   50.9583   28.4237 C.ar      1 UNK         0.0000 
      4 C4         -4.9606   51.6986   27.5001 C.ar      1 UNK         0.0000 
      5 N5         -6.1659   51.9473   28.1544 N.pl3     1 UNK         0.0000 
      6 N6         -6.1726   51.3911   29.3861 N.2       1 UNK         0.0000 
      7 C7         -7.3769   52.7087   27.6914 C.3       1 UNK         0.0000 
      8 C8         -7.8514   52.1407   26.3291 C.3       1 UNK         0.0000 
      9 C9         -7.0485   54.2239   27.5870 C.3       1 UNK         0.0000 
     10 C10        -8.5708   52.5396   28.6813 C.3       1 UNK         0.0000 
     11 C11        -4.5052   52.2884   26.2519 C.2       1 UNK         0.0000 
     12 O12        -4.6906   53.4863   26.0248 O.2       1 UNK         0.0000 
     13 N13        -3.8512   51.4950   25.3700 N.am      1 UNK         0.0000 
     14 C14        -3.2342   52.0500   24.1572 C.3       1 UNK         0.0000 
     15 C15        -2.6943   50.7890   23.4634 C.3       1 UNK         0.0000 
     16 H16        -3.5047   50.4321   22.8221 H         1 UNK         0.0000 
     17 C17        -2.4196   49.7723   24.5965 C.3       1 UNK         0.0000 
     18 C18        -3.6537   50.0428   25.4763 C.3       1 UNK         0.0000 
     19 C19        -2.4268   48.2910   24.1313 C.3       1 UNK         0.0000 
     20 C20        -1.0627   47.7244   23.7211 C.3       1 UNK         0.0000 
     21 N21        -0.0811   47.9390   24.8815 N.4       1 UNK         0.0000 
     22 C22         0.1678   49.4215   25.1549 C.3       1 UNK         0.0000 
     23 C23        -1.1673   50.1044   25.4961 C.3       1 UNK         0.0000 
     24 C24        -1.5441   51.0968   22.4817 C.2       1 UNK         0.0000 
     25 O25        -1.5935   50.6205   21.3481 O.2       1 UNK         0.0000 
     26 N26        -0.5050   51.8302   22.9210 N.am      1 UNK         0.0000 
     27 C27         0.7097   52.2086   22.1896 C.3       1 UNK         0.0000 
     28 H28         0.4132   52.8959   21.3937 H         1 UNK         0.0000 
     29 C29         1.4354   51.0051   21.5327 C.3       1 UNK         0.0000 
     30 C30         1.6347   52.9624   23.1742 C.3       1 UNK         0.0000 
     31 C31         2.8409   53.7145   22.5586 C.3       1 UNK         0.0000 
     32 C32         3.9467   54.0484   23.5593 C.ar      1 UNK         0.0000 
     33 C33         3.6623   54.2703   24.9101 C.ar      1 UNK         0.0000 
     34 C34         4.6924   54.4915   25.8179 C.ar      1 UNK         0.0000 
     35 C35         6.0228   54.5079   25.3797 C.ar      1 UNK         0.0000 
     36 C36         6.3004   54.3355   24.0251 C.ar      1 UNK         0.0000 
     37 C37         5.2716   54.0980   23.1188 C.ar      1 UNK         0.0000 
     38 O38         7.1036   54.6847   26.2137 O.3       1 UNK         0.0000 
     39 C39         6.9285   54.4716   27.6098 C.3       1 UNK         0.0000 
     40 H40        -3.6972   49.6777   30.8494 H         1 UNK         0.0000 
     41 H41        -4.7419   50.7897   31.6996 H         1 UNK         0.0000 
     42 H42        -5.3891   49.2901   31.0564 H         1 UNK         0.0000 
     43 H43        -3.2021   50.6110   28.3293 H         1 UNK         0.0000 
     44 H44        -8.7891   52.6032   26.0158 H         1 UNK         0.0000 
     45 H45        -8.0192   51.0635   26.3790 H         1 UNK         0.0000 
     46 H46        -7.1419   52.3188   25.5220 H         1 UNK         0.0000 
     47 H47        -6.1151   54.4928   28.0893 H         1 UNK         0.0000 
     48 H48        -6.9468   54.5510   26.5518 H         1 UNK         0.0000 
     49 H49        -7.8372   54.8435   28.0175 H         1 UNK         0.0000 
     50 H50        -8.3395   52.9426   29.6681 H         1 UNK         0.0000 
     51 H51        -9.4629   53.0579   28.3317 H         1 UNK         0.0000 
     52 H52        -8.8430   51.4911   28.8096 H         1 UNK         0.0000 
     53 H53        -3.9507   52.5810   23.5298 H         1 UNK         0.0000 
     54 H54        -2.4266   52.7077   24.4829 H         1 UNK         0.0000 
     55 H55        -3.5442   49.6101   26.4691 H         1 UNK         0.0000 
     56 H56        -4.5253   49.5609   25.0223 H         1 UNK         0.0000 
     57 H57        -2.7135   47.6854   24.9963 H         1 UNK         0.0000 
     58 H58        -3.2156   48.0898   23.4041 H         1 UNK         0.0000 
     59 H59        -1.1035   46.6537   23.5344 H         1 UNK         0.0000 
     60 H60        -0.6404   48.2210   22.8438 H         1 UNK         0.0000 
     61 H61        -0.4009   47.4970   25.7394 H         1 UNK         0.0000 
     62 H62         0.8878   49.4451   25.9796 H         1 UNK         0.0000 
     63 H63         0.6423   49.8201   24.2595 H         1 UNK         0.0000 
     64 H64        -1.0674   51.1683   25.7135 H         1 UNK         0.0000 
     65 H65        -1.3718   49.6827   26.4815 H         1 UNK         0.0000 
     66 H66        -0.5645   52.1830   23.8624 H         1 UNK         0.0000 
     67 H67         2.3460   51.3122   21.0248 H         1 UNK         0.0000 
     68 H68         1.7342   50.2592   22.2684 H         1 UNK         0.0000 
     69 H69         0.8328   50.5204   20.7640 H         1 UNK         0.0000 
     70 H70         1.0463   53.6957   23.7316 H         1 UNK         0.0000 
     71 H71         1.9894   52.2393   23.9134 H         1 UNK         0.0000 
     72 H72         3.2850   53.1112   21.7701 H         1 UNK         0.0000 
     73 H73         2.5099   54.6371   22.0835 H         1 UNK         0.0000 
     74 H74         2.6476   54.2513   25.2750 H         1 UNK         0.0000 
     75 H75         4.4419   54.6440   26.8561 H         1 UNK         0.0000 
     76 H76         7.3230   54.3648   23.6810 H         1 UNK         0.0000 
     77 H77         5.5095   53.9433   22.0758 H         1 UNK         0.0000 
     78 H78         7.9078   54.4971   28.0851 H         1 UNK         0.0000 
     79 H79         6.3058   55.2441   28.0675 H         1 UNK         0.0000 
     80 H80         6.4960   53.4907   27.8156 H         1 UNK         0.0000 
     81 H81         0.8184   47.5196   24.6839 H         1 UNK         0.0000 
@<TRIPOS>BOND
     1    1    2 1    
     2    1   40 1    
     3    1   41 1    
     4    1   42 1    
     5    2    6 ar   
     6    2    3 ar   
     7    3    4 ar   
     8    3   43 1    
     9    4    5 ar   
    10    4   11 1    
    11    5    6 ar   
    12    5    7 1    
    13    7    8 1    
    14    7    9 1    
    15    7   10 1    
    16    8   44 1    
    17    8   45 1    
    18    8   46 1    
    19    9   47 1    
    20    9   48 1    
    21    9   49 1    
    22   10   50 1    
    23   10   51 1    
    24   10   52 1    
    25   11   12 2    
    26   11   13 am   BACKBONE|DICT|INTERRES
    27   13   18 1    
    28   13   14 1    
    29   14   15 1    
    30   14   53 1    
    31   14   54 1    
    32   15   16 1    
    33   15   17 1    
    34   15   24 1    
    35   17   23 1    
    36   17   18 1    
    37   17   19 1    
    38   18   55 1    
    39   18   56 1    
    40   19   20 1    
    41   19   57 1    
    42   19   58 1    
    43   20   21 1    
    44   20   59 1    
    45   20   60 1    
    46   21   22 1    
    47   21   61 1    
    48   21   81 1    
    49   22   23 1    
    50   22   62 1    
    51   22   63 1    
    52   23   64 1    
    53   23   65 1    
    54   24   25 2    
    55   24   26 am   BACKBONE|DICT|INTERRES
    56   26   27 1    
    57   26   66 1    
    58   27   28 1    
    59   27   29 1    
    60   27   30 1    
    61   29   67 1    
    62   29   68 1    
    63   29   69 1    
    64   30   31 1    
    65   30   70 1    
    66   30   71 1    
    67   31   32 1    
    68   31   72 1    
    69   31   73 1    
    70   32   37 ar   
    71   32   33 ar   
    72   33   34 ar   
    73   33   74 1    
    74   34   35 ar   
    75   34   75 1    
    76   35   36 ar   
    77   35   38 1    
    78   36   37 ar   
    79   36   76 1    
    80   37   77 1    
    81   38   39 1    
    82   39   78 1    
    83   39   79 1    
    84   39   80 1    
@<TRIPOS>SUBSTRUCTURE
     1 UNK         1 GROUP             0       ****    0 ROOT    
