@<TRIPOS>MOLECULE
ZINC13342192_5968
51   53    1
SMALL
USER_CHARGES


@<TRIPOS>ATOM
      1 C1          2.7213   52.9154   18.0525 C.2       1 UNK         0.0000 
      2 C2          3.5989   53.2355   19.0164 C.2       1 UNK         0.0000 
      3 C3          5.0890   52.9514   18.9515 C.3       1 UNK         0.0000 
      4 N4          5.9267   54.1365   19.1453 N.pl3     1 UNK         0.0000 
      5 C5          6.8091   54.7172   18.2553 C.ar      1 UNK         0.0000 
      6 N6          7.3951   55.7568   18.8025 N.2       1 UNK         0.0000 
      7 N7          6.9199   55.8670   20.1031 N.2       1 UNK         0.0000 
      8 C8          6.0721   54.8852   20.2953 C.ar      1 UNK         0.0000 
      9 S9          5.2985   54.4966   21.8309 S.3       1 UNK         0.0000 
     10 C10         6.6034   55.0592   22.9858 C.3       1 UNK         0.0000 
     11 C11         6.2716   54.9616   24.4817 C.2       1 UNK         0.0000 
     12 O12         7.1044   55.3759   25.2837 O.2       1 UNK         0.0000 
     13 N13         5.0689   54.4585   24.8273 N.am      1 UNK         0.0000 
     14 C14         4.5355   54.0966   26.0834 C.ar      1 UNK         0.0000 
     15 C15         5.3464   54.0388   27.2303 C.ar      1 UNK         0.0000 
     16 C16         4.8419   53.5836   28.4382 C.ar      1 UNK         0.0000 
     17 C17         3.5168   53.1870   28.5380 C.ar      1 UNK         0.0000 
     18 C18         2.6882   53.2625   27.4222 C.ar      1 UNK         0.0000 
     19 C19         3.1697   53.6996   26.1726 C.ar      1 UNK         0.0000 
     20 C20         2.2190   53.6967   24.9938 C.2       1 UNK         0.0000 
     21 O21         1.1042   53.1468   25.1415 O.co2     1 UNK         0.0000 
     22 O22         2.5761   54.2436   23.9248 O.co2     1 UNK         0.0000 
     23 Br23        2.8575   52.4966   30.1845 Br        1 UNK         0.0000 
     24 C24         7.1078   54.1773   16.8588 C.3       1 UNK         0.0000 
     25 C25         7.7231   55.2249   15.8937 C.3       1 UNK         0.0000 
     26 C26         7.9605   54.6420   14.4849 C.3       1 UNK         0.0000 
     27 C27         8.8170   53.3623   14.5279 C.3       1 UNK         0.0000 
     28 C28         8.2320   52.3167   15.4951 C.3       1 UNK         0.0000 
     29 C29         7.9915   52.9019   16.9017 C.3       1 UNK         0.0000 
     30 H30         1.6713   53.1454   18.1619 H         1 UNK         0.0000 
     31 H31         3.0374   52.4186   17.1456 H         1 UNK         0.0000 
     32 H32         3.2348   53.7204   19.9115 H         1 UNK         0.0000 
     33 H33         5.3259   52.4967   17.9918 H         1 UNK         0.0000 
     34 H34         5.3538   52.2189   19.7143 H         1 UNK         0.0000 
     35 H35         7.5043   54.4747   22.8028 H         1 UNK         0.0000 
     36 H36         6.8533   56.0967   22.7730 H         1 UNK         0.0000 
     37 H37         4.3881   54.3437   24.0779 H         1 UNK         0.0000 
     38 H38         6.3927   54.2944   27.2168 H         1 UNK         0.0000 
     39 H39         5.5039   53.5144   29.2817 H         1 UNK         0.0000 
     40 H40         1.6620   52.9394   27.5317 H         1 UNK         0.0000 
     41 H41         6.1675   53.8842   16.3883 H         1 UNK         0.0000 
     42 H42         8.6847   55.5699   16.2777 H         1 UNK         0.0000 
     43 H43         7.0552   56.0817   15.7926 H         1 UNK         0.0000 
     44 H44         8.4408   55.3880   13.8504 H         1 UNK         0.0000 
     45 H45         7.0002   54.4199   14.0165 H         1 UNK         0.0000 
     46 H46         9.8319   53.6154   14.8386 H         1 UNK         0.0000 
     47 H47         8.9031   52.9370   13.5273 H         1 UNK         0.0000 
     48 H48         8.8996   51.4564   15.5602 H         1 UNK         0.0000 
     49 H49         7.2906   51.9370   15.0948 H         1 UNK         0.0000 
     50 H50         7.5178   52.1181   17.4941 H         1 UNK         0.0000 
     51 H51         8.9621   53.1333   17.3443 H         1 UNK         0.0000 
@<TRIPOS>BOND
     1    1    2 2    
     2    1   30 1    
     3    1   31 1    
     4    2    3 1    
     5    2   32 1    
     6    3    4 1    
     7    3   33 1    
     8    3   34 1    
     9    4    8 ar   
    10    4    5 ar   
    11    5    6 ar   
    12    5   24 1    
    13    6    7 ar   
    14    7    8 ar   
    15    8    9 1    
    16    9   10 1    
    17   10   11 1    
    18   10   35 1    
    19   10   36 1    
    20   11   12 2    
    21   11   13 am   BACKBONE|DICT|INTERRES
    22   13   14 1    
    23   13   37 1    
    24   14   19 ar   
    25   14   15 ar   
    26   15   16 ar   
    27   15   38 1    
    28   16   17 ar   
    29   16   39 1    
    30   17   18 ar   
    31   17   23 1    
    32   18   19 ar   
    33   18   40 1    
    34   19   20 1    
    35   20   21 2    
    36   20   22 1    
    37   24   29 1    
    38   24   25 1    
    39   24   41 1    
    40   25   26 1    
    41   25   42 1    
    42   25   43 1    
    43   26   27 1    
    44   26   44 1    
    45   26   45 1    
    46   27   28 1    
    47   27   46 1    
    48   27   47 1    
    49   28   29 1    
    50   28   48 1    
    51   28   49 1    
    52   29   50 1    
    53   29   51 1    
@<TRIPOS>SUBSTRUCTURE
     1 UNK         1 GROUP             0       ****    0 ROOT    
