ZINC09105157_3105
                    3D
 Schrodinger Suite 2024-2.
 58 60  0  0  1  0            999 V2000
    4.2756   52.4431   29.0516 C   0  0  0  0  0  0
    3.0302   53.3133   29.2930 C   0  0  0  0  0  0
    3.3217   54.8064   29.0374 C   0  0  0  0  0  0
    1.8315   52.8019   28.4905 C   0  0  0  0  0  0
    0.7752   52.1646   29.1474 C   0  0  0  0  0  0
   -0.3175   51.6975   28.4225 C   0  0  0  0  0  0
   -0.3598   51.8783   27.0380 C   0  0  0  0  0  0
    0.6990   52.4948   26.3734 C   0  0  0  0  0  0
    1.7946   52.9547   27.0995 C   0  0  0  0  0  0
   -1.7910   51.3359   26.1059 S   0  0  0  0  0  0
   -2.0217   52.3377   25.0594 O   0  0  0  0  0  0
   -2.8453   51.0626   27.0895 O   0  0  0  0  0  0
   -1.2080   49.7056   25.2924 C   0  0  1  0  0  0
   -0.6593   49.1851   26.0804 H   0  0  0  0  0  0
   -2.4164   48.8234   24.9049 C   0  0  0  0  0  0
   -3.1551   48.4006   26.0866 N   0  0  0  0  0  0
   -4.4700   48.0967   26.1223 C   0  0  0  0  0  0
   -5.1254   47.8610   25.1059 O   0  0  0  0  0  0
   -5.0931   48.0671   27.4836 C   0  0  0  0  0  0
   -6.0905   47.3751   27.7186 O   0  0  0  0  0  0
   -4.4952   48.8780   28.3969 N   0  0  0  0  0  0
   -5.0582   49.0980   29.6601 N   0  0  0  0  0  0
   -6.0982   49.9569   29.7927 C   0  0  0  0  0  0
   -6.5995   50.5906   28.8599 O   0  0  0  0  0  0
   -6.6535   50.1136   31.1863 C   0  0  0  0  0  0
   -5.8615   49.9533   32.3325 C   0  0  0  0  0  0
   -6.4289   50.1082   33.5990 C   0  0  0  0  0  0
   -7.7808   50.4380   33.6834 C   0  0  0  0  0  0
   -8.5710   50.6017   32.5950 N   0  0  0  0  0  0
   -8.0051   50.4381   31.3730 C   0  0  0  0  0  0
   -0.2826   49.9294   24.1059 C   0  0  0  0  0  0
    1.0866   49.6984   24.0271 C   0  0  0  0  0  0
    1.6629   50.0026   22.7924 C   0  0  0  0  0  0
    0.7396   50.4872   21.8846 C   0  0  0  0  0  0
   -0.8488   50.5510   22.5699 S   0  0  0  0  0  0
    4.0693   51.3979   29.2819 H   0  0  0  0  0  0
    4.6121   52.5023   28.0150 H   0  0  0  0  0  0
    5.1038   52.7568   29.6812 H   0  0  0  0  0  0
    2.7804   53.2272   30.3534 H   0  0  0  0  0  0
    2.4437   55.4216   29.2325 H   0  0  0  0  0  0
    4.1241   55.1671   29.6784 H   0  0  0  0  0  0
    3.6320   54.9890   28.0085 H   0  0  0  0  0  0
    0.7914   52.0297   30.2198 H   0  0  0  0  0  0
   -1.1282   51.2012   28.9405 H   0  0  0  0  0  0
    0.6688   52.6270   25.3012 H   0  0  0  0  0  0
    2.6087   53.4322   26.5758 H   0  0  0  0  0  0
   -2.0832   47.9295   24.3737 H   0  0  0  0  0  0
   -3.0732   49.3724   24.2233 H   0  0  0  0  0  0
   -2.6544   48.4951   26.9745 H   0  0  0  0  0  0
   -3.7305   49.5082   28.1893 H   0  0  0  0  0  0
   -4.8429   48.3582   30.3137 H   0  0  0  0  0  0
   -4.8063   49.7279   32.2626 H   0  0  0  0  0  0
   -5.8286   49.9967   34.4883 H   0  0  0  0  0  0
   -8.2568   50.5661   34.6445 H   0  0  0  0  0  0
   -8.6690   50.5715   30.5327 H   0  0  0  0  0  0
    1.6508   49.2967   24.8542 H   0  0  0  0  0  0
    2.7127   49.8654   22.5703 H   0  0  0  0  0  0
    0.9113   50.7911   20.8615 H   0  0  0  0  0  0
  1  2  1  0  0  0
  1 36  1  0  0  0
  1 37  1  0  0  0
  1 38  1  0  0  0
  2  3  1  0  0  0
  2  4  1  0  0  0
  2 39  1  0  0  0
  3 40  1  0  0  0
  3 41  1  0  0  0
  3 42  1  0  0  0
  4  9  2  0  0  0
  4  5  1  0  0  0
  5  6  2  0  0  0
  5 43  1  0  0  0
  6  7  1  0  0  0
  6 44  1  0  0  0
  7  8  2  0  0  0
  7 10  1  0  0  0
  8  9  1  0  0  0
  8 45  1  0  0  0
  9 46  1  0  0  0
 10 11  2  0  0  0
 10 12  2  0  0  0
 10 13  1  0  0  0
 13 14  1  0  0  0
 13 15  1  0  0  0
 13 31  1  0  0  0
 15 16  1  0  0  0
 15 47  1  0  0  0
 15 48  1  0  0  0
 16 17  1  0  0  0
 16 49  1  0  0  0
 17 18  2  0  0  0
 17 19  1  0  0  0
 19 20  2  0  0  0
 19 21  1  0  0  0
 21 22  1  0  0  0
 21 50  1  0  0  0
 22 23  1  0  0  0
 22 51  1  0  0  0
 23 24  2  0  0  0
 23 25  1  0  0  0
 25 30  2  0  0  0
 25 26  1  0  0  0
 26 27  2  0  0  0
 26 52  1  0  0  0
 27 28  1  0  0  0
 27 53  1  0  0  0
 28 29  2  0  0  0
 28 54  1  0  0  0
 29 30  1  0  0  0
 30 55  1  0  0  0
 31 35  1  0  0  0
 31 32  2  0  0  0
 32 33  1  0  0  0
 32 56  1  0  0  0
 33 34  2  0  0  0
 33 57  1  0  0  0
 34 35  1  0  0  0
 34 58  1  0  0  0
M  END
> <i_i_glide_confnum>
190

> <i_i_glide_lignum>
3106

> <i_i_glide_posenum>
109

> <i_i_glide_rotatable_bonds>
12

> <i_m_Source_File_Index>
2521

> <b_m_subgroup_collapsed>
0

> <r_i_docking_score>
-4.17533

> <r_i_glide_ecoul>
-7.53136

> <r_i_glide_eff_state_penalty>
0

> <r_i_glide_einternal>
10.7531

> <r_i_glide_emodel>
-57.6173

> <r_i_glide_energy>
-45.9757

> <r_i_glide_erotb>
0.814895

> <r_i_glide_esite>
-0.44948

> <r_i_glide_evdw>
-38.4443

> <r_i_glide_gscore>
-4.17533

> <r_i_glide_hbond>
-0.16

> <r_i_glide_ligand_efficiency>
-0.122804

> <r_i_glide_ligand_efficiency_ln>
-0.922448

> <r_i_glide_ligand_efficiency_sa>
-0.397837

> <r_i_glide_lipo>
-1.36088

> <r_i_glide_metal>
0

> <r_i_glide_rewards>
0.0320535

> <s_i_glide_gridfile>
wee1_glide-grid

> <s_m_Source_File>
wee1_decoys_glide_SP.sdf

> <s_m_Source_Path>
/Users/zhangxujun/Desktop

> <s_m_entry_id>
2796

> <s_m_entry_name>
wee1_decoys_glide_SP.2521

> <s_m_subgroup_title>
wee1_decoys_glide_SP

> <s_m_subgroupid>
wee1_decoys_glide_SP


$$$$
