@<TRIPOS>MOLECULE
ZINC13059450_2590
46   48    1
SMALL
USER_CHARGES


@<TRIPOS>ATOM
      1 C1          5.3482   54.3633   21.6967 C.ar      1 UNK         0.0000 
      2 C2          4.3893   53.3680   21.8527 C.ar      1 UNK         0.0000 
      3 C3          3.8263   52.7626   20.7314 C.ar      1 UNK         0.0000 
      4 C4          4.2635   53.1111   19.4522 C.ar      1 UNK         0.0000 
      5 C5          5.2352   54.0952   19.2972 C.ar      1 UNK         0.0000 
      6 C6          5.7775   54.7463   20.4173 C.ar      1 UNK         0.0000 
      7 C7          6.8031   55.8254   20.2557 C.2       1 UNK         0.0000 
      8 O8          7.1041   56.4967   21.2708 O.co2     1 UNK         0.0000 
      9 S9          2.5089   51.5648   20.9394 S.o2      1 UNK         0.0000 
     10 O10         2.0910   51.1241   19.6052 O.2       1 UNK         0.0000 
     11 O11         2.9562   50.5989   21.9485 O.2       1 UNK         0.0000 
     12 N12         1.1698   52.4968   21.6138 N.pl3     1 UNK         0.0000 
     13 N13         1.3693   52.9242   22.9145 N.am      1 UNK         0.0000 
     14 C14         0.8318   52.2738   23.9666 C.2       1 UNK         0.0000 
     15 O15         0.0220   51.3481   23.8701 O.2       1 UNK         0.0000 
     16 C16         1.2252   52.7638   25.2637 C.2       1 UNK         0.0000 
     17 C17         0.5920   52.4968   26.4710 C.2       1 UNK         0.0000 
     18 C18         1.1674   53.1306   27.5821 C.2       1 UNK         0.0000 
     19 C19         2.3506   53.7965   27.2479 C.2       1 UNK         0.0000 
     20 S20         2.6673   53.6966   25.5367 S.3       1 UNK         0.0000 
     21 C21         3.2887   54.5460   28.1667 C.3       1 UNK         0.0000 
     22 C22         4.3290   53.6520   28.8615 C.3       1 UNK         0.0000 
     23 C23         3.7936   52.3492   29.4869 C.3       1 UNK         0.0000 
     24 C24         2.6213   52.4967   30.4818 C.3       1 UNK         0.0000 
     25 C25         1.2316   52.0969   29.9348 C.3       1 UNK         0.0000 
     26 C26         0.5652   53.1000   28.9757 C.3       1 UNK         0.0000 
     27 H27         5.7576   54.8355   22.5795 H         1 UNK         0.0000 
     28 H28         4.0758   53.0895   22.8465 H         1 UNK         0.0000 
     29 H29         3.8547   52.6290   18.5757 H         1 UNK         0.0000 
     30 H30         5.5545   54.3608   18.2988 H         1 UNK         0.0000 
     31 H31         0.8739   53.2704   21.0094 H         1 UNK         0.0000 
     32 H32         2.0474   53.6629   23.0302 H         1 UNK         0.0000 
     33 H33        -0.3105   51.9029   26.5401 H         1 UNK         0.0000 
     34 H34         3.8303   55.2966   27.5988 H         1 UNK         0.0000 
     35 H35         2.7219   55.0950   28.9188 H         1 UNK         0.0000 
     36 H36         5.1003   53.3852   28.1371 H         1 UNK         0.0000 
     37 H37         4.8391   54.2410   29.6239 H         1 UNK         0.0000 
     38 H38         3.5037   51.6774   28.6803 H         1 UNK         0.0000 
     39 H39         4.6260   51.8494   29.9858 H         1 UNK         0.0000 
     40 H40         2.8306   51.8653   31.3463 H         1 UNK         0.0000 
     41 H41         2.5817   53.5071   30.8802 H         1 UNK         0.0000 
     42 H42         1.2739   51.1151   29.4622 H         1 UNK         0.0000 
     43 H43         0.5650   51.9809   30.7910 H         1 UNK         0.0000 
     44 H44         0.5814   54.0952   29.4203 H         1 UNK         0.0000 
     45 H45        -0.4970   52.8581   28.9094 H         1 UNK         0.0000 
     46 O46         7.2935   56.0113   19.1184 O.co2     1 UNK         0.0000 
@<TRIPOS>BOND
     1    1    6 ar   
     2    1    2 ar   
     3    1   27 1    
     4    2    3 ar   
     5    2   28 1    
     6    3    4 ar   
     7    3    9 1    
     8    4    5 ar   
     9    4   29 1    
    10    5    6 ar   
    11    5   30 1    
    12    6    7 1    
    13    7    8 2    
    14    7   46 1    
    15    9   10 2    
    16    9   11 2    
    17    9   12 1    
    18   12   13 1    
    19   12   31 1    
    20   13   14 am   BACKBONE|DICT|INTERRES
    21   13   32 1    
    22   14   15 2    
    23   14   16 1    
    24   16   20 1    
    25   16   17 2    
    26   17   18 1    
    27   17   33 1    
    28   18   26 1    
    29   18   19 2    
    30   19   20 1    
    31   19   21 1    
    32   21   22 1    
    33   21   34 1    
    34   21   35 1    
    35   22   23 1    
    36   22   36 1    
    37   22   37 1    
    38   23   24 1    
    39   23   38 1    
    40   23   39 1    
    41   24   25 1    
    42   24   40 1    
    43   24   41 1    
    44   25   26 1    
    45   25   42 1    
    46   25   43 1    
    47   26   44 1    
    48   26   45 1    
@<TRIPOS>SUBSTRUCTURE
     1 UNK         1 GROUP             0       ****    0 ROOT    
