@<TRIPOS>MOLECULE
ZINC00748634_2371
59   61    1
SMALL
USER_CHARGES


@<TRIPOS>ATOM
      1 C1          6.6087   54.1234   25.3356 C.3       1 UNK         0.0000 
      2 C2          5.5730   55.2238   25.6284 C.3       1 UNK         0.0000 
      3 C3          4.0972   54.7634   25.6289 C.3       1 UNK         0.0000 
      4 H4          3.5046   55.6776   25.6820 H         1 UNK         0.0000 
      5 C5          3.7418   53.9168   26.8657 C.3       1 UNK         0.0000 
      6 N6          3.7614   54.0636   24.3897 N.am      1 UNK         0.0000 
      7 C7          2.5467   53.9413   23.8215 C.2       1 UNK         0.0000 
      8 O8          1.5424   54.4962   24.2566 O.2       1 UNK         0.0000 
      9 C9          2.4874   53.0665   22.5879 C.ar      1 UNK         0.0000 
     10 C10         3.5544   53.1375   21.6813 C.ar      1 UNK         0.0000 
     11 C11         3.5435   52.4222   20.4821 C.ar      1 UNK         0.0000 
     12 C12         2.4724   51.5824   20.1994 C.ar      1 UNK         0.0000 
     13 C13         1.3928   51.5143   21.0760 C.ar      1 UNK         0.0000 
     14 C14         1.3582   52.2684   22.2619 C.ar      1 UNK         0.0000 
     15 N15         0.2608   52.1431   23.1157 N.pl3     1 UNK         0.0000 
     16 C16        -1.0918   51.9016   22.5800 C.3       1 UNK         0.0000 
     17 C17        -2.1898   52.3112   23.5830 C.3       1 UNK         0.0000 
     18 C18        -2.0312   51.5873   24.9272 C.3       1 UNK         0.0000 
     19 C19        -0.5906   51.7327   25.4335 C.3       1 UNK         0.0000 
     20 C20         0.4433   51.3578   24.3510 C.3       1 UNK         0.0000 
     21 N21         4.5828   52.4970   19.5458 N.am      1 UNK         0.0000 
     22 C22         5.3557   53.5732   19.2828 C.2       1 UNK         0.0000 
     23 O23         5.2362   54.6744   19.8234 O.2       1 UNK         0.0000 
     24 N24         6.2938   53.2736   18.3675 N.am      1 UNK         0.0000 
     25 C25         7.4140   54.0296   17.9764 C.ar      1 UNK         0.0000 
     26 C26         7.9572   55.0843   18.7310 C.ar      1 UNK         0.0000 
     27 C27         9.1044   55.7446   18.2919 C.ar      1 UNK         0.0000 
     28 C28         9.7222   55.3583   17.1033 C.ar      1 UNK         0.0000 
     29 C29         9.1942   54.3055   16.3535 C.ar      1 UNK         0.0000 
     30 C30         8.0485   53.6415   16.7923 C.ar      1 UNK         0.0000 
     31 F31         9.7900   53.9252   15.2000 F         1 UNK         0.0000 
     32 F32        10.8365   56.0019   16.6862 F         1 UNK         0.0000 
     33 H33         7.6076   54.5511   25.3035 H         1 UNK         0.0000 
     34 H34         6.4386   53.6518   24.3680 H         1 UNK         0.0000 
     35 H35         6.5994   53.3444   26.0990 H         1 UNK         0.0000 
     36 H36         5.8136   55.6962   26.5815 H         1 UNK         0.0000 
     37 H37         5.6932   56.0092   24.8815 H         1 UNK         0.0000 
     38 H38         4.0399   54.4251   27.7830 H         1 UNK         0.0000 
     39 H39         2.6671   53.7429   26.9350 H         1 UNK         0.0000 
     40 H40         4.2553   52.9542   26.8607 H         1 UNK         0.0000 
     41 H41         4.5347   53.6096   23.9298 H         1 UNK         0.0000 
     42 H42         4.4002   53.7716   21.9034 H         1 UNK         0.0000 
     43 H43         2.4603   51.0004   19.2880 H         1 UNK         0.0000 
     44 H44         0.5734   50.8613   20.8188 H         1 UNK         0.0000 
     45 H45        -1.2198   52.4961   21.6738 H         1 UNK         0.0000 
     46 H46        -1.1976   50.8525   22.2980 H         1 UNK         0.0000 
     47 H47        -2.1815   53.3952   23.7158 H         1 UNK         0.0000 
     48 H48        -3.1680   52.0779   23.1626 H         1 UNK         0.0000 
     49 H49        -2.2687   50.5289   24.8044 H         1 UNK         0.0000 
     50 H50        -2.7370   51.9817   25.6592 H         1 UNK         0.0000 
     51 H51        -0.4473   51.0923   26.3051 H         1 UNK         0.0000 
     52 H52        -0.3966   52.7472   25.7849 H         1 UNK         0.0000 
     53 H53         0.3941   50.2931   24.1159 H         1 UNK         0.0000 
     54 H54         1.4362   51.5382   24.7638 H         1 UNK         0.0000 
     55 H55         4.7045   51.6682   18.9621 H         1 UNK         0.0000 
     56 H56         6.1869   52.3786   17.9069 H         1 UNK         0.0000 
     57 H57         7.5231   55.3902   19.6706 H         1 UNK         0.0000 
     58 H58         9.5284   56.5471   18.8781 H         1 UNK         0.0000 
     59 H59         7.6591   52.8224   16.2046 H         1 UNK         0.0000 
@<TRIPOS>BOND
     1    1    2 1    
     2    1   33 1    
     3    1   34 1    
     4    1   35 1    
     5    2    3 1    
     6    2   36 1    
     7    2   37 1    
     8    3    4 1    
     9    3    5 1    
    10    3    6 1    
    11    5   38 1    
    12    5   39 1    
    13    5   40 1    
    14    6    7 am   BACKBONE|DICT|INTERRES
    15    6   41 1    
    16    7    8 2    
    17    7    9 1    
    18    9   14 ar   
    19    9   10 ar   
    20   10   11 ar   
    21   10   42 1    
    22   11   12 ar   
    23   11   21 1    
    24   12   13 ar   
    25   12   43 1    
    26   13   14 ar   
    27   13   44 1    
    28   14   15 1    
    29   15   20 1    
    30   15   16 1    
    31   16   17 1    
    32   16   45 1    
    33   16   46 1    
    34   17   18 1    
    35   17   47 1    
    36   17   48 1    
    37   18   19 1    
    38   18   49 1    
    39   18   50 1    
    40   19   20 1    
    41   19   51 1    
    42   19   52 1    
    43   20   53 1    
    44   20   54 1    
    45   21   22 am   BACKBONE|DICT|INTERRES
    46   21   55 1    
    47   22   23 2    
    48   22   24 am   BACKBONE|DICT|INTERRES
    49   24   25 1    
    50   24   56 1    
    51   25   30 ar   
    52   25   26 ar   
    53   26   27 ar   
    54   26   57 1    
    55   27   28 ar   
    56   27   58 1    
    57   28   29 ar   
    58   28   32 1    
    59   29   30 ar   
    60   29   31 1    
    61   30   59 1    
@<TRIPOS>SUBSTRUCTURE
     1 UNK         1 GROUP             0       ****    0 ROOT    
