@<TRIPOS>MOLECULE
ZINC28308880_4538
51   54    1
SMALL
USER_CHARGES


@<TRIPOS>ATOM
      1 C1         -0.1240   51.7944   23.9473 C.ar      1 UNK         0.0000 
      2 C2          0.6251   52.9625   23.9700 C.ar      1 UNK         0.0000 
      3 C3          1.6241   53.1846   23.0271 C.ar      1 UNK         0.0000 
      4 C4          1.9254   52.2075   22.0345 C.ar      1 UNK         0.0000 
      5 C5          1.1240   51.0186   22.0027 C.ar      1 UNK         0.0000 
      6 C6          0.1090   50.8298   22.9738 C.ar      1 UNK         0.0000 
      7 C7          1.3540   50.0457   21.0003 C.ar      1 UNK         0.0000 
      8 C8          2.3393   50.2421   20.0419 C.ar      1 UNK         0.0000 
      9 C9          3.1345   51.3784   20.0743 C.ar      1 UNK         0.0000 
     10 C10         2.9803   52.3473   21.0651 C.ar      1 UNK         0.0000 
     11 N11         3.8926   53.4188   21.0088 N.am      1 UNK         0.0000 
     12 C12         4.7336   53.7911   22.0082 C.2       1 UNK         0.0000 
     13 O13         4.6143   53.2967   23.1242 O.2       1 UNK         0.0000 
     14 C14         5.7641   54.8054   21.7075 C.2       1 UNK         0.0000 
     15 C15         6.5561   55.3297   22.7013 C.2       1 UNK         0.0000 
     16 C16         6.6215   54.9928   24.1452 C.ar      1 UNK         0.0000 
     17 C17         7.1043   53.7494   24.5321 C.ar      1 UNK         0.0000 
     18 C18         7.1043   53.4116   25.8850 C.ar      1 UNK         0.0000 
     19 C19         6.7105   54.2647   26.8652 C.ar      1 UNK         0.0000 
     20 C20         6.3044   55.5044   26.4889 C.ar      1 UNK         0.0000 
     21 C21         6.2454   55.8939   25.1445 C.ar      1 UNK         0.0000 
     22 O22         6.8091   53.9182   28.1860 O.3       1 UNK         0.0000 
     23 N23         5.8573   55.1830   20.3779 N.am      1 UNK         0.0000 
     24 C24         6.3044   56.3349   19.8317 C.2       1 UNK         0.0000 
     25 O25         6.7044   57.2968   20.4818 O.2       1 UNK         0.0000 
     26 C26         6.1902   56.4383   18.3291 C.ar      1 UNK         0.0000 
     27 C27         5.9916   57.6966   17.7395 C.ar      1 UNK         0.0000 
     28 C28         5.8638   57.8187   16.3597 C.ar      1 UNK         0.0000 
     29 C29         5.9430   56.6841   15.5569 C.ar      1 UNK         0.0000 
     30 C30         6.1514   55.4292   16.1241 C.ar      1 UNK         0.0000 
     31 C31         6.2764   55.3036   17.5054 C.ar      1 UNK         0.0000 
     32 Br32        5.7682   56.8485   13.6690 Br        1 UNK         0.0000 
     33 H33        -0.8931   51.6348   24.6892 H         1 UNK         0.0000 
     34 H34         0.4328   53.7000   24.7323 H         1 UNK         0.0000 
     35 H35         2.1831   54.1072   23.0627 H         1 UNK         0.0000 
     36 H36        -0.4839   49.9267   22.9579 H         1 UNK         0.0000 
     37 H37         0.7489   49.1511   20.9753 H         1 UNK         0.0000 
     38 H38         2.5046   49.5037   19.2693 H         1 UNK         0.0000 
     39 H39         3.9040   51.4844   19.3215 H         1 UNK         0.0000 
     40 H40         4.0310   53.7979   20.0879 H         1 UNK         0.0000 
     41 H41         7.2919   56.0745   22.4408 H         1 UNK         0.0000 
     42 H42         7.4649   53.0519   23.7903 H         1 UNK         0.0000 
     43 H43         7.5045   52.4967   26.2318 H         1 UNK         0.0000 
     44 H44         6.0505   56.0967   27.3356 H         1 UNK         0.0000 
     45 H45         5.9044   56.8829   24.8817 H         1 UNK         0.0000 
     46 H46         6.8273   54.6817   28.7751 H         1 UNK         0.0000 
     47 H47         5.5439   54.4975   19.7104 H         1 UNK         0.0000 
     48 H48         5.9223   58.5935   18.3419 H         1 UNK         0.0000 
     49 H49         5.7011   58.7930   15.9197 H         1 UNK         0.0000 
     50 H50         6.2170   54.5546   15.4931 H         1 UNK         0.0000 
     51 H51         6.4487   54.3177   17.9139 H         1 UNK         0.0000 
@<TRIPOS>BOND
     1    1    6 ar   
     2    1    2 ar   
     3    1   33 1    
     4    2    3 ar   
     5    2   34 1    
     6    3    4 ar   
     7    3   35 1    
     8    4   10 ar   
     9    4    5 ar   
    10    5    6 ar   
    11    5    7 ar   
    12    6   36 1    
    13    7    8 ar   
    14    7   37 1    
    15    8    9 ar   
    16    8   38 1    
    17    9   10 ar   
    18    9   39 1    
    19   10   11 1    
    20   11   12 am   BACKBONE|DICT|INTERRES
    21   11   40 1    
    22   12   13 2    
    23   12   14 1    
    24   14   15 2    
    25   14   23 1    
    26   15   16 1    
    27   15   41 1    
    28   16   21 ar   
    29   16   17 ar   
    30   17   18 ar   
    31   17   42 1    
    32   18   19 ar   
    33   18   43 1    
    34   19   20 ar   
    35   19   22 1    
    36   20   21 ar   
    37   20   44 1    
    38   21   45 1    
    39   22   46 1    
    40   23   24 am   BACKBONE|DICT|INTERRES
    41   23   47 1    
    42   24   25 2    
    43   24   26 1    
    44   26   31 ar   
    45   26   27 ar   
    46   27   28 ar   
    47   27   48 1    
    48   28   29 ar   
    49   28   49 1    
    50   29   30 ar   
    51   29   32 1    
    52   30   31 ar   
    53   30   50 1    
    54   31   51 1    
@<TRIPOS>SUBSTRUCTURE
     1 UNK         1 GROUP             0       ****    0 ROOT    
