@<TRIPOS>MOLECULE
ZINC39691976_548
53   57    1
SMALL
USER_CHARGES


@<TRIPOS>ATOM
      1 C1         -1.2692   47.6574   24.8178 C.3       1 UNK         0.0000 
      2 C2         -2.0841   48.8366   24.2504 C.3       1 UNK         0.0000 
      3 N3         -2.9607   49.4814   25.2588 N.am      1 UNK         0.0000 
      4 C4         -4.2346   48.9749   25.3066 C.2       1 UNK         0.0000 
      5 O5         -4.7123   48.1607   24.5090 O.2       1 UNK         0.0000 
      6 C6         -5.0551   49.4668   26.5205 C.3       1 UNK         0.0000 
      7 H7         -6.0959   49.4724   26.1949 H         1 UNK         0.0000 
      8 C8         -4.6339   50.8761   26.9904 C.3       1 UNK         0.0000 
      9 H9         -5.2011   51.6551   26.4786 H         1 UNK         0.0000 
     10 N10        -3.2189   51.1856   26.8452 N.2       1 UNK         0.0000 
     11 C11        -2.4700   50.4864   26.0697 C.2       1 UNK         0.0000 
     12 S12        -0.7023   50.8946   26.0538 S.3       1 UNK         0.0000 
     13 C13        -0.4705   51.8662   27.5826 C.3       1 UNK         0.0000 
     14 C14         0.9092   52.5183   27.5961 C.ar      1 UNK         0.0000 
     15 N15         1.5711   52.6302   28.8019 N.pl3     1 UNK         0.0000 
     16 H16         1.1128   52.3037   29.6381 H         1 UNK         0.0000 
     17 C17         2.8223   53.1395   29.0283 C.ar      1 UNK         0.0000 
     18 O18         3.2539   53.1695   30.1796 O.2       1 UNK         0.0000 
     19 C19         3.4497   53.5854   27.7672 C.ar      1 UNK         0.0000 
     20 C20         4.7454   54.1163   27.5371 C.2       1 UNK         0.0000 
     21 C21         4.9422   54.4138   26.1634 C.2       1 UNK         0.0000 
     22 S22         3.5098   54.0941   25.2158 S.3       1 UNK         0.0000 
     23 C23         2.6931   53.4942   26.6016 C.ar      1 UNK         0.0000 
     24 N24         1.4390   52.9778   26.5129 N.2       1 UNK         0.0000 
     25 C25         6.1231   54.9232   25.4354 C.2       1 UNK         0.0000 
     26 O26         6.0807   54.9497   24.1855 O.co2     1 UNK         0.0000 
     27 O27         7.1036   55.2959   26.1095 O.co2     1 UNK         0.0000 
     28 C28         5.7561   54.3798   28.6339 C.3       1 UNK         0.0000 
     29 S29        -5.0845   50.9444   28.7388 S.3       1 UNK         0.0000 
     30 C30        -5.0270   49.1751   28.9019 C.2       1 UNK         0.0000 
     31 C31        -4.9196   48.5326   27.7174 C.2       1 UNK         0.0000 
     32 C32        -4.8591   47.0057   27.6246 C.3       1 UNK         0.0000 
     33 C33        -4.3615   46.3969   28.9455 C.3       1 UNK         0.0000 
     34 C34        -5.1557   46.9567   30.1423 C.3       1 UNK         0.0000 
     35 C35        -5.0229   48.4921   30.2652 C.3       1 UNK         0.0000 
     36 H36        -0.6268   47.2296   24.0507 H         1 UNK         0.0000 
     37 H37        -0.6269   47.9696   25.6442 H         1 UNK         0.0000 
     38 H38        -1.9224   46.8645   25.1861 H         1 UNK         0.0000 
     39 H39        -1.4071   49.5759   23.8188 H         1 UNK         0.0000 
     40 H40        -2.6523   48.4843   23.3862 H         1 UNK         0.0000 
     41 H41        -1.2276   52.6420   27.6710 H         1 UNK         0.0000 
     42 H42        -0.5634   51.1758   28.4227 H         1 UNK         0.0000 
     43 H43         6.4967   53.5827   28.7141 H         1 UNK         0.0000 
     44 H44         6.3002   55.2977   28.4427 H         1 UNK         0.0000 
     45 H45         5.3056   54.5386   29.6113 H         1 UNK         0.0000 
     46 H46        -5.8409   46.6063   27.3680 H         1 UNK         0.0000 
     47 H47        -4.2166   46.6735   26.8101 H         1 UNK         0.0000 
     48 H48        -4.4264   45.3119   28.8816 H         1 UNK         0.0000 
     49 H49        -3.3021   46.6279   29.0782 H         1 UNK         0.0000 
     50 H50        -6.2090   46.6960   30.0269 H         1 UNK         0.0000 
     51 H51        -4.8275   46.4968   31.0725 H         1 UNK         0.0000 
     52 H52        -4.0952   48.7322   30.7833 H         1 UNK         0.0000 
     53 H53        -5.8080   48.8773   30.9165 H         1 UNK         0.0000 
@<TRIPOS>BOND
     1    1    2 1    
     2    1   36 1    
     3    1   37 1    
     4    1   38 1    
     5    2    3 1    
     6    2   39 1    
     7    2   40 1    
     8    3   11 am   BACKBONE|DICT|INTERRES
     9    3    4 am   BACKBONE|DICT|INTERRES
    10    4    5 2    
    11    4    6 1    
    12    6    7 1    
    13    6   31 1    
    14    6    8 1    
    15    8    9 1    
    16    8   10 1    
    17    8   29 1    
    18   10   11 2    
    19   11   12 1    
    20   12   13 1    
    21   13   14 1    
    22   13   41 1    
    23   13   42 1    
    24   14   24 ar   
    25   14   15 ar   
    26   15   16 1    
    27   15   17 ar   
    28   17   18 2    
    29   17   19 ar   
    30   19   23 ar   
    31   19   20 1    
    32   20   21 2    
    33   20   28 1    
    34   21   22 1    
    35   21   25 1    
    36   22   23 1    
    37   23   24 ar   
    38   25   26 2    
    39   25   27 1    
    40   28   43 1    
    41   28   44 1    
    42   28   45 1    
    43   29   30 1    
    44   30   35 1    
    45   30   31 2    
    46   31   32 1    
    47   32   33 1    
    48   32   46 1    
    49   32   47 1    
    50   33   34 1    
    51   33   48 1    
    52   33   49 1    
    53   34   35 1    
    54   34   50 1    
    55   34   51 1    
    56   35   52 1    
    57   35   53 1    
@<TRIPOS>SUBSTRUCTURE
     1 UNK         1 GROUP             0       ****    0 ROOT    
