ZINC06146437_3975
                    3D
 Schrodinger Suite 2024-2.
 60 63  0  0  1  0            999 V2000
    2.4086   59.6240   15.4069 C   0  0  0  0  0  0
    2.2181   58.2257   15.5630 O   0  0  0  0  0  0
    3.0762   57.5207   16.3867 C   0  0  0  0  0  0
    4.2904   58.0359   16.8772 C   0  0  0  0  0  0
    5.1005   57.2702   17.7141 C   0  0  0  0  0  0
    4.7019   55.9862   18.0956 C   0  0  0  0  0  0
    3.5036   55.4740   17.5978 C   0  0  0  0  0  0
    2.6830   56.2238   16.7434 C   0  0  0  0  0  0
    1.4758   55.7614   16.2447 O   0  0  0  0  0  0
    1.0151   54.4625   16.6031 C   0  0  0  0  0  0
    5.7381   55.0007   19.1971 S   0  0  0  0  0  0
    6.6260   55.9418   19.8899 O   0  0  0  0  0  0
    6.3045   53.8990   18.4132 O   0  0  0  0  0  0
    4.7047   54.3079   20.4797 N   0  0  0  0  0  0
    3.7882   53.2359   20.3923 C   0  0  0  0  0  0
    3.6654   52.4968   19.2078 C   0  0  0  0  0  0
    2.7044   51.5019   19.0596 C   0  0  0  0  0  0
    1.8600   51.1985   20.1137 C   0  0  0  0  0  0
    1.9934   51.8787   21.3171 C   0  0  0  0  0  0
    2.9601   52.8942   21.5005 C   0  0  0  0  0  0
    3.1030   53.5550   22.8727 C   0  0  0  0  0  0
    3.8731   54.4964   23.0587 O   0  0  0  0  0  0
    2.3351   53.0241   23.8489 N   0  0  0  0  0  0
    2.3125   53.2971   25.2130 C   0  0  0  0  0  0
    1.3944   52.7651   26.1164 C   0  0  0  0  0  0
    1.6338   53.1591   27.4521 C   0  0  0  0  0  0
    2.7291   54.0291   27.5641 C   0  0  0  0  0  0
    3.5044   54.2628   26.0262 S   0  0  0  0  0  0
    3.1831   54.7291   28.8236 C   0  0  0  0  0  0
    2.0870   55.6517   29.3924 C   0  0  0  0  0  0
    0.9522   54.9149   30.1395 C   0  0  0  0  0  0
    0.0740   53.9440   29.3201 C   0  0  0  0  0  0
    0.8097   52.7588   28.6692 C   0  0  0  0  0  0
    0.2903   51.8985   25.7096 C   0  0  0  0  0  0
   -0.5830   51.2157   25.3797 N   0  0  0  0  0  0
    1.6040   60.0355   14.7979 H   0  0  0  0  0  0
    2.3664   60.1058   16.3825 H   0  0  0  0  0  0
    3.3530   59.8631   14.9155 H   0  0  0  0  0  0
    4.6202   59.0335   16.6233 H   0  0  0  0  0  0
    6.0273   57.6879   18.0800 H   0  0  0  0  0  0
    3.1890   54.4930   17.8868 H   0  0  0  0  0  0
    0.0531   54.2769   16.1233 H   0  0  0  0  0  0
    1.7060   53.6854   16.2698 H   0  0  0  0  0  0
    0.8658   54.3732   17.6810 H   0  0  0  0  0  0
    4.6672   54.8273   21.3468 H   0  0  0  0  0  0
    4.3102   52.6622   18.3617 H   0  0  0  0  0  0
    2.6461   50.9494   18.1315 H   0  0  0  0  0  0
    1.1210   50.4177   20.0060 H   0  0  0  0  0  0
    1.3190   51.5725   22.1032 H   0  0  0  0  0  0
    1.6378   52.3656   23.5418 H   0  0  0  0  0  0
    4.0950   55.2967   28.6402 H   0  0  0  0  0  0
    3.4441   53.9964   29.5879 H   0  0  0  0  0  0
    1.6678   56.2684   28.5962 H   0  0  0  0  0  0
    2.5459   56.3592   30.0815 H   0  0  0  0  0  0
    0.3059   55.6623   30.6014 H   0  0  0  0  0  0
    1.3795   54.3558   30.9698 H   0  0  0  0  0  0
   -0.4821   54.4818   28.5503 H   0  0  0  0  0  0
   -0.6816   53.5384   29.9950 H   0  0  0  0  0  0
    1.4514   52.2860   29.4134 H   0  0  0  0  0  0
    0.0783   51.9886   28.4221 H   0  0  0  0  0  0
  1  2  1  0  0  0
  1 36  1  0  0  0
  1 37  1  0  0  0
  1 38  1  0  0  0
  2  3  1  0  0  0
  3  8  2  0  0  0
  3  4  1  0  0  0
  4  5  2  0  0  0
  4 39  1  0  0  0
  5  6  1  0  0  0
  5 40  1  0  0  0
  6  7  2  0  0  0
  6 11  1  0  0  0
  7  8  1  0  0  0
  7 41  1  0  0  0
  8  9  1  0  0  0
  9 10  1  0  0  0
 10 42  1  0  0  0
 10 43  1  0  0  0
 10 44  1  0  0  0
 11 12  2  0  0  0
 11 13  2  0  0  0
 11 14  1  0  0  0
 14 15  1  0  0  0
 14 45  1  0  0  0
 15 20  2  0  0  0
 15 16  1  0  0  0
 16 17  2  0  0  0
 16 46  1  0  0  0
 17 18  1  0  0  0
 17 47  1  0  0  0
 18 19  2  0  0  0
 18 48  1  0  0  0
 19 20  1  0  0  0
 19 49  1  0  0  0
 20 21  1  0  0  0
 21 22  2  0  0  0
 21 23  1  0  0  0
 23 24  1  0  0  0
 23 50  1  0  0  0
 24 28  1  0  0  0
 24 25  2  0  0  0
 25 26  1  0  0  0
 25 34  1  0  0  0
 26 33  1  0  0  0
 26 27  2  0  0  0
 27 28  1  0  0  0
 27 29  1  0  0  0
 29 30  1  0  0  0
 29 51  1  0  0  0
 29 52  1  0  0  0
 30 31  1  0  0  0
 30 53  1  0  0  0
 30 54  1  0  0  0
 31 32  1  0  0  0
 31 55  1  0  0  0
 31 56  1  0  0  0
 32 33  1  0  0  0
 32 57  1  0  0  0
 32 58  1  0  0  0
 33 59  1  0  0  0
 33 60  1  0  0  0
 34 35  3  0  0  0
M  END
> <i_i_glide_confnum>
7

> <i_i_glide_lignum>
3976

> <i_i_glide_posenum>
145

> <i_i_glide_rotatable_bonds>
9

> <i_m_Source_File_Index>
3846

> <b_m_subgroup_collapsed>
0

> <r_i_docking_score>
-4.20046

> <r_i_glide_ecoul>
-2.24132

> <r_i_glide_eff_state_penalty>
0

> <r_i_glide_einternal>
4.95911

> <r_i_glide_emodel>
-54.7714

> <r_i_glide_energy>
-46.2158

> <r_i_glide_erotb>
0.469781

> <r_i_glide_esite>
-0.0202116

> <r_i_glide_evdw>
-43.9745

> <r_i_glide_gscore>
-4.20046

> <r_i_glide_hbond>
0

> <r_i_glide_ligand_efficiency>
-0.120013

> <r_i_glide_ligand_efficiency_ln>
-0.922095

> <r_i_glide_ligand_efficiency_sa>
-0.392571

> <r_i_glide_lipo>
-2.46509

> <r_i_glide_metal>
0

> <r_i_glide_rewards>
0.349983

> <s_i_glide_gridfile>
wee1_glide-grid

> <s_m_Source_File>
wee1_decoys_glide_SP.sdf

> <s_m_Source_Path>
/Users/zhangxujun/Desktop

> <s_m_entry_id>
4121

> <s_m_entry_name>
wee1_decoys_glide_SP.3846

> <s_m_subgroup_title>
wee1_decoys_glide_SP

> <s_m_subgroupid>
wee1_decoys_glide_SP


$$$$
