@<TRIPOS>MOLECULE
ZINC35692832_5647
60   63    1
SMALL
USER_CHARGES


@<TRIPOS>ATOM
      1 C1          4.2771   52.0793   30.7290 C.3       1 UNK         0.0000 
      2 C2          4.7042   52.4971   29.3117 C.3       1 UNK         0.0000 
      3 O3          3.5391   52.5262   28.5207 O.3       1 UNK         0.0000 
      4 C4          2.6437   53.5205   28.6185 C.2       1 UNK         0.0000 
      5 O5          2.8496   54.6171   29.1460 O.2       1 UNK         0.0000 
      6 C6          1.3570   53.0792   28.1134 C.2       1 UNK         0.0000 
      7 C7          0.2786   53.0788   28.9432 C.2       1 UNK         0.0000 
      8 N8         -0.8956   52.4965   28.6012 N.2       1 UNK         0.0000 
      9 C9         -1.0168   51.9051   27.4812 C.2       1 UNK         0.0000 
     10 N10        -0.0341   51.7178   26.5181 N.pl3     1 UNK         0.0000 
     11 C11         1.3064   52.3458   26.7304 C.3       1 UNK         0.0000 
     12 H12         1.9051   51.4573   26.8808 H         1 UNK         0.0000 
     13 C13         1.8897   53.1243   25.5159 C.ar      1 UNK         0.0000 
     14 C14         1.1079   53.4762   24.4038 C.ar      1 UNK         0.0000 
     15 C15         1.6863   54.0972   23.2951 C.ar      1 UNK         0.0000 
     16 C16         3.0410   54.4066   23.2814 C.ar      1 UNK         0.0000 
     17 C17         3.8319   54.0975   24.3822 C.ar      1 UNK         0.0000 
     18 C18         3.2547   53.4534   25.4766 C.ar      1 UNK         0.0000 
     19 C19         5.3179   54.4095   24.3694 C.3       1 UNK         0.0000 
     20 C20        -0.3858   50.8059   25.5275 C.2       1 UNK         0.0000 
     21 C21        -1.7023   50.5260   25.5547 C.2       1 UNK         0.0000 
     22 S22        -2.5605   51.2767   26.8888 S.3       1 UNK         0.0000 
     23 C23         0.5128   50.2173   24.5421 C.2       1 UNK         0.0000 
     24 C24         0.2189   49.9305   23.2607 C.2       1 UNK         0.0000 
     25 O25        -0.8599   50.1413   22.5894 O.co2     1 UNK         0.0000 
     26 N26         1.1606   49.2967   22.4826 N.pl3     1 UNK         0.0000 
     27 C27         1.3864   49.3863   21.0432 C.3       1 UNK         0.0000 
     28 C28         2.2714   50.5727   20.6322 C.3       1 UNK         0.0000 
     29 H29         3.1780   50.6471   21.2350 H         1 UNK         0.0000 
     30 C30         1.5593   51.9287   20.4888 C.3       1 UNK         0.0000 
     31 C31         1.3681   52.0909   18.9982 C.3       1 UNK         0.0000 
     32 C32         2.6024   51.3897   18.4542 C.3       1 UNK         0.0000 
     33 O33         2.7042   50.2576   19.3082 O.3       1 UNK         0.0000 
     34 C34         0.1833   53.5923   30.3826 C.3       1 UNK         0.0000 
     35 H35         5.1045   51.6830   31.2925 H         1 UNK         0.0000 
     36 H36         3.8602   52.9183   31.2821 H         1 UNK         0.0000 
     37 H37         3.5218   51.2974   30.7002 H         1 UNK         0.0000 
     38 H38         5.3785   51.7555   28.8823 H         1 UNK         0.0000 
     39 H39         5.2270   53.4540   29.2829 H         1 UNK         0.0000 
     40 H40         0.0528   53.2488   24.3734 H         1 UNK         0.0000 
     41 H41         1.1045   54.3395   22.4242 H         1 UNK         0.0000 
     42 H42         3.4693   54.8847   22.4120 H         1 UNK         0.0000 
     43 H43         3.9152   53.1707   26.2760 H         1 UNK         0.0000 
     44 H44         5.7224   54.3317   23.3599 H         1 UNK         0.0000 
     45 H45         5.5029   55.4172   24.7415 H         1 UNK         0.0000 
     46 H46         5.8747   53.7010   24.9830 H         1 UNK         0.0000 
     47 H47        -2.2230   49.8606   24.8830 H         1 UNK         0.0000 
     48 H48         1.5020   49.9526   24.8818 H         1 UNK         0.0000 
     49 H49         1.9965   49.0180   22.9752 H         1 UNK         0.0000 
     50 H50         0.4360   49.4180   20.5090 H         1 UNK         0.0000 
     51 H51         1.8692   48.4539   20.7482 H         1 UNK         0.0000 
     52 H52         2.2223   52.7251   20.8287 H         1 UNK         0.0000 
     53 H53         0.6258   51.9980   21.0461 H         1 UNK         0.0000 
     54 H54         1.3061   53.1349   18.6895 H         1 UNK         0.0000 
     55 H55         0.4623   51.5815   18.6661 H         1 UNK         0.0000 
     56 H56         3.5070   51.9945   18.5236 H         1 UNK         0.0000 
     57 H57         2.5046   51.0840   17.4118 H         1 UNK         0.0000 
     58 H58         1.1421   53.8496   30.8237 H         1 UNK         0.0000 
     59 H59        -0.4471   54.4800   30.4181 H         1 UNK         0.0000 
     60 H60        -0.2620   52.8387   31.0368 H         1 UNK         0.0000 
@<TRIPOS>BOND
     1    1    2 1    
     2    1   35 1    
     3    1   36 1    
     4    1   37 1    
     5    2    3 1    
     6    2   38 1    
     7    2   39 1    
     8    3    4 1    
     9    4    5 2    
    10    4    6 1    
    11    6   11 1    
    12    6    7 2    
    13    7    8 1    
    14    7   34 1    
    15    8    9 2    
    16    9   22 1    
    17    9   10 1    
    18   10   11 1    
    19   10   20 1    
    20   11   12 1    
    21   11   13 1    
    22   13   18 ar   
    23   13   14 ar   
    24   14   15 ar   
    25   14   40 1    
    26   15   16 ar   
    27   15   41 1    
    28   16   17 ar   
    29   16   42 1    
    30   17   18 ar   
    31   17   19 1    
    32   18   43 1    
    33   19   44 1    
    34   19   45 1    
    35   19   46 1    
    36   20   21 2    
    37   20   23 1    
    38   21   22 1    
    39   21   47 1    
    40   23   24 2    
    41   23   48 1    
    42   24   25 1    
    43   24   26 1    
    44   26   27 1    
    45   26   49 1    
    46   27   28 1    
    47   27   50 1    
    48   27   51 1    
    49   28   29 1    
    50   28   33 1    
    51   28   30 1    
    52   30   31 1    
    53   30   52 1    
    54   30   53 1    
    55   31   32 1    
    56   31   54 1    
    57   31   55 1    
    58   32   33 1    
    59   32   56 1    
    60   32   57 1    
    61   34   58 1    
    62   34   59 1    
    63   34   60 1    
@<TRIPOS>SUBSTRUCTURE
     1 UNK         1 GROUP             0       ****    0 ROOT    
