ZINC03007119_1064
                    3D
 Schrodinger Suite 2024-2.
 66 69  0  0  1  0            999 V2000
    2.0486   52.7228   14.3364 C   0  0  0  0  0  0
    3.0092   51.6556   14.8986 C   0  0  0  0  0  0
    4.4197   51.7183   14.2880 C   0  0  0  0  0  0
    1.7816   51.3059   17.1332 C   0  0  0  0  0  0
    2.1209   50.8929   18.5789 C   0  0  0  0  0  0
    2.9184   51.9939   19.2852 C   0  0  0  0  0  0
    3.6206   52.9542   18.5413 C   0  0  0  0  0  0
    4.3799   54.1370   19.5531 S   0  0  0  0  0  0
    3.6901   53.3993   20.9557 C   0  0  0  0  0  0
    2.9672   52.2239   20.6865 C   0  0  0  0  0  0
    2.3370   51.3923   21.7191 C   0  0  0  0  0  0
    1.9052   51.8335   22.7872 O   0  0  0  0  0  0
    2.3622   50.0900   21.3796 O   0  0  0  0  0  0
    1.9279   49.0996   22.2948 C   0  0  0  0  0  0
    3.8112   54.0230   22.1827 N   0  0  0  0  0  0
    4.8040   53.7722   23.0581 C   0  0  0  0  0  0
    5.9037   53.3104   22.7440 O   0  0  0  0  0  0
    4.4803   54.0963   24.5032 C   0  0  0  0  0  0
    5.5041   54.3071   25.4381 C   0  0  0  0  0  0
    5.2083   54.4091   26.7996 C   0  0  0  0  0  0
    3.8841   54.3041   27.2362 C   0  0  0  0  0  0
    2.8627   54.1104   26.3135 C   0  0  0  0  0  0
    3.1541   54.0215   24.9599 C   0  0  0  0  0  0
    3.4638   54.4723   28.9735 S   0  0  0  0  0  0
    4.7047   54.8006   29.6817 O   0  0  0  0  0  0
    2.3043   55.3685   29.0471 O   0  0  0  0  0  0
    2.9115   52.8674   29.5574 N   0  0  0  0  0  0
    3.6151   52.2084   30.6547 C   0  0  0  0  0  0
    1.6648   52.3386   29.1911 C   0  0  0  0  0  0
    1.5057   51.7642   27.9308 C   0  0  0  0  0  0
    0.2704   51.2768   27.5233 C   0  0  0  0  0  0
   -0.7926   51.2973   28.4166 C   0  0  0  0  0  0
   -0.6283   51.8059   29.7032 C   0  0  0  0  0  0
    0.5891   52.3642   30.0816 C   0  0  0  0  0  0
    3.6748   53.0311   17.0185 C   0  0  0  0  0  0
    1.9243   52.5917   13.2602 H   0  0  0  0  0  0
    2.4195   53.7352   14.4882 H   0  0  0  0  0  0
    1.0555   52.6549   14.7805 H   0  0  0  0  0  0
    2.6109   50.6560   14.7054 H   0  0  0  0  0  0
    4.3875   51.5129   13.2176 H   0  0  0  0  0  0
    4.8823   52.6962   14.4131 H   0  0  0  0  0  0
    5.0776   50.9746   14.7395 H   0  0  0  0  0  0
    1.1026   52.1578   17.0641 H   0  0  0  0  0  0
    1.3725   50.4477   16.5969 H   0  0  0  0  0  0
    1.1982   50.6590   19.1092 H   0  0  0  0  0  0
    2.7143   49.9760   18.5718 H   0  0  0  0  0  0
    2.3046   48.1275   21.9752 H   0  0  0  0  0  0
    2.3145   49.2963   23.2987 H   0  0  0  0  0  0
    0.8374   49.0607   22.3443 H   0  0  0  0  0  0
    3.0274   54.5797   22.4888 H   0  0  0  0  0  0
    6.5370   54.3469   25.1199 H   0  0  0  0  0  0
    6.0094   54.5622   27.5096 H   0  0  0  0  0  0
    1.8329   54.0594   26.6387 H   0  0  0  0  0  0
    2.3286   53.8444   24.2872 H   0  0  0  0  0  0
    2.9266   51.8460   31.4205 H   0  0  0  0  0  0
    4.1835   51.3576   30.2773 H   0  0  0  0  0  0
    4.3043   52.8857   31.1531 H   0  0  0  0  0  0
    2.3453   51.6970   27.2632 H   0  0  0  0  0  0
    0.1519   50.8368   26.5428 H   0  0  0  0  0  0
   -1.7389   50.8575   28.1302 H   0  0  0  0  0  0
   -1.4319   51.7270   30.4182 H   0  0  0  0  0  0
    0.6985   52.7725   31.0768 H   0  0  0  0  0  0
    4.6983   53.1060   16.6494 H   0  0  0  0  0  0
    3.0570   53.8459   16.6411 H   0  0  0  0  0  0
    3.1046   51.7017   16.4492 N   0  3  2  0  0  0
    3.7469   50.9423   16.6796 H   0  0  0  0  0  0
  1  2  1  0  0  0
  1 36  1  0  0  0
  1 37  1  0  0  0
  1 38  1  0  0  0
  2  3  1  0  0  0
  2 39  1  0  0  0
  2 65  1  0  0  0
  3 40  1  0  0  0
  3 41  1  0  0  0
  3 42  1  0  0  0
  4  5  1  0  0  0
  4 43  1  0  0  0
  4 44  1  0  0  0
  4 65  1  0  0  0
  5  6  1  0  0  0
  5 45  1  0  0  0
  5 46  1  0  0  0
  6 10  1  0  0  0
  6  7  2  0  0  0
  7  8  1  0  0  0
  7 35  1  0  0  0
  8  9  1  0  0  0
  9 10  2  0  0  0
  9 15  1  0  0  0
 10 11  1  0  0  0
 11 12  2  0  0  0
 11 13  1  0  0  0
 13 14  1  0  0  0
 14 47  1  0  0  0
 14 48  1  0  0  0
 14 49  1  0  0  0
 15 16  1  0  0  0
 15 50  1  0  0  0
 16 17  2  0  0  0
 16 18  1  0  0  0
 18 23  2  0  0  0
 18 19  1  0  0  0
 19 20  2  0  0  0
 19 51  1  0  0  0
 20 21  1  0  0  0
 20 52  1  0  0  0
 21 22  2  0  0  0
 21 24  1  0  0  0
 22 23  1  0  0  0
 22 53  1  0  0  0
 23 54  1  0  0  0
 24 25  2  0  0  0
 24 26  2  0  0  0
 24 27  1  0  0  0
 27 28  1  0  0  0
 27 29  1  0  0  0
 28 55  1  0  0  0
 28 56  1  0  0  0
 28 57  1  0  0  0
 29 34  2  0  0  0
 29 30  1  0  0  0
 30 31  2  0  0  0
 30 58  1  0  0  0
 31 32  1  0  0  0
 31 59  1  0  0  0
 32 33  2  0  0  0
 32 60  1  0  0  0
 33 34  1  0  0  0
 33 61  1  0  0  0
 34 62  1  0  0  0
 35 63  1  0  0  0
 35 64  1  0  0  0
 35 65  1  0  0  0
 65 66  1  0  0  0
M  CHG  1  65   1
M  END
> <i_i_glide_confnum>
211

> <i_i_glide_lignum>
1065

> <i_i_glide_posenum>
84

> <i_i_glide_rotatable_bonds>
9

> <i_m_Source_File_Index>
2708

> <b_m_subgroup_collapsed>
0

> <r_i_docking_score>
-4.26024

> <r_i_glide_ecoul>
-3.89404

> <r_i_glide_eff_state_penalty>
0

> <r_i_glide_einternal>
27.0067

> <r_i_glide_emodel>
-48.9079

> <r_i_glide_energy>
-51.8441

> <r_i_glide_erotb>
0.516016

> <r_i_glide_esite>
-0.0860844

> <r_i_glide_evdw>
-47.9501

> <r_i_glide_gscore>
-4.26024

> <r_i_glide_hbond>
-0.285594

> <r_i_glide_ligand_efficiency>
-0.11834

> <r_i_glide_ligand_efficiency_ln>
-0.92947

> <r_i_glide_ligand_efficiency_sa>
-0.39075

> <r_i_glide_lipo>
-2.04772

> <r_i_glide_metal>
0

> <r_i_glide_rewards>
0.624752

> <s_i_glide_gridfile>
wee1_glide-grid

> <s_m_Source_File>
wee1_decoys_glide_SP.sdf

> <s_m_Source_Path>
/Users/zhangxujun/Desktop

> <s_m_entry_id>
2983

> <s_m_entry_name>
wee1_decoys_glide_SP.2708

> <s_m_subgroup_title>
wee1_decoys_glide_SP

> <s_m_subgroupid>
wee1_decoys_glide_SP


$$$$
