ZINC20764833_3469
                    3D
 Schrodinger Suite 2024-2.
 53 56  0  0  1  0            999 V2000
    5.9366   54.9156   26.6305 C   0  0  0  0  0  0
    5.5095   54.5788   25.2130 C   0  0  0  0  0  0
    6.4659   54.5265   24.2017 C   0  0  0  0  0  0
    6.0885   54.1824   22.9075 C   0  0  0  0  0  0
    4.7521   53.8779   22.6026 C   0  0  0  0  0  0
    3.7897   53.9854   23.6197 C   0  0  0  0  0  0
    4.1681   54.3296   24.9173 C   0  0  0  0  0  0
    4.3921   53.4204   21.2354 C   0  0  0  0  0  0
    5.1103   53.7694   20.2283 N   0  0  0  0  0  0
    4.8754   53.3055   18.8628 C   0  0  1  0  0  0
    5.5829   52.4968   18.6613 H   0  0  0  0  0  0
    3.5045   52.6579   18.5955 N   0  3  0  0  0  0
    3.0829   51.7552   19.7541 C   0  0  1  0  0  0
    3.8545   50.9832   19.7890 H   0  0  0  0  0  0
    3.0994   52.5938   21.0596 C   0  0  0  0  0  0
    1.7273   51.1398   19.3834 C   0  0  0  0  0  0
    0.5635   51.9232   19.4298 C   0  0  0  0  0  0
   -0.6808   51.3750   19.1233 C   0  0  0  0  0  0
   -0.7813   50.0321   18.7672 C   0  0  0  0  0  0
    0.3650   49.2440   18.7078 C   0  0  0  0  0  0
    1.6130   49.7911   18.9995 C   0  0  0  0  0  0
    2.7038   48.9752   18.8818 O   0  0  0  0  0  0
    5.0895   54.4010   17.8243 C   0  0  0  0  0  0
    6.0496   54.2227   16.8252 C   0  0  0  0  0  0
    6.2482   55.2000   15.8524 C   0  0  0  0  0  0
    5.4821   56.3767   15.8535 C   0  0  0  0  0  0
    4.5207   56.5521   16.8570 C   0  0  0  0  0  0
    4.3310   55.5775   17.8395 C   0  0  0  0  0  0
    3.4483   58.1289   16.8815 Br  0  0  0  0  0  0
    5.6160   57.3819   14.9156 O   0  0  0  0  0  0
    6.6006   57.2625   13.8933 C   0  0  0  0  0  0
    6.7023   55.6928   26.6305 H   0  0  0  0  0  0
    5.0988   55.2890   27.2211 H   0  0  0  0  0  0
    6.3505   54.0337   27.1213 H   0  0  0  0  0  0
    7.5042   54.7384   24.4130 H   0  0  0  0  0  0
    6.8564   54.1396   22.1498 H   0  0  0  0  0  0
    2.7455   53.7827   23.4294 H   0  0  0  0  0  0
    3.4191   54.3777   25.6953 H   0  0  0  0  0  0
    2.8020   53.3660   18.4417 H   0  0  0  0  0  0
    2.2695   53.2962   21.0814 H   0  0  0  0  0  0
    2.9566   51.9368   21.9188 H   0  0  0  0  0  0
    0.6117   52.9668   19.6977 H   0  0  0  0  0  0
   -1.5675   51.9892   19.1618 H   0  0  0  0  0  0
   -1.7440   49.6042   18.5291 H   0  0  0  0  0  0
    0.2899   48.2064   18.4177 H   0  0  0  0  0  0
    3.3347   49.2551   18.1943 H   0  0  0  0  0  0
    6.6487   53.3228   16.7953 H   0  0  0  0  0  0
    7.0023   55.0214   15.1013 H   0  0  0  0  0  0
    3.5855   55.7319   18.6077 H   0  0  0  0  0  0
    6.5703   58.1491   13.2617 H   0  0  0  0  0  0
    7.6057   57.1907   14.3134 H   0  0  0  0  0  0
    6.4133   56.3969   13.2560 H   0  0  0  0  0  0
    3.5631   52.0984   17.7555 H   0  0  0  0  0  0
  1  2  1  0  0  0
  1 32  1  0  0  0
  1 33  1  0  0  0
  1 34  1  0  0  0
  2  7  2  0  0  0
  2  3  1  0  0  0
  3  4  2  0  0  0
  3 35  1  0  0  0
  4  5  1  0  0  0
  4 36  1  0  0  0
  5  6  2  0  0  0
  5  8  1  0  0  0
  6  7  1  0  0  0
  6 37  1  0  0  0
  7 38  1  0  0  0
  8 15  1  0  0  0
  8  9  2  0  0  0
  9 10  1  0  0  0
 10 11  1  0  0  0
 10 12  1  0  0  0
 10 23  1  0  0  0
 12 13  1  0  0  0
 12 39  1  0  0  0
 12 53  1  0  0  0
 13 14  1  0  0  0
 13 15  1  0  0  0
 13 16  1  0  0  0
 15 40  1  0  0  0
 15 41  1  0  0  0
 16 21  2  0  0  0
 16 17  1  0  0  0
 17 18  2  0  0  0
 17 42  1  0  0  0
 18 19  1  0  0  0
 18 43  1  0  0  0
 19 20  2  0  0  0
 19 44  1  0  0  0
 20 21  1  0  0  0
 20 45  1  0  0  0
 21 22  1  0  0  0
 22 46  1  0  0  0
 23 28  2  0  0  0
 23 24  1  0  0  0
 24 25  2  0  0  0
 24 47  1  0  0  0
 25 26  1  0  0  0
 25 48  1  0  0  0
 26 27  2  0  0  0
 26 30  1  0  0  0
 27 28  1  0  0  0
 27 29  1  0  0  0
 28 49  1  0  0  0
 30 31  1  0  0  0
 31 50  1  0  0  0
 31 51  1  0  0  0
 31 52  1  0  0  0
M  CHG  1  12   1
M  END
> <i_i_glide_confnum>
4

> <i_i_glide_lignum>
3470

> <i_i_glide_posenum>
93

> <i_i_glide_rotatable_bonds>
5

> <i_m_Source_File_Index>
2619

> <b_m_subgroup_collapsed>
0

> <r_i_docking_score>
-5.02097

> <r_i_glide_ecoul>
-5.56816

> <r_i_glide_eff_state_penalty>
0

> <r_i_glide_einternal>
2.78497

> <r_i_glide_emodel>
-49.7541

> <r_i_glide_energy>
-36.0159

> <r_i_glide_erotb>
0.294154

> <r_i_glide_esite>
-0.12797

> <r_i_glide_evdw>
-30.4478

> <r_i_glide_gscore>
-5.02097

> <r_i_glide_hbond>
-0.205828

> <r_i_glide_ligand_efficiency>
-0.173137

> <r_i_glide_ligand_efficiency_ln>
-1.14967

> <r_i_glide_ligand_efficiency_sa>
-0.531931

> <r_i_glide_lipo>
-2.07289

> <r_i_glide_metal>
0

> <r_i_glide_rewards>
-0.550826

> <s_i_glide_gridfile>
wee1_glide-grid

> <s_m_Source_File>
wee1_decoys_glide_SP.sdf

> <s_m_Source_Path>
/Users/zhangxujun/Desktop

> <s_m_entry_id>
2894

> <s_m_entry_name>
wee1_decoys_glide_SP.2619

> <s_m_subgroup_title>
wee1_decoys_glide_SP

> <s_m_subgroupid>
wee1_decoys_glide_SP


$$$$
