@<TRIPOS>MOLECULE
ZINC39665744_3068
76   79    1
SMALL
USER_CHARGES


@<TRIPOS>ATOM
      1 C1         -0.0275   49.1372   25.9139 C.3       1 UNK         0.0000 
      2 C2          0.4225   49.9981   24.7270 C.3       1 UNK         0.0000 
      3 C3          0.0784   51.5204   24.7877 C.3       1 UNK         0.0000 
      4 H4         -0.9908   51.6220   24.5982 H         1 UNK         0.0000 
      5 C5          0.3097   52.0494   26.2267 C.ar      1 UNK         0.0000 
      6 C6         -0.7215   51.9469   27.1680 C.ar      1 UNK         0.0000 
      7 C7         -0.4952   52.2647   28.5042 C.ar      1 UNK         0.0000 
      8 C8          0.7558   52.7256   28.9041 C.ar      1 UNK         0.0000 
      9 C9          1.7882   52.8481   27.9809 C.ar      1 UNK         0.0000 
     10 C10         1.5693   52.4994   26.6512 C.ar      1 UNK         0.0000 
     11 C11         0.7403   52.4125   23.6746 C.2       1 UNK         0.0000 
     12 O12         0.9521   53.6009   23.9367 O.2       1 UNK         0.0000 
     13 N13         1.0926   51.9283   22.4491 N.am      1 UNK         0.0000 
     14 C14         0.7066   50.6508   21.8464 C.3       1 UNK         0.0000 
     15 C15         1.0761   50.7942   20.3506 C.3       1 UNK         0.0000 
     16 H16         0.2306   51.2129   19.8037 H         1 UNK         0.0000 
     17 C17         2.2619   51.7937   20.3555 C.3       1 UNK         0.0000 
     18 C18         1.7889   52.7567   21.4651 C.3       1 UNK         0.0000 
     19 C19         2.4786   52.4675   18.9726 C.3       1 UNK         0.0000 
     20 C20         3.6297   53.5005   18.9654 C.3       1 UNK         0.0000 
     21 N21         4.9148   52.7871   19.4201 N.4       1 UNK         0.0000 
     22 C22         4.7734   52.1727   20.8276 C.3       1 UNK         0.0000 
     23 C23         3.6306   51.1436   20.7435 C.3       1 UNK         0.0000 
     24 C24         1.3937   49.3934   19.7636 C.2       1 UNK         0.0000 
     25 O25         1.8258   48.4902   20.4811 O.2       1 UNK         0.0000 
     26 N26         1.1041   49.2085   18.4650 N.am      1 UNK         0.0000 
     27 C27         1.3147   47.9600   17.7229 C.3       1 UNK         0.0000 
     28 C28         0.0325   47.4471   17.0183 C.3       1 UNK         0.0000 
     29 H29        -0.8285   47.5338   17.6811 H         1 UNK         0.0000 
     30 C30        -0.3146   48.2694   15.7675 C.3       1 UNK         0.0000 
     31 O31         0.2023   46.0972   16.5787 O.3       1 UNK         0.0000 
     32 C32         0.2421   45.0625   17.4946 C.ar      1 UNK         0.0000 
     33 C33         0.7668   43.8551   17.0402 C.ar      1 UNK         0.0000 
     34 C34         0.9070   42.7731   17.9045 C.ar      1 UNK         0.0000 
     35 C35         0.5088   42.8879   19.2343 C.ar      1 UNK         0.0000 
     36 C36        -0.0962   44.0663   19.6797 C.ar      1 UNK         0.0000 
     37 C37        -0.2094   45.1561   18.8214 C.ar      1 UNK         0.0000 
     38 O38         0.7047   41.7952   20.0512 O.3       1 UNK         0.0000 
     39 C39         1.2470   42.0468   21.3427 C.3       1 UNK         0.0000 
     40 H40         0.1790   48.0977   25.6828 H         1 UNK         0.0000 
     41 H41         0.4930   49.3776   26.8451 H         1 UNK         0.0000 
     42 H42        -1.1019   49.2232   26.0838 H         1 UNK         0.0000 
     43 H43        -0.0963   49.5365   23.8893 H         1 UNK         0.0000 
     44 H44         1.4933   49.8459   24.5667 H         1 UNK         0.0000 
     45 H45        -1.6901   51.5632   26.8790 H         1 UNK         0.0000 
     46 H46        -1.2833   52.1374   29.2330 H         1 UNK         0.0000 
     47 H47         0.9262   52.9751   29.9433 H         1 UNK         0.0000 
     48 H48         2.7652   53.1866   28.2955 H         1 UNK         0.0000 
     49 H49         2.3938   52.5583   25.9564 H         1 UNK         0.0000 
     50 H50         1.3526   49.9034   22.3106 H         1 UNK         0.0000 
     51 H51        -0.3575   50.4308   21.9423 H         1 UNK         0.0000 
     52 H52         1.0033   53.3849   21.0529 H         1 UNK         0.0000 
     53 H53         2.5518   53.4310   21.8570 H         1 UNK         0.0000 
     54 H54         2.6596   51.7100   18.2055 H         1 UNK         0.0000 
     55 H55         1.5639   52.9736   18.6641 H         1 UNK         0.0000 
     56 H56         3.8264   53.8887   17.9648 H         1 UNK         0.0000 
     57 H57         3.5040   54.3370   19.6541 H         1 UNK         0.0000 
     58 H58         5.1056   52.0082   18.7832 H         1 UNK         0.0000 
     59 H59         5.7238   51.6970   21.0587 H         1 UNK         0.0000 
     60 H60         4.6059   52.9839   21.5360 H         1 UNK         0.0000 
     61 H61         3.5401   50.6403   21.7070 H         1 UNK         0.0000 
     62 H62         3.9038   50.3597   20.0366 H         1 UNK         0.0000 
     63 H63         0.8255   50.0074   17.9191 H         1 UNK         0.0000 
     64 H64         2.1030   48.1229   16.9869 H         1 UNK         0.0000 
     65 H65         1.7191   47.1772   18.3656 H         1 UNK         0.0000 
     66 H66        -0.4791   49.3190   16.0122 H         1 UNK         0.0000 
     67 H67         0.4863   48.2199   15.0274 H         1 UNK         0.0000 
     68 H68        -1.2240   47.8941   15.2956 H         1 UNK         0.0000 
     69 H69         1.1026   43.7696   16.0166 H         1 UNK         0.0000 
     70 H70         1.3478   41.8545   17.5486 H         1 UNK         0.0000 
     71 H71        -0.4509   44.1621   20.6940 H         1 UNK         0.0000 
     72 H72        -0.6455   46.0645   19.2091 H         1 UNK         0.0000 
     73 H73         1.4044   41.0957   21.8520 H         1 UNK         0.0000 
     74 H74         2.2154   42.5451   21.2825 H         1 UNK         0.0000 
     75 H75         0.5832   42.6397   21.9696 H         1 UNK         0.0000 
     76 H76         5.7055   53.4138   19.3752 H         1 UNK         0.0000 
@<TRIPOS>BOND
     1    1    2 1    
     2    1   40 1    
     3    1   41 1    
     4    1   42 1    
     5    2    3 1    
     6    2   43 1    
     7    2   44 1    
     8    3    4 1    
     9    3    5 1    
    10    3   11 1    
    11    5   10 ar   
    12    5    6 ar   
    13    6    7 ar   
    14    6   45 1    
    15    7    8 ar   
    16    7   46 1    
    17    8    9 ar   
    18    8   47 1    
    19    9   10 ar   
    20    9   48 1    
    21   10   49 1    
    22   11   12 2    
    23   11   13 am   BACKBONE|DICT|INTERRES
    24   13   18 1    
    25   13   14 1    
    26   14   15 1    
    27   14   50 1    
    28   14   51 1    
    29   15   16 1    
    30   15   17 1    
    31   15   24 1    
    32   17   23 1    
    33   17   18 1    
    34   17   19 1    
    35   18   52 1    
    36   18   53 1    
    37   19   20 1    
    38   19   54 1    
    39   19   55 1    
    40   20   21 1    
    41   20   56 1    
    42   20   57 1    
    43   21   22 1    
    44   21   58 1    
    45   21   76 1    
    46   22   23 1    
    47   22   59 1    
    48   22   60 1    
    49   23   61 1    
    50   23   62 1    
    51   24   25 2    
    52   24   26 am   BACKBONE|DICT|INTERRES
    53   26   27 1    
    54   26   63 1    
    55   27   28 1    
    56   27   64 1    
    57   27   65 1    
    58   28   29 1    
    59   28   30 1    
    60   28   31 1    
    61   30   66 1    
    62   30   67 1    
    63   30   68 1    
    64   31   32 1    
    65   32   37 ar   
    66   32   33 ar   
    67   33   34 ar   
    68   33   69 1    
    69   34   35 ar   
    70   34   70 1    
    71   35   36 ar   
    72   35   38 1    
    73   36   37 ar   
    74   36   71 1    
    75   37   72 1    
    76   38   39 1    
    77   39   73 1    
    78   39   74 1    
    79   39   75 1    
@<TRIPOS>SUBSTRUCTURE
     1 UNK         1 GROUP             0       ****    0 ROOT    
