@<TRIPOS>MOLECULE
ZINC16974723_5957
57   60    1
SMALL
USER_CHARGES


@<TRIPOS>ATOM
      1 C1          1.2751   47.6124   17.5707 C.3       1 UNK         0.0000 
      2 C2          1.3410   48.7565   18.5656 C.ar      1 UNK         0.0000 
      3 C3          0.6070   49.9216   18.3509 C.ar      1 UNK         0.0000 
      4 C4          0.6919   50.9713   19.2617 C.ar      1 UNK         0.0000 
      5 C5          1.5245   50.8717   20.3844 C.ar      1 UNK         0.0000 
      6 C6          2.2731   49.7054   20.5802 C.ar      1 UNK         0.0000 
      7 C7          2.1667   48.6479   19.6831 C.ar      1 UNK         0.0000 
      8 C8          1.5578   52.0260   21.4001 C.3       1 UNK         0.0000 
      9 H9          1.1696   52.8734   20.8285 H         1 UNK         0.0000 
     10 C10         0.5769   51.8462   22.6236 C.3       1 UNK         0.0000 
     11 H11        -0.4427   51.8342   22.2350 H         1 UNK         0.0000 
     12 C12         0.6719   53.0372   23.6215 C.2       1 UNK         0.0000 
     13 O13        -0.3494   53.2967   24.2494 O.2       1 UNK         0.0000 
     14 N14         1.8174   53.6808   23.7366 N.2       1 UNK         0.0000 
     15 C15         2.9309   53.3496   22.9650 C.2       1 UNK         0.0000 
     16 C16         2.9132   52.5581   21.8719 C.2       1 UNK         0.0000 
     17 C17         4.1051   52.2931   21.1408 C.1       1 UNK         0.0000 
     18 N18         5.1035   52.0966   20.5966 N.1       1 UNK         0.0000 
     19 S19         4.4655   54.0965   23.5786 S.3       1 UNK         0.0000 
     20 C20         4.1405   54.6781   25.2846 C.3       1 UNK         0.0000 
     21 C21         5.3354   54.6324   26.2609 C.2       1 UNK         0.0000 
     22 O22         6.4742   54.8653   25.8563 O.2       1 UNK         0.0000 
     23 N23         5.1288   54.4379   27.5837 N.am      1 UNK         0.0000 
     24 C24         3.9129   54.1213   28.2093 C.ar      1 UNK         0.0000 
     25 C25         3.4755   54.8885   29.2815 C.ar      1 UNK         0.0000 
     26 C26         2.2498   54.6291   29.8931 C.ar      1 UNK         0.0000 
     27 C27         1.4590   53.5305   29.4798 C.ar      1 UNK         0.0000 
     28 C28         0.2494   53.1816   30.1278 C.ar      1 UNK         0.0000 
     29 C29        -0.4954   52.0962   29.6749 C.ar      1 UNK         0.0000 
     30 C30        -0.0943   51.3712   28.5584 C.ar      1 UNK         0.0000 
     31 C31         1.0979   51.6750   27.9145 C.ar      1 UNK         0.0000 
     32 C32         1.9054   52.7386   28.3818 C.ar      1 UNK         0.0000 
     33 C33         3.1432   53.0422   27.7822 C.ar      1 UNK         0.0000 
     34 C34         0.7831   50.5516   23.4452 C.2       1 UNK         0.0000 
     35 O35         1.9045   50.0979   23.6768 O.2       1 UNK         0.0000 
     36 O36        -0.3775   49.9996   23.8642 O.3       1 UNK         0.0000 
     37 C37        -0.3624   48.8451   24.6944 C.3       1 UNK         0.0000 
     38 H38         0.6662   46.7982   17.9644 H         1 UNK         0.0000 
     39 H39         0.8736   47.9347   16.6083 H         1 UNK         0.0000 
     40 H40         2.2787   47.2258   17.3802 H         1 UNK         0.0000 
     41 H41        -0.0286   50.0156   17.4829 H         1 UNK         0.0000 
     42 H42         0.1083   51.8635   19.0915 H         1 UNK         0.0000 
     43 H43         2.9324   49.6092   21.4299 H         1 UNK         0.0000 
     44 H44         2.7332   47.7464   19.8504 H         1 UNK         0.0000 
     45 H45         3.7719   55.6957   25.2810 H         1 UNK         0.0000 
     46 H46         3.2986   54.1170   25.6461 H         1 UNK         0.0000 
     47 H47         5.9092   54.6474   28.1883 H         1 UNK         0.0000 
     48 H48         4.0899   55.6975   29.6362 H         1 UNK         0.0000 
     49 H49         1.9022   55.2565   30.7024 H         1 UNK         0.0000 
     50 H50        -0.0859   53.7477   30.9840 H         1 UNK         0.0000 
     51 H51        -1.3913   51.7975   30.1935 H         1 UNK         0.0000 
     52 H52        -0.6964   50.5419   28.2096 H         1 UNK         0.0000 
     53 H53         1.4150   51.0933   27.0612 H         1 UNK         0.0000 
     54 H54         3.4779   52.4628   26.9426 H         1 UNK         0.0000 
     55 H55         0.1465   48.0107   24.2090 H         1 UNK         0.0000 
     56 H56         0.1436   49.0509   25.6387 H         1 UNK         0.0000 
     57 H57        -1.3830   48.5353   24.9198 H         1 UNK         0.0000 
@<TRIPOS>BOND
     1    1    2 1    
     2    1   38 1    
     3    1   39 1    
     4    1   40 1    
     5    2    7 ar   
     6    2    3 ar   
     7    3    4 ar   
     8    3   41 1    
     9    4    5 ar   
    10    4   42 1    
    11    5    6 ar   
    12    5    8 1    
    13    6    7 ar   
    14    6   43 1    
    15    7   44 1    
    16    8    9 1    
    17    8   16 1    
    18    8   10 1    
    19   10   11 1    
    20   10   12 1    
    21   10   34 1    
    22   12   13 2    
    23   12   14 1    
    24   14   15 1    
    25   15   16 2    
    26   15   19 1    
    27   16   17 1    
    28   17   18 3    
    29   19   20 1    
    30   20   21 1    
    31   20   45 1    
    32   20   46 1    
    33   21   22 2    
    34   21   23 am   BACKBONE|DICT|INTERRES
    35   23   24 1    
    36   23   47 1    
    37   24   33 ar   
    38   24   25 ar   
    39   25   26 ar   
    40   25   48 1    
    41   26   27 ar   
    42   26   49 1    
    43   27   32 ar   
    44   27   28 ar   
    45   28   29 ar   
    46   28   50 1    
    47   29   30 ar   
    48   29   51 1    
    49   30   31 ar   
    50   30   52 1    
    51   31   32 ar   
    52   31   53 1    
    53   32   33 ar   
    54   33   54 1    
    55   34   35 2    
    56   34   36 1    
    57   36   37 1    
    58   37   55 1    
    59   37   56 1    
    60   37   57 1    
@<TRIPOS>SUBSTRUCTURE
     1 UNK         1 GROUP             0       ****    0 ROOT    
