ZINC27271289_25
                    3D
 Schrodinger Suite 2024-2.
 51 53  0  0  1  0            999 V2000
    2.1769   51.7886   19.6586 C   0  0  0  0  0  0
    0.6606   52.0081   19.6573 C   0  0  0  0  0  0
    0.1277   51.5113   20.8759 O   0  0  0  0  0  0
   -1.1920   51.6052   21.1538 C   0  0  0  0  0  0
   -2.0406   52.0974   20.4064 O   0  0  0  0  0  0
   -1.6074   50.9341   22.4967 C   0  0  1  0  0  0
   -2.3464   49.5748   22.1671 C   0  0  2  0  0  0
   -3.3633   49.8679   21.8904 H   0  0  0  0  0  0
   -2.5578   48.7065   23.4010 C   0  0  0  0  0  0
   -1.9525   48.9303   24.5896 C   0  0  0  0  0  0
   -0.9094   50.0388   24.8513 C   0  0  0  0  0  0
   -0.4185   50.7368   23.5275 C   0  0  2  0  0  0
    0.2600   50.0171   23.0665 H   0  0  0  0  0  0
    0.5132   51.9613   23.8018 C   0  0  0  0  0  0
    0.0646   53.2744   23.6480 C   0  0  0  0  0  0
    0.9646   54.3358   23.6796 C   0  0  0  0  0  0
    2.2603   54.1693   24.0798 C   0  0  0  0  0  0
    2.7056   52.8979   24.3096 C   0  0  0  0  0  0
    1.8753   51.7862   24.0803 C   0  0  0  0  0  0
   -1.4680   51.0190   25.8051 C   0  0  0  0  0  0
   -1.9019   51.7890   26.5535 N   0  0  0  0  0  0
    0.2253   49.4050   25.5384 C   0  0  0  0  0  0
    1.1039   48.8969   26.0822 N   0  0  0  0  0  0
   -2.2397   48.1418   25.6819 N   0  0  0  0  0  0
   -3.4508   47.5946   23.2561 C   0  0  0  0  0  0
   -4.1381   46.6673   23.1566 N   0  0  0  0  0  0
   -1.8795   48.7780   20.9312 C   0  0  0  0  0  0
   -0.6336   48.1494   20.9316 C   0  0  0  0  0  0
   -0.1814   47.4792   19.7982 C   0  0  0  0  0  0
   -0.9869   47.4241   18.6633 C   0  0  0  0  0  0
   -2.2386   48.0343   18.6531 C   0  0  0  0  0  0
   -2.6841   48.7127   19.7850 C   0  0  0  0  0  0
   -2.6177   51.7905   23.1584 C   0  0  0  0  0  0
   -3.4035   52.4598   23.6829 N   0  0  0  0  0  0
    2.6272   52.1652   18.7385 H   0  0  0  0  0  0
    2.6473   52.3100   20.4940 H   0  0  0  0  0  0
    2.4254   50.7285   19.7389 H   0  0  0  0  0  0
    0.2078   51.4874   18.8113 H   0  0  0  0  0  0
    0.4360   53.0711   19.5517 H   0  0  0  0  0  0
   -0.9436   53.4886   23.3441 H   0  0  0  0  0  0
    0.7048   55.2967   23.2830 H   0  0  0  0  0  0
    2.9394   55.0078   24.1347 H   0  0  0  0  0  0
    3.7477   52.8770   24.5794 H   0  0  0  0  0  0
    2.2861   50.7870   24.0850 H   0  0  0  0  0  0
   -1.8260   48.2993   26.6047 H   0  0  0  0  0  0
   -2.9330   47.4102   25.6291 H   0  0  0  0  0  0
   -0.0163   48.1888   21.8130 H   0  0  0  0  0  0
    0.7903   47.0061   19.7966 H   0  0  0  0  0  0
   -0.6358   46.9056   17.7829 H   0  0  0  0  0  0
   -2.8574   47.9891   17.7683 H   0  0  0  0  0  0
   -3.6498   49.1973   19.7590 H   0  0  0  0  0  0
  1  2  1  0  0  0
  1 35  1  0  0  0
  1 36  1  0  0  0
  1 37  1  0  0  0
  2  3  1  0  0  0
  2 38  1  0  0  0
  2 39  1  0  0  0
  3  4  1  0  0  0
  4  5  2  0  0  0
  4  6  1  0  0  0
  6 12  1  0  0  0
  6  7  1  0  0  0
  6 33  1  0  0  0
  7  8  1  0  0  0
  7  9  1  0  0  0
  7 27  1  0  0  0
  9 10  2  0  0  0
  9 25  1  0  0  0
 10 11  1  0  0  0
 10 24  1  0  0  0
 11 12  1  0  0  0
 11 20  1  0  0  0
 11 22  1  0  0  0
 12 13  1  0  0  0
 12 14  1  0  0  0
 14 19  2  0  0  0
 14 15  1  0  0  0
 15 16  2  0  0  0
 15 40  1  0  0  0
 16 17  1  0  0  0
 16 41  1  0  0  0
 17 18  2  0  0  0
 17 42  1  0  0  0
 18 19  1  0  0  0
 18 43  1  0  0  0
 19 44  1  0  0  0
 20 21  3  0  0  0
 22 23  3  0  0  0
 24 45  1  0  0  0
 24 46  1  0  0  0
 25 26  3  0  0  0
 27 32  2  0  0  0
 27 28  1  0  0  0
 28 29  2  0  0  0
 28 47  1  0  0  0
 29 30  1  0  0  0
 29 48  1  0  0  0
 30 31  2  0  0  0
 30 49  1  0  0  0
 31 32  1  0  0  0
 31 50  1  0  0  0
 32 51  1  0  0  0
 33 34  3  0  0  0
M  END
> <i_i_glide_confnum>
25

> <i_i_glide_lignum>
26

> <i_i_glide_posenum>
297

> <i_i_glide_rotatable_bonds>
9

> <i_m_Source_File_Index>
3376

> <b_m_subgroup_collapsed>
0

> <r_i_docking_score>
-2.90627

> <r_i_glide_ecoul>
-4.90091

> <r_i_glide_eff_state_penalty>
0

> <r_i_glide_einternal>
13.3935

> <r_i_glide_emodel>
-14.2843

> <r_i_glide_energy>
-16.2132

> <r_i_glide_erotb>
0.445929

> <r_i_glide_esite>
-0.21528

> <r_i_glide_evdw>
-11.3123

> <r_i_glide_gscore>
-2.90627

> <r_i_glide_hbond>
-0.448706

> <r_i_glide_ligand_efficiency>
-0.0908208

> <r_i_glide_ligand_efficiency_ln>
-0.650792

> <r_i_glide_ligand_efficiency_sa>
-0.288338

> <r_i_glide_lipo>
-0.815861

> <r_i_glide_metal>
0

> <r_i_glide_rewards>
-0.571597

> <s_i_glide_gridfile>
wee1_glide-grid

> <s_m_Source_File>
wee1_decoys_glide_SP.sdf

> <s_m_Source_Path>
/Users/zhangxujun/Desktop

> <s_m_entry_id>
3651

> <s_m_entry_name>
wee1_decoys_glide_SP.3376

> <s_m_subgroup_title>
wee1_decoys_glide_SP

> <s_m_subgroupid>
wee1_decoys_glide_SP


$$$$
