@<TRIPOS>MOLECULE
ZINC39531942_4075
76   80    1
SMALL
USER_CHARGES


@<TRIPOS>ATOM
      1 C1         -0.3705   52.0551   29.9810 C.3       1 UNK         0.0000 
      2 C2         -0.8796   51.7984   28.5721 C.ar      1 UNK         0.0000 
      3 C3         -2.1665   51.2966   28.3736 C.ar      1 UNK         0.0000 
      4 C4         -2.6740   51.0220   27.1013 C.ar      1 UNK         0.0000 
      5 C5         -1.8259   51.2711   26.0181 C.ar      1 UNK         0.0000 
      6 N6         -2.0095   51.1188   24.6586 N.pl3     1 UNK         0.0000 
      7 C7         -0.8625   51.4145   23.9504 C.ar      1 UNK         0.0000 
      8 H8         -2.8441   50.7899   24.1948 H         1 UNK         0.0000 
      9 C9          0.0563   51.8969   24.8846 C.ar      1 UNK         0.0000 
     10 C10        -0.5080   51.7747   26.1907 C.ar      1 UNK         0.0000 
     11 C11        -0.0417   52.0459   27.4851 C.ar      1 UNK         0.0000 
     12 C12        -0.8105   51.3355   22.4947 C.2       1 UNK         0.0000 
     13 O13        -1.8587   51.4930   21.8586 O.2       1 UNK         0.0000 
     14 N14         0.3831   51.0880   21.8756 N.am      1 UNK         0.0000 
     15 C15         1.6720   50.8501   22.5426 C.3       1 UNK         0.0000 
     16 C16         2.4609   52.1568   22.3295 C.3       1 UNK         0.0000 
     17 C17         2.7501   52.4219   20.8367 C.3       1 UNK         0.0000 
     18 C18         1.3700   52.4120   20.1002 C.3       1 UNK         0.0000 
     19 C19         0.5079   51.1577   20.4057 C.3       1 UNK         0.0000 
     20 C20         3.6417   53.6948   20.5599 C.3       1 UNK         0.0000 
     21 H21         3.1080   54.5668   20.9211 H         1 UNK         0.0000 
     22 C22         5.0789   53.6959   21.1967 C.3       1 UNK         0.0000 
     23 C23         5.2816   54.1458   22.6623 C.ar      1 UNK         0.0000 
     24 C24         4.2367   54.4962   23.5287 C.ar      1 UNK         0.0000 
     25 C25         4.4851   54.7553   24.8773 C.ar      1 UNK         0.0000 
     26 C26         5.7919   54.7473   25.3552 C.ar      1 UNK         0.0000 
     27 C27         6.8484   54.4988   24.4874 C.ar      1 UNK         0.0000 
     28 C28         6.5938   54.2160   23.1485 C.ar      1 UNK         0.0000 
     29 N29         3.7209   53.9436   19.0088 N.4       1 UNK         0.0000 
     30 C30         4.2175   55.3431   18.5544 C.3       1 UNK         0.0000 
     31 C31         4.3970   52.8085   18.2093 C.3       1 UNK         0.0000 
     32 C32         4.2801   52.9148   16.6973 C.2       1 UNK         0.0000 
     33 C33         5.2111   53.2367   15.7845 C.2       1 UNK         0.0000 
     34 N34         4.6883   53.0977   14.5033 N.pl3     1 UNK         0.0000 
     35 N35         3.4253   52.4204   14.5767 N.3       1 UNK         0.0000 
     36 C36         3.0078   52.5947   15.9490 C.3       1 UNK         0.0000 
     37 H37         2.5823   51.6486   16.2947 H         1 UNK         0.0000 
     38 C38         1.9616   53.7183   16.0748 C.3       1 UNK         0.0000 
     39 C39         4.8095   54.1771   13.5371 C.3       1 UNK         0.0000 
     40 H40        -0.9470   51.5062   30.7286 H         1 UNK         0.0000 
     41 H41        -0.3925   53.1196   30.2106 H         1 UNK         0.0000 
     42 H42         0.6583   51.7074   30.0820 H         1 UNK         0.0000 
     43 H43        -2.7858   51.0768   29.2320 H         1 UNK         0.0000 
     44 H44        -3.6674   50.6161   26.9752 H         1 UNK         0.0000 
     45 H45         1.0358   52.2890   24.6743 H         1 UNK         0.0000 
     46 H46         0.9571   52.4271   27.6376 H         1 UNK         0.0000 
     47 H47         1.5974   50.4739   23.5623 H         1 UNK         0.0000 
     48 H48         2.1627   50.0204   22.0280 H         1 UNK         0.0000 
     49 H49         1.9226   52.9944   22.7665 H         1 UNK         0.0000 
     50 H50         3.3940   52.0976   22.8707 H         1 UNK         0.0000 
     51 H51         3.2946   51.5375   20.5056 H         1 UNK         0.0000 
     52 H52         1.5065   52.4923   19.0235 H         1 UNK         0.0000 
     53 H53         0.7927   53.2958   20.3691 H         1 UNK         0.0000 
     54 H54         1.0268   50.2556   20.0780 H         1 UNK         0.0000 
     55 H55        -0.4498   51.1300   19.8858 H         1 UNK         0.0000 
     56 H56         5.4989   52.6939   21.0997 H         1 UNK         0.0000 
     57 H57         5.7449   54.3319   20.6180 H         1 UNK         0.0000 
     58 H58         3.2226   54.5680   23.1764 H         1 UNK         0.0000 
     59 H59         3.6675   54.9881   25.5431 H         1 UNK         0.0000 
     60 H60         5.9860   54.9562   26.3985 H         1 UNK         0.0000 
     61 H61         7.8734   54.5253   24.8425 H         1 UNK         0.0000 
     62 H62         7.4335   54.0735   22.4853 H         1 UNK         0.0000 
     63 H63         5.2164   55.5300   18.9451 H         1 UNK         0.0000 
     64 H64         4.2356   55.3696   17.4641 H         1 UNK         0.0000 
     65 H65         3.4991   56.0886   18.8816 H         1 UNK         0.0000 
     66 H66         5.4407   52.7869   18.5304 H         1 UNK         0.0000 
     67 H67         3.9046   51.8851   18.5074 H         1 UNK         0.0000 
     68 H68         6.2357   53.5450   15.9299 H         1 UNK         0.0000 
     69 H69         3.6563   51.4527   14.3909 H         1 UNK         0.0000 
     70 H70         1.6154   53.8366   17.1009 H         1 UNK         0.0000 
     71 H71         2.3590   54.6810   15.7487 H         1 UNK         0.0000 
     72 H72         1.0846   53.5020   15.4632 H         1 UNK         0.0000 
     73 H73         5.8448   54.5116   13.4596 H         1 UNK         0.0000 
     74 H74         4.4896   53.8440   12.5501 H         1 UNK         0.0000 
     75 H75         4.1955   55.0292   13.8332 H         1 UNK         0.0000 
     76 H76         2.7538   53.9154   18.7168 H         1 UNK         0.0000 
@<TRIPOS>BOND
     1    1   40 1    
     2    1   41 1    
     3    1   42 1    
     4    1    2 1    
     5    2    3 ar   
     6    2   11 ar   
     7    3    4 ar   
     8    3   43 1    
     9    4    5 ar   
    10    4   44 1    
    11    5    6 ar   
    12    5   10 ar   
    13    6    8 1    
    14    6    7 ar   
    15    7    9 ar   
    16    7   12 1    
    17    9   10 ar   
    18    9   45 1    
    19   10   11 ar   
    20   11   46 1    
    21   12   13 2    
    22   12   14 am   BACKBONE|DICT|INTERRES
    23   14   19 1    
    24   14   15 1    
    25   15   16 1    
    26   15   47 1    
    27   15   48 1    
    28   16   17 1    
    29   16   49 1    
    30   16   50 1    
    31   17   18 1    
    32   17   20 1    
    33   17   51 1    
    34   18   19 1    
    35   18   52 1    
    36   18   53 1    
    37   19   54 1    
    38   19   55 1    
    39   20   21 1    
    40   20   22 1    
    41   20   29 1    
    42   22   23 1    
    43   22   56 1    
    44   22   57 1    
    45   23   28 ar   
    46   23   24 ar   
    47   24   25 ar   
    48   24   58 1    
    49   25   26 ar   
    50   25   59 1    
    51   26   27 ar   
    52   26   60 1    
    53   27   28 ar   
    54   27   61 1    
    55   28   62 1    
    56   29   30 1    
    57   29   31 1    
    58   29   76 1    
    59   30   63 1    
    60   30   64 1    
    61   30   65 1    
    62   31   32 1    
    63   31   66 1    
    64   31   67 1    
    65   32   36 1    
    66   32   33 2    
    67   33   34 1    
    68   33   68 1    
    69   34   35 1    
    70   34   39 1    
    71   35   36 1    
    72   35   69 1    
    73   36   37 1    
    74   36   38 1    
    75   38   70 1    
    76   38   71 1    
    77   38   72 1    
    78   39   73 1    
    79   39   74 1    
    80   39   75 1    
@<TRIPOS>SUBSTRUCTURE
     1 UNK         1 GROUP             0       ****    0 ROOT    
