@<TRIPOS>MOLECULE
ZINC09263064_3159
51   53    1
SMALL
USER_CHARGES


@<TRIPOS>ATOM
      1 C1          2.7352   50.3868   20.9796 C.3       1 UNK         0.0000 
      2 C2          1.7235   50.5712   22.0978 C.ar      1 UNK         0.0000 
      3 C3          1.2112   49.4766   22.7804 C.ar      1 UNK         0.0000 
      4 C4          0.2445   49.6279   23.7780 C.ar      1 UNK         0.0000 
      5 C5         -0.2054   50.9227   24.1344 C.ar      1 UNK         0.0000 
      6 C6          0.3718   52.0392   23.4797 C.ar      1 UNK         0.0000 
      7 C7          1.2916   51.8433   22.4467 C.ar      1 UNK         0.0000 
      8 C8          0.0799   53.4818   23.8489 C.3       1 UNK         0.0000 
      9 S9         -1.5832   51.0866   25.3226 S.o2      1 UNK         0.0000 
     10 O10        -2.6080   50.1135   24.9311 O.2       1 UNK         0.0000 
     11 O11        -1.9554   52.4957   25.4923 O.2       1 UNK         0.0000 
     12 N12        -0.9684   50.5492   26.8817 N.pl3     1 UNK         0.0000 
     13 C13        -0.4579   51.3966   27.8216 C.2       1 UNK         0.0000 
     14 N14        -1.0551   51.6948   28.9452 N.2       1 UNK         0.0000 
     15 N15        -0.2896   52.5215   29.7502 N.2       1 UNK         0.0000 
     16 C16         0.8668   52.8414   29.2205 C.2       1 UNK         0.0000 
     17 S17         1.1040   52.1302   27.6405 S.3       1 UNK         0.0000 
     18 C18         1.8554   53.7291   29.9478 C.3       1 UNK         0.0000 
     19 C19         2.1693   55.0514   29.2187 C.3       1 UNK         0.0000 
     20 N20         2.9214   54.8938   27.9746 N.am      1 UNK         0.0000 
     21 C21         4.2054   54.4968   27.8897 C.2       1 UNK         0.0000 
     22 O22         4.8741   54.1996   28.8810 O.2       1 UNK         0.0000 
     23 C23         4.8205   54.4883   26.5077 C.ar      1 UNK         0.0000 
     24 C24         6.2178   54.4931   26.3703 C.ar      1 UNK         0.0000 
     25 C25         6.8071   54.4972   25.1057 C.ar      1 UNK         0.0000 
     26 C26         6.0203   54.4964   23.9617 C.ar      1 UNK         0.0000 
     27 C27         4.6357   54.4872   24.0802 C.ar      1 UNK         0.0000 
     28 C28         4.0345   54.4765   25.3400 C.ar      1 UNK         0.0000 
     29 Br29        3.5783   54.4968   22.5030 Br        1 UNK         0.0000 
     30 C30        -0.2549   48.3563   24.4594 C.3       1 UNK         0.0000 
     31 H31         2.5388   51.0856   20.1647 H         1 UNK         0.0000 
     32 H32         3.7472   50.5651   21.3419 H         1 UNK         0.0000 
     33 H33         2.6848   49.3844   20.5503 H         1 UNK         0.0000 
     34 H34         1.5766   48.4971   22.5217 H         1 UNK         0.0000 
     35 H35         1.6823   52.6871   21.9006 H         1 UNK         0.0000 
     36 H36         0.7016   54.1922   23.3030 H         1 UNK         0.0000 
     37 H37        -0.9647   53.7379   23.6840 H         1 UNK         0.0000 
     38 H38         0.3051   53.6268   24.9003 H         1 UNK         0.0000 
     39 H39        -1.2949   49.6260   27.1678 H         1 UNK         0.0000 
     40 H40         2.7763   53.1803   30.1414 H         1 UNK         0.0000 
     41 H41         1.4618   53.9750   30.9338 H         1 UNK         0.0000 
     42 H42         2.7035   55.7324   29.8836 H         1 UNK         0.0000 
     43 H43         1.2340   55.5614   28.9809 H         1 UNK         0.0000 
     44 H44         2.4317   55.1105   27.1220 H         1 UNK         0.0000 
     45 H45         6.8557   54.4936   27.2439 H         1 UNK         0.0000 
     46 H46         7.8804   54.4981   24.9935 H         1 UNK         0.0000 
     47 H47         6.4828   54.5010   22.9857 H         1 UNK         0.0000 
     48 H48         2.9564   54.4533   25.3869 H         1 UNK         0.0000 
     49 H49         0.3651   47.4932   24.2249 H         1 UNK         0.0000 
     50 H50        -0.2287   48.4513   25.5441 H         1 UNK         0.0000 
     51 H51        -1.2768   48.1258   24.1612 H         1 UNK         0.0000 
@<TRIPOS>BOND
     1    1    2 1    
     2    1   31 1    
     3    1   32 1    
     4    1   33 1    
     5    2    7 ar   
     6    2    3 ar   
     7    3    4 ar   
     8    3   34 1    
     9    4    5 ar   
    10    4   30 1    
    11    5    6 ar   
    12    5    9 1    
    13    6    7 ar   
    14    6    8 1    
    15    7   35 1    
    16    8   36 1    
    17    8   37 1    
    18    8   38 1    
    19    9   10 2    
    20    9   11 2    
    21    9   12 1    
    22   12   13 1    
    23   12   39 1    
    24   13   17 1    
    25   13   14 2    
    26   14   15 1    
    27   15   16 2    
    28   16   17 1    
    29   16   18 1    
    30   18   19 1    
    31   18   40 1    
    32   18   41 1    
    33   19   20 1    
    34   19   42 1    
    35   19   43 1    
    36   20   21 am   BACKBONE|DICT|INTERRES
    37   20   44 1    
    38   21   22 2    
    39   21   23 1    
    40   23   28 ar   
    41   23   24 ar   
    42   24   25 ar   
    43   24   45 1    
    44   25   26 ar   
    45   25   46 1    
    46   26   27 ar   
    47   26   47 1    
    48   27   28 ar   
    49   27   29 1    
    50   28   48 1    
    51   30   49 1    
    52   30   50 1    
    53   30   51 1    
@<TRIPOS>SUBSTRUCTURE
     1 UNK         1 GROUP             0       ****    0 ROOT    
