ZINC04177465_4414
                    3D
 Schrodinger Suite 2024-2.
 51 54  0  0  1  0            999 V2000
    5.8123   53.5262   13.3888 C   0  0  0  0  0  0
    5.8983   54.1611   14.7904 C   0  0  2  0  0  0
    5.5504   55.1905   14.6791 H   0  0  0  0  0  0
    7.3410   54.1417   15.3278 C   0  0  0  0  0  0
    7.4661   54.9847   16.6090 C   0  0  0  0  0  0
    6.3816   54.5337   17.5759 C   0  0  0  0  0  0
    5.2135   53.8378   17.2209 C   0  0  0  0  0  0
    4.3842   53.5670   18.3433 C   0  0  0  0  0  0
    4.9351   54.0732   19.5391 C   0  0  0  0  0  0
    6.4482   54.8952   19.2598 S   0  0  0  0  0  0
    4.3486   53.9957   20.8018 N   0  0  0  0  0  0
    4.8794   54.2781   22.0128 C   0  0  0  0  0  0
    6.0414   54.6451   22.1953 O   0  0  0  0  0  0
    3.9484   54.0964   23.1966 C   0  0  0  0  0  0
    2.6335   53.6189   23.0485 C   0  0  0  0  0  0
    1.8180   53.4169   24.1581 C   0  0  0  0  0  0
    2.2978   53.6946   25.4359 C   0  0  0  0  0  0
    3.5940   54.1932   25.6170 C   0  0  0  0  0  0
    4.4005   54.3904   24.4944 C   0  0  0  0  0  0
    4.1303   54.5363   26.8421 O   0  0  0  0  0  0
    3.6410   54.0087   28.0124 C   0  0  0  0  0  0
    4.3743   53.0140   28.6577 C   0  0  0  0  0  0
    3.9019   52.4582   29.8417 C   0  0  0  0  0  0
    2.6873   52.8960   30.3708 C   0  0  0  0  0  0
    1.9600   53.9063   29.7409 C   0  0  0  0  0  0
    2.4472   54.4762   28.5673 C   0  0  0  0  0  0
    3.0993   52.8969   18.2383 C   0  0  0  0  0  0
    2.2972   53.1275   17.3360 O   0  0  0  0  0  0
    2.8307   52.0157   19.2053 N   0  0  0  0  0  0
    4.9404   53.4240   15.7644 C   0  0  0  0  0  0
    6.1459   52.4859   13.3969 H   0  0  0  0  0  0
    6.4330   54.0661   12.6718 H   0  0  0  0  0  0
    4.7899   53.5421   13.0076 H   0  0  0  0  0  0
    7.6842   53.1147   15.4717 H   0  0  0  0  0  0
    8.0158   54.5523   14.5763 H   0  0  0  0  0  0
    8.4589   54.8716   17.0457 H   0  0  0  0  0  0
    7.3405   56.0422   16.3741 H   0  0  0  0  0  0
    3.4135   53.6183   20.7993 H   0  0  0  0  0  0
    2.2171   53.3842   22.0819 H   0  0  0  0  0  0
    0.8107   53.0434   24.0303 H   0  0  0  0  0  0
    1.6394   53.5268   26.2743 H   0  0  0  0  0  0
    5.3997   54.7710   24.6500 H   0  0  0  0  0  0
    5.3047   52.6712   28.2317 H   0  0  0  0  0  0
    4.4725   51.6968   30.3469 H   0  0  0  0  0  0
    2.3114   52.4643   31.2888 H   0  0  0  0  0  0
    1.0271   54.2512   30.1653 H   0  0  0  0  0  0
    1.8921   55.2619   28.0764 H   0  0  0  0  0  0
    3.5965   51.6384   19.7469 H   0  0  0  0  0  0
    1.9592   51.5121   19.1632 H   0  0  0  0  0  0
    3.9125   53.6443   15.4759 H   0  0  0  0  0  0
    5.0710   52.3414   15.6831 H   0  0  0  0  0  0
  1  2  1  0  0  0
  1 31  1  0  0  0
  1 32  1  0  0  0
  1 33  1  0  0  0
  2  3  1  0  0  0
  2 30  1  0  0  0
  2  4  1  0  0  0
  4  5  1  0  0  0
  4 34  1  0  0  0
  4 35  1  0  0  0
  5  6  1  0  0  0
  5 36  1  0  0  0
  5 37  1  0  0  0
  6 10  1  0  0  0
  6  7  2  0  0  0
  7  8  1  0  0  0
  7 30  1  0  0  0
  8  9  2  0  0  0
  8 27  1  0  0  0
  9 10  1  0  0  0
  9 11  1  0  0  0
 11 12  1  0  0  0
 11 38  1  0  0  0
 12 13  2  0  0  0
 12 14  1  0  0  0
 14 19  2  0  0  0
 14 15  1  0  0  0
 15 16  2  0  0  0
 15 39  1  0  0  0
 16 17  1  0  0  0
 16 40  1  0  0  0
 17 18  2  0  0  0
 17 41  1  0  0  0
 18 19  1  0  0  0
 18 20  1  0  0  0
 19 42  1  0  0  0
 20 21  1  0  0  0
 21 26  2  0  0  0
 21 22  1  0  0  0
 22 23  2  0  0  0
 22 43  1  0  0  0
 23 24  1  0  0  0
 23 44  1  0  0  0
 24 25  2  0  0  0
 24 45  1  0  0  0
 25 26  1  0  0  0
 25 46  1  0  0  0
 26 47  1  0  0  0
 27 28  2  0  0  0
 27 29  1  0  0  0
 29 48  1  0  0  0
 29 49  1  0  0  0
 30 50  1  0  0  0
 30 51  1  0  0  0
M  END
> <i_i_glide_confnum>
37

> <i_i_glide_lignum>
4415

> <i_i_glide_posenum>
98

> <i_i_glide_rotatable_bonds>
6

> <i_m_Source_File_Index>
1608

> <b_m_subgroup_collapsed>
0

> <r_i_docking_score>
-4.84772

> <r_i_glide_ecoul>
-1.23804

> <r_i_glide_eff_state_penalty>
0

> <r_i_glide_einternal>
4.20091

> <r_i_glide_emodel>
-52.2275

> <r_i_glide_energy>
-39.4099

> <r_i_glide_erotb>
0.594976

> <r_i_glide_esite>
-0.0869629

> <r_i_glide_evdw>
-38.1719

> <r_i_glide_gscore>
-4.84772

> <r_i_glide_hbond>
0

> <r_i_glide_ligand_efficiency>
-0.167163

> <r_i_glide_ligand_efficiency_ln>
-1.11

> <r_i_glide_ligand_efficiency_sa>
-0.513577

> <r_i_glide_lipo>
-2.36963

> <r_i_glide_metal>
0

> <r_i_glide_rewards>
-0.891798

> <s_i_glide_gridfile>
wee1_glide-grid

> <s_m_Source_File>
wee1_decoys_glide_SP.sdf

> <s_m_Source_Path>
/Users/zhangxujun/Desktop

> <s_m_entry_id>
1883

> <s_m_entry_name>
wee1_decoys_glide_SP.1608

> <s_m_subgroup_title>
wee1_decoys_glide_SP

> <s_m_subgroupid>
wee1_decoys_glide_SP


$$$$
