ZINC27739356_4033
                    3D
 Schrodinger Suite 2024-2.
 68 72  0  0  1  0            999 V2000
    0.7525   52.9219   31.2788 C   0  0  0  0  0  0
    0.3417   52.5149   29.8695 C   0  0  0  0  0  0
   -0.7869   51.6968   29.7169 C   0  0  0  0  0  0
   -1.2330   51.3310   28.4496 C   0  0  0  0  0  0
   -0.5504   51.7748   27.3221 C   0  0  0  0  0  0
    0.5729   52.5845   27.4660 C   0  0  0  0  0  0
    1.0314   52.9826   28.7326 C   0  0  0  0  0  0
    2.2129   53.7174   28.8396 N   0  0  0  0  0  0
    3.4570   52.9527   29.0391 C   0  0  0  0  0  0
    4.7738   53.6475   28.5956 C   0  0  0  0  0  0
    4.6171   54.0444   27.1796 N   0  0  0  0  0  0
    3.3276   54.6387   26.7651 C   0  0  0  0  0  0
    2.4248   54.9000   27.9949 C   0  0  0  0  0  0
    5.7428   54.2206   26.4290 C   0  0  0  0  0  0
    6.8695   54.1631   26.9311 O   0  0  0  0  0  0
    5.6528   54.4653   24.9270 C   0  0  0  0  0  0
    6.6846   55.1616   24.2913 C   0  0  0  0  0  0
    6.7049   55.2965   22.9100 C   0  0  0  0  0  0
    5.6996   54.7384   22.1183 C   0  0  0  0  0  0
    4.6619   54.0421   22.7353 C   0  0  0  0  0  0
    4.6391   53.9138   24.1243 C   0  0  0  0  0  0
    5.7188   54.8011   20.7148 N   0  0  0  0  0  0
    6.2489   55.7713   19.9402 C   0  0  0  0  0  0
    6.7054   56.8289   20.3813 O   0  0  0  0  0  0
    6.3130   55.4739   18.4219 C   0  0  2  0  0  0
    7.0967   54.7124   18.4267 H   0  0  0  0  0  0
    6.8151   56.6177   17.5490 C   0  0  0  0  0  0
    6.2405   56.2134   16.2001 C   0  0  0  0  0  0
    6.5565   56.6365   15.0918 O   0  0  0  0  0  0
    5.2935   55.2579   16.3540 O   0  0  0  0  0  0
    5.0597   54.9010   17.7205 C   0  0  0  0  0  0
    3.7156   55.5537   18.1540 C   0  0  0  0  0  0
    2.5318   55.0883   17.2802 C   0  0  0  0  0  0
    2.4084   53.5481   17.2872 C   0  0  0  0  0  0
    3.7359   52.8415   16.9262 C   0  0  0  0  0  0
    4.9098   53.3552   17.7945 C   0  0  0  0  0  0
   -1.0835   51.3157   25.7457 Cl  0  0  0  0  0  0
   -0.0941   52.8965   31.9694 H   0  0  0  0  0  0
    1.5451   52.2785   31.6571 H   0  0  0  0  0  0
    1.1059   53.9537   31.2889 H   0  0  0  0  0  0
   -1.3066   51.3239   30.5892 H   0  0  0  0  0  0
   -2.0918   50.6840   28.3467 H   0  0  0  0  0  0
    1.0912   52.8890   26.5725 H   0  0  0  0  0  0
    3.5432   52.6863   30.0919 H   0  0  0  0  0  0
    3.3654   52.0334   28.4585 H   0  0  0  0  0  0
    5.5721   52.9138   28.7339 H   0  0  0  0  0  0
    4.9169   54.5200   29.2338 H   0  0  0  0  0  0
    3.5050   55.5748   26.2283 H   0  0  0  0  0  0
    2.7987   53.9724   26.0924 H   0  0  0  0  0  0
    2.8977   55.6470   28.6328 H   0  0  0  0  0  0
    1.4627   55.3078   27.6812 H   0  0  0  0  0  0
    7.5036   55.5783   24.8577 H   0  0  0  0  0  0
    7.5448   55.8107   22.4652 H   0  0  0  0  0  0
    3.8811   53.5827   22.1444 H   0  0  0  0  0  0
    3.8644   53.2981   24.5499 H   0  0  0  0  0  0
    5.2196   54.0644   20.2441 H   0  0  0  0  0  0
    6.3904   57.5789   17.8407 H   0  0  0  0  0  0
    7.9027   56.6855   17.5168 H   0  0  0  0  0  0
    3.7942   56.6427   18.1101 H   0  0  0  0  0  0
    3.5080   55.3023   19.1936 H   0  0  0  0  0  0
    2.6591   55.4456   16.2571 H   0  0  0  0  0  0
    1.6038   55.5360   17.6399 H   0  0  0  0  0  0
    1.6233   53.2342   16.5965 H   0  0  0  0  0  0
    2.0872   53.2200   18.2785 H   0  0  0  0  0  0
    3.9580   52.9969   15.8693 H   0  0  0  0  0  0
    3.6221   51.7621   17.0522 H   0  0  0  0  0  0
    4.7658   53.0252   18.8241 H   0  0  0  0  0  0
    5.8325   52.8687   17.4680 H   0  0  0  0  0  0
  1  2  1  0  0  0
  1 38  1  0  0  0
  1 39  1  0  0  0
  1 40  1  0  0  0
  2  7  2  0  0  0
  2  3  1  0  0  0
  3  4  2  0  0  0
  3 41  1  0  0  0
  4  5  1  0  0  0
  4 42  1  0  0  0
  5  6  2  0  0  0
  5 37  1  0  0  0
  6  7  1  0  0  0
  6 43  1  0  0  0
  7  8  1  0  0  0
  8 13  1  0  0  0
  8  9  1  0  0  0
  9 10  1  0  0  0
  9 44  1  0  0  0
  9 45  1  0  0  0
 10 11  1  0  0  0
 10 46  1  0  0  0
 10 47  1  0  0  0
 11 12  1  0  0  0
 11 14  1  0  0  0
 12 13  1  0  0  0
 12 48  1  0  0  0
 12 49  1  0  0  0
 13 50  1  0  0  0
 13 51  1  0  0  0
 14 15  2  0  0  0
 14 16  1  0  0  0
 16 21  2  0  0  0
 16 17  1  0  0  0
 17 18  2  0  0  0
 17 52  1  0  0  0
 18 19  1  0  0  0
 18 53  1  0  0  0
 19 20  2  0  0  0
 19 22  1  0  0  0
 20 21  1  0  0  0
 20 54  1  0  0  0
 21 55  1  0  0  0
 22 23  1  0  0  0
 22 56  1  0  0  0
 23 24  2  0  0  0
 23 25  1  0  0  0
 25 26  1  0  0  0
 25 31  1  0  0  0
 25 27  1  0  0  0
 27 28  1  0  0  0
 27 57  1  0  0  0
 27 58  1  0  0  0
 28 29  2  0  0  0
 28 30  1  0  0  0
 30 31  1  0  0  0
 31 36  1  0  0  0
 31 32  1  0  0  0
 32 33  1  0  0  0
 32 59  1  0  0  0
 32 60  1  0  0  0
 33 34  1  0  0  0
 33 61  1  0  0  0
 33 62  1  0  0  0
 34 35  1  0  0  0
 34 63  1  0  0  0
 34 64  1  0  0  0
 35 36  1  0  0  0
 35 65  1  0  0  0
 35 66  1  0  0  0
 36 67  1  0  0  0
 36 68  1  0  0  0
M  END
> <i_i_glide_confnum>
1442

> <i_i_glide_lignum>
4034

> <i_i_glide_posenum>
254

> <i_i_glide_rotatable_bonds>
6

> <i_m_Source_File_Index>
3808

> <b_m_subgroup_collapsed>
0

> <r_i_docking_score>
-6.78045

> <r_i_glide_ecoul>
-5.48443

> <r_i_glide_eff_state_penalty>
0

> <r_i_glide_einternal>
5.81183

> <r_i_glide_emodel>
-68.6822

> <r_i_glide_energy>
-52.3557

> <r_i_glide_erotb>
0.472476

> <r_i_glide_esite>
0

> <r_i_glide_evdw>
-46.8712

> <r_i_glide_gscore>
-6.78045

> <r_i_glide_hbond>
-0.32

> <r_i_glide_ligand_efficiency>
-0.188346

> <r_i_glide_ligand_efficiency_ln>
-1.47931

> <r_i_glide_ligand_efficiency_sa>
-0.621904

> <r_i_glide_lipo>
-2.70184

> <r_i_glide_metal>
0

> <r_i_glide_rewards>
-1.06485

> <s_i_glide_gridfile>
wee1_glide-grid

> <s_m_Source_File>
wee1_decoys_glide_SP.sdf

> <s_m_Source_Path>
/Users/zhangxujun/Desktop

> <s_m_entry_id>
4083

> <s_m_entry_name>
wee1_decoys_glide_SP.3808

> <s_m_subgroup_title>
wee1_decoys_glide_SP

> <s_m_subgroupid>
wee1_decoys_glide_SP


$$$$
