@<TRIPOS>MOLECULE
ZINC39404340_330
60   63    1
SMALL
USER_CHARGES


@<TRIPOS>ATOM
      1 C1          3.4434   54.3848   17.9055 C.3       1 UNK         0.0000 
      2 C2          4.5325   53.3845   18.3258 C.3       1 UNK         0.0000 
      3 O3          4.3684   52.9734   19.6794 O.3       1 UNK         0.0000 
      4 C4          4.7517   53.7561   20.7115 C.2       1 UNK         0.0000 
      5 O5          5.2839   54.8648   20.6190 O.2       1 UNK         0.0000 
      6 C6          4.4403   53.0932   22.0689 C.3       1 UNK         0.0000 
      7 H7          4.9147   52.1138   22.0054 H         1 UNK         0.0000 
      8 C8          2.9149   52.9311   22.2804 C.3       1 UNK         0.0000 
      9 H9          2.3539   53.5797   21.5979 H         1 UNK         0.0000 
     10 S10         2.4837   53.6104   23.8971 S.3       1 UNK         0.0000 
     11 C11         4.1455   54.1032   24.2496 C.2       1 UNK         0.0000 
     12 C12         5.0419   53.7672   23.2959 C.2       1 UNK         0.0000 
     13 C13         6.5296   54.1002   23.4213 C.3       1 UNK         0.0000 
     14 C14         6.9212   54.4291   24.8767 C.3       1 UNK         0.0000 
     15 C15         5.9174   55.3835   25.5369 C.3       1 UNK         0.0000 
     16 C16         4.5007   54.7783   25.5693 C.3       1 UNK         0.0000 
     17 N17         2.5364   51.5309   22.0814 N.am      1 UNK         0.0000 
     18 C18         1.2791   51.0880   21.9315 C.2       1 UNK         0.0000 
     19 O19         0.2980   51.8365   21.9382 O.2       1 UNK         0.0000 
     20 C20         1.1171   49.5682   21.7779 C.3       1 UNK         0.0000 
     21 S21        -0.5618   49.0366   21.2917 S.3       1 UNK         0.0000 
     22 C22        -1.5436   49.0112   22.8325 C.3       1 UNK         0.0000 
     23 H23        -2.5812   49.2256   22.5721 H         1 UNK         0.0000 
     24 N24        -1.0782   49.9809   23.7991 N.pl3     1 UNK         0.0000 
     25 C25        -0.9825   49.2823   24.9216 C.cat     1 UNK         0.0000 
     26 N26        -1.1890   47.9884   24.7406 N.2       1 UNK         0.0000 
     27 N27        -1.5042   47.7681   23.5329 N.2       1 UNK         0.0000 
     28 N28        -0.6966   49.7261   26.1459 N.pl3     1 UNK         0.0000 
     29 N29        -0.2418   50.9957   26.3968 N.2       1 UNK         0.0000 
     30 C30        -0.2450   51.2965   27.6374 C.2       1 UNK         0.0000 
     31 C31         0.3111   52.5170   28.2277 C.ar      1 UNK         0.0000 
     32 C32         1.2015   53.3359   27.5235 C.ar      1 UNK         0.0000 
     33 C33         1.7016   54.4968   28.1075 C.ar      1 UNK         0.0000 
     34 C34         1.3218   54.8453   29.3992 C.ar      1 UNK         0.0000 
     35 C35         0.4677   54.0212   30.1274 C.ar      1 UNK         0.0000 
     36 C36        -0.0303   52.8579   29.5447 C.ar      1 UNK         0.0000 
     37 Cl37        1.9033   56.3182   30.0865 Cl        1 UNK         0.0000 
     38 H38         3.5477   54.6501   16.8530 H         1 UNK         0.0000 
     39 H39         2.4485   53.9622   18.0474 H         1 UNK         0.0000 
     40 H40         3.5014   55.3074   18.4844 H         1 UNK         0.0000 
     41 H41         5.5271   53.8024   18.1655 H         1 UNK         0.0000 
     42 H42         4.4673   52.4973   17.6961 H         1 UNK         0.0000 
     43 H43         6.7747   54.9557   22.7924 H         1 UNK         0.0000 
     44 H44         7.1574   53.2989   23.0322 H         1 UNK         0.0000 
     45 H45         6.9959   53.5099   25.4613 H         1 UNK         0.0000 
     46 H46         7.9044   54.8860   24.8859 H         1 UNK         0.0000 
     47 H47         6.2410   55.6317   26.5492 H         1 UNK         0.0000 
     48 H48         5.9038   56.3223   24.9821 H         1 UNK         0.0000 
     49 H49         4.4301   54.0542   26.3827 H         1 UNK         0.0000 
     50 H50         3.7876   55.5639   25.8154 H         1 UNK         0.0000 
     51 H51         3.2743   50.8490   22.1718 H         1 UNK         0.0000 
     52 H52         1.8034   49.2242   21.0037 H         1 UNK         0.0000 
     53 H53         1.4037   49.0697   22.7050 H         1 UNK         0.0000 
     54 H54        -0.6545   50.6169   28.3847 H         1 UNK         0.0000 
     55 H55         1.4997   53.0834   26.5164 H         1 UNK         0.0000 
     56 H56         2.3740   55.1346   27.5565 H         1 UNK         0.0000 
     57 H57         0.1839   54.2835   31.1369 H         1 UNK         0.0000 
     58 H58        -0.6954   52.2332   30.1288 H         1 UNK         0.0000 
     59 H59        -0.8695   50.9584   23.6421 H         1 UNK         0.0000 
     60 H60        -0.8398   49.1035   26.9448 H         1 UNK         0.0000 
@<TRIPOS>BOND
     1    1    2 1    
     2    1   38 1    
     3    1   39 1    
     4    1   40 1    
     5    2    3 1    
     6    2   41 1    
     7    2   42 1    
     8    3    4 1    
     9    4    5 2    
    10    4    6 1    
    11    6    7 1    
    12    6   12 1    
    13    6    8 1    
    14    8    9 1    
    15    8   10 1    
    16    8   17 1    
    17   10   11 1    
    18   11   16 1    
    19   11   12 2    
    20   12   13 1    
    21   13   14 1    
    22   13   43 1    
    23   13   44 1    
    24   14   15 1    
    25   14   45 1    
    26   14   46 1    
    27   15   16 1    
    28   15   47 1    
    29   15   48 1    
    30   16   49 1    
    31   16   50 1    
    32   17   18 am   BACKBONE|DICT|INTERRES
    33   17   51 1    
    34   18   19 2    
    35   18   20 1    
    36   20   21 1    
    37   20   52 1    
    38   20   53 1    
    39   21   22 1    
    40   22   23 1    
    41   22   27 1    
    42   22   24 1    
    43   24   25 ar   
    44   24   59 1    
    45   25   26 1    
    46   25   28 ar   
    47   26   27 2    
    48   28   29 1    
    49   28   60 1    
    50   29   30 2    
    51   30   31 1    
    52   30   54 1    
    53   31   36 ar   
    54   31   32 ar   
    55   32   33 ar   
    56   32   55 1    
    57   33   34 ar   
    58   33   56 1    
    59   34   35 ar   
    60   34   37 1    
    61   35   36 ar   
    62   35   57 1    
    63   36   58 1    
@<TRIPOS>SUBSTRUCTURE
     1 UNK         1 GROUP             0       ****    0 ROOT    
