@<TRIPOS>MOLECULE
ZINC63375980_1206
70   76    1
SMALL
USER_CHARGES


@<TRIPOS>ATOM
      1 C1          6.4140   53.2814   22.9485 C.3       1 UNK         0.0000 
      2 C2          5.7190   53.7841   24.2050 C.ar      1 UNK         0.0000 
      3 C3          6.5373   53.8314   25.3407 C.ar      1 UNK         0.0000 
      4 C4          6.1135   54.3392   26.5548 C.ar      1 UNK         0.0000 
      5 C5          4.8509   54.8857   26.6257 C.ar      1 UNK         0.0000 
      6 C6          4.0384   54.8795   25.4992 C.ar      1 UNK         0.0000 
      7 C7          4.3726   54.2245   24.3007 C.ar      1 UNK         0.0000 
      8 C8          3.2401   54.1017   23.2165 C.3       1 UNK         0.0000 
      9 H9          3.1505   55.1328   22.8682 H         1 UNK         0.0000 
     10 C10         1.7893   53.7080   23.7658 C.3       1 UNK         0.0000 
     11 H11         1.0995   54.4548   23.3752 H         1 UNK         0.0000 
     12 C12         1.2886   52.3356   23.3729 C.2       1 UNK         0.0000 
     13 C13         0.7893   51.6803   24.4303 C.2       1 UNK         0.0000 
     14 C14         0.2089   50.3367   24.5795 C.2       1 UNK         0.0000 
     15 C15        -0.2280   49.9153   25.7844 C.2       1 UNK         0.0000 
     16 C16        -0.1084   50.8289   26.9135 C.2       1 UNK         0.0000 
     17 C17         0.4581   52.0579   26.7930 C.2       1 UNK         0.0000 
     18 C18         0.9209   52.4971   25.5468 C.2       1 UNK         0.0000 
     19 N19         1.5048   53.6249   25.2197 N.pl3     1 UNK         0.0000 
     20 C20         1.4849   51.9693   21.9419 C.3       1 UNK         0.0000 
     21 C21         3.0084   51.9897   21.7384 C.3       1 UNK         0.0000 
     22 H22         3.5075   51.2277   22.3348 H         1 UNK         0.0000 
     23 N23         3.5511   53.3128   21.9782 N.am      1 UNK         0.0000 
     24 C24         4.1095   53.8186   20.8563 C.2       1 UNK         0.0000 
     25 O25         4.7003   54.8966   20.7769 O.2       1 UNK         0.0000 
     26 N26         3.9185   52.9096   19.8505 N.am      1 UNK         0.0000 
     27 C27         3.3611   51.7590   20.3087 C.2       1 UNK         0.0000 
     28 O28         3.1072   50.7063   19.7259 O.2       1 UNK         0.0000 
     29 C29         4.3735   53.1114   18.5099 C.ar      1 UNK         0.0000 
     30 C30         5.7135   53.5096   18.3264 C.ar      1 UNK         0.0000 
     31 C31         6.2584   53.6723   17.0571 C.ar      1 UNK         0.0000 
     32 C32         5.4782   53.4301   15.9340 C.ar      1 UNK         0.0000 
     33 C33         4.1526   53.0356   16.0820 C.ar      1 UNK         0.0000 
     34 C34         3.5799   52.8727   17.3521 C.ar      1 UNK         0.0000 
     35 C35         2.1338   52.4517   17.4122 C.2       1 UNK         0.0000 
     36 O36         1.2845   53.1659   17.9464 O.2       1 UNK         0.0000 
     37 N37         1.8671   51.2555   16.8542 N.am      1 UNK         0.0000 
     38 C38         0.5364   50.6429   16.7867 C.3       1 UNK         0.0000 
     39 C39         0.5801   49.3601   15.9467 C.3       1 UNK         0.0000 
     40 C40         0.9256   48.2554   16.9492 C.3       1 UNK         0.0000 
     41 C41         0.2035   48.6608   18.2413 C.3       1 UNK         0.0000 
     42 C42         0.0047   50.1883   18.1651 C.3       1 UNK         0.0000 
     43 H43         7.4069   52.8964   23.1824 H         1 UNK         0.0000 
     44 H44         5.8887   52.4618   22.4645 H         1 UNK         0.0000 
     45 H45         6.5877   54.0991   22.2504 H         1 UNK         0.0000 
     46 H46         7.5043   53.3966   25.2946 H         1 UNK         0.0000 
     47 H47         6.7604   54.3229   27.4210 H         1 UNK         0.0000 
     48 H48         4.5017   55.3061   27.5545 H         1 UNK         0.0000 
     49 H49         3.1071   55.3871   25.5895 H         1 UNK         0.0000 
     50 H50         0.1325   49.6547   23.7447 H         1 UNK         0.0000 
     51 H51        -0.6422   48.9253   25.9288 H         1 UNK         0.0000 
     52 H52        -0.4867   50.5168   27.8780 H         1 UNK         0.0000 
     53 H53         0.5228   52.6867   27.6702 H         1 UNK         0.0000 
     54 H54         0.9756   52.6709   21.2742 H         1 UNK         0.0000 
     55 H55         1.0813   50.9798   21.7239 H         1 UNK         0.0000 
     56 H56         6.3560   53.6816   19.1765 H         1 UNK         0.0000 
     57 H57         7.2890   53.9739   16.9452 H         1 UNK         0.0000 
     58 H58         5.9002   53.5484   14.9468 H         1 UNK         0.0000 
     59 H59         3.5698   52.8522   15.1901 H         1 UNK         0.0000 
     60 H60         2.6559   50.6570   16.6238 H         1 UNK         0.0000 
     61 H61        -0.1033   51.3889   16.3103 H         1 UNK         0.0000 
     62 H62         1.2615   49.4169   15.0969 H         1 UNK         0.0000 
     63 H63        -0.4094   49.1717   15.5291 H         1 UNK         0.0000 
     64 H64         2.0027   48.2345   17.1193 H         1 UNK         0.0000 
     65 H65         0.6327   47.2644   16.5964 H         1 UNK         0.0000 
     66 H66         0.7740   48.3700   19.1258 H         1 UNK         0.0000 
     67 H67        -0.7675   48.1632   18.2987 H         1 UNK         0.0000 
     68 H68        -1.0650   50.3971   18.2229 H         1 UNK         0.0000 
     69 H69         0.4648   50.7203   18.9996 H         1 UNK         0.0000 
     70 H70         1.7205   54.3687   25.8750 H         1 UNK         0.0000 
@<TRIPOS>BOND
     1    1    2 1    
     2    1   43 1    
     3    1   44 1    
     4    1   45 1    
     5    2    7 ar   
     6    2    3 ar   
     7    3    4 ar   
     8    3   46 1    
     9    4    5 ar   
    10    4   47 1    
    11    5    6 ar   
    12    5   48 1    
    13    6    7 ar   
    14    6   49 1    
    15    7    8 1    
    16    8    9 1    
    17    8   23 1    
    18    8   10 1    
    19   10   11 1    
    20   10   19 1    
    21   10   12 1    
    22   12   13 2    
    23   12   20 1    
    24   13   18 1    
    25   13   14 1    
    26   14   15 2    
    27   14   50 1    
    28   15   16 1    
    29   15   51 1    
    30   16   17 2    
    31   16   52 1    
    32   17   18 1    
    33   17   53 1    
    34   18   19 2    
    35   19   70 1    
    36   20   21 1    
    37   20   54 1    
    38   20   55 1    
    39   21   22 1    
    40   21   27 1    
    41   21   23 1    
    42   23   24 am   BACKBONE|DICT|INTERRES
    43   24   25 2    
    44   24   26 am   BACKBONE|DICT|INTERRES
    45   26   27 am   BACKBONE|DICT|INTERRES
    46   26   29 1    
    47   27   28 2    
    48   29   34 ar   
    49   29   30 ar   
    50   30   31 ar   
    51   30   56 1    
    52   31   32 ar   
    53   31   57 1    
    54   32   33 ar   
    55   32   58 1    
    56   33   34 ar   
    57   33   59 1    
    58   34   35 1    
    59   35   36 2    
    60   35   37 am   BACKBONE|DICT|INTERRES
    61   37   38 1    
    62   37   60 1    
    63   38   42 1    
    64   38   39 1    
    65   38   61 1    
    66   39   40 1    
    67   39   62 1    
    68   39   63 1    
    69   40   41 1    
    70   40   64 1    
    71   40   65 1    
    72   41   42 1    
    73   41   66 1    
    74   41   67 1    
    75   42   68 1    
    76   42   69 1    
@<TRIPOS>SUBSTRUCTURE
     1 UNK         1 GROUP             0       ****    0 ROOT    
