@<TRIPOS>MOLECULE
ZINC43757664_4048
71   76    1
SMALL
USER_CHARGES


@<TRIPOS>ATOM
      1 C1          3.5701   50.8759   21.6817 C.3       1 UNK         0.0000 
      2 C2          2.5751   51.4647   22.7383 C.3       1 UNK         0.0000 
      3 C3          2.1201   50.3087   23.6817 C.3       1 UNK         0.0000 
      4 C4          1.1436   49.2650   23.0783 C.3       1 UNK         0.0000 
      5 H5          1.7373   48.6630   22.3892 H         1 UNK         0.0000 
      6 C6         -0.0427   49.8293   22.2416 C.3       1 UNK         0.0000 
      7 C7          0.5014   50.8992   21.2294 C.3       1 UNK         0.0000 
      8 H8          1.2132   50.4107   20.5603 H         1 UNK         0.0000 
      9 C9          1.2635   51.9658   22.0641 C.3       1 UNK         0.0000 
     10 H10         0.5583   52.2359   22.8498 H         1 UNK         0.0000 
     11 C11         1.6795   53.2966   21.4389 C.3       1 UNK         0.0000 
     12 C12         3.0326   53.6633   22.0560 C.3       1 UNK         0.0000 
     13 H13         3.7631   53.3707   21.2976 H         1 UNK         0.0000 
     14 C14         3.1043   52.8691   23.3451 C.3       1 UNK         0.0000 
     15 O15         4.4669   53.2967   23.5874 O.3       1 UNK         0.0000 
     16 C16         4.6831   54.5825   23.2619 C.3       1 UNK         0.0000 
     17 O17         3.5116   54.8968   22.5373 O.3       1 UNK         0.0000 
     18 C18         5.9288   54.6658   22.3787 C.3       1 UNK         0.0000 
     19 C19         4.8815   55.2967   24.6059 C.3       1 UNK         0.0000 
     20 C20         2.2067   53.3874   24.5378 C.2       1 UNK         0.0000 
     21 O21         1.2097   54.0843   24.3429 O.2       1 UNK         0.0000 
     22 C22         2.6393   53.0363   25.9730 C.3       1 UNK         0.0000 
     23 O23         2.2939   54.0956   26.8690 O.3       1 UNK         0.0000 
     24 C24         1.6652   53.9450   28.0650 C.2       1 UNK         0.0000 
     25 O25         1.1075   54.8904   28.6237 O.2       1 UNK         0.0000 
     26 C26         1.6686   52.5368   28.6951 C.3       1 UNK         0.0000 
     27 C27         1.3378   52.4301   30.1804 C.3       1 UNK         0.0000 
     28 C28         0.3359   51.9662   29.1637 C.3       1 UNK         0.0000 
     29 C29        -0.6309   51.4923   20.3416 C.3       1 UNK         0.0000 
     30 C30        -2.0682   51.2374   20.8300 C.3       1 UNK         0.0000 
     31 H31        -2.3897   50.2329   20.5533 H         1 UNK         0.0000 
     32 C32        -2.1030   51.3809   22.3546 C.2       1 UNK         0.0000 
     33 C33        -2.7155   52.3875   23.0287 C.2       1 UNK         0.0000 
     34 C34        -2.7329   52.5448   24.4792 C.2       1 UNK         0.0000 
     35 O35        -3.5040   53.2967   25.0697 O.2       1 UNK         0.0000 
     36 C36        -1.7370   51.7322   25.1482 C.2       1 UNK         0.0000 
     37 C37        -1.0962   50.7170   24.5396 C.2       1 UNK         0.0000 
     38 C38        -1.3493   50.2395   23.0867 C.3       1 UNK         0.0000 
     39 C39        -2.3480   49.0521   23.2309 C.3       1 UNK         0.0000 
     40 F40        -2.8955   52.0965   20.2375 F         1 UNK         0.0000 
     41 F41        -0.4055   48.8149   21.4425 F         1 UNK         0.0000 
     42 O42         0.7043   48.3887   24.0883 O.3       1 UNK         0.0000 
     43 H43         3.4349   49.8092   21.5133 H         1 UNK         0.0000 
     44 H44         3.4615   51.3192   20.6920 H         1 UNK         0.0000 
     45 H45         4.6057   51.0314   21.9776 H         1 UNK         0.0000 
     46 H46         2.9597   49.7444   24.0815 H         1 UNK         0.0000 
     47 H47         1.5819   50.7671   24.5011 H         1 UNK         0.0000 
     48 H48         1.0108   54.0965   21.6948 H         1 UNK         0.0000 
     49 H49         1.8133   53.1976   20.3602 H         1 UNK         0.0000 
     50 H50         5.8321   54.0487   21.4861 H         1 UNK         0.0000 
     51 H51         6.1011   55.6976   22.0759 H         1 UNK         0.0000 
     52 H52         6.8000   54.3228   22.9383 H         1 UNK         0.0000 
     53 H53         3.9365   55.5107   25.1027 H         1 UNK         0.0000 
     54 H54         5.4437   54.6467   25.2784 H         1 UNK         0.0000 
     55 H55         5.5047   56.1801   24.4979 H         1 UNK         0.0000 
     56 H56         3.7195   52.8961   25.9995 H         1 UNK         0.0000 
     57 H57         2.1567   52.0971   26.2376 H         1 UNK         0.0000 
     58 H58         2.4093   51.8580   28.2751 H         1 UNK         0.0000 
     59 H59         1.1141   53.3290   30.7577 H         1 UNK         0.0000 
     60 H60         1.8759   51.6968   30.7794 H         1 UNK         0.0000 
     61 H61         0.1556   50.8968   29.0358 H         1 UNK         0.0000 
     62 H62        -0.5772   52.5474   29.0224 H         1 UNK         0.0000 
     63 H63        -0.4312   52.5198   20.0493 H         1 UNK         0.0000 
     64 H64        -0.5747   50.9807   19.3800 H         1 UNK         0.0000 
     65 H65        -3.2174   53.1589   22.4814 H         1 UNK         0.0000 
     66 H66        -1.5172   51.9301   26.1868 H         1 UNK         0.0000 
     67 H67        -0.4426   50.1577   25.1904 H         1 UNK         0.0000 
     68 H68        -3.2394   49.3331   23.7948 H         1 UNK         0.0000 
     69 H69        -2.7007   48.6798   22.2691 H         1 UNK         0.0000 
     70 H70        -1.8984   48.2091   23.7568 H         1 UNK         0.0000 
     71 H71         1.4908   47.9842   24.4819 H         1 UNK         0.0000 
@<TRIPOS>BOND
     1    1    2 1    
     2    1   43 1    
     3    1   44 1    
     4    1   45 1    
     5    2    9 1    
     6    2   14 1    
     7    2    3 1    
     8    3    4 1    
     9    3   46 1    
    10    3   47 1    
    11    4    5 1    
    12    4    6 1    
    13    4   42 1    
    14    6   38 1    
    15    6    7 1    
    16    6   41 1    
    17    7    8 1    
    18    7    9 1    
    19    7   29 1    
    20    9   10 1    
    21    9   11 1    
    22   11   12 1    
    23   11   48 1    
    24   11   49 1    
    25   12   13 1    
    26   12   17 1    
    27   12   14 1    
    28   14   15 1    
    29   14   20 1    
    30   15   16 1    
    31   16   17 1    
    32   16   18 1    
    33   16   19 1    
    34   18   50 1    
    35   18   51 1    
    36   18   52 1    
    37   19   53 1    
    38   19   54 1    
    39   19   55 1    
    40   20   21 2    
    41   20   22 1    
    42   22   23 1    
    43   22   56 1    
    44   22   57 1    
    45   23   24 1    
    46   24   25 2    
    47   24   26 1    
    48   26   28 1    
    49   26   27 1    
    50   26   58 1    
    51   27   28 1    
    52   27   59 1    
    53   27   60 1    
    54   28   61 1    
    55   28   62 1    
    56   29   30 1    
    57   29   63 1    
    58   29   64 1    
    59   30   31 1    
    60   30   32 1    
    61   30   40 1    
    62   32   38 1    
    63   32   33 2    
    64   33   34 1    
    65   33   65 1    
    66   34   35 2    
    67   34   36 1    
    68   36   37 2    
    69   36   66 1    
    70   37   38 1    
    71   37   67 1    
    72   38   39 1    
    73   39   68 1    
    74   39   69 1    
    75   39   70 1    
    76   42   71 1    
@<TRIPOS>SUBSTRUCTURE
     1 UNK         1 GROUP             0       ****    0 ROOT    
