ZINC36351527_1137
                    3D
 Schrodinger Suite 2024-2.
 54 58  0  0  1  0            999 V2000
   -4.9255   47.8087   27.1209 C   0  0  0  0  0  0
   -4.0956   48.6328   28.1187 N   0  3  0  0  0  0
   -4.1020   50.1504   27.8880 C   0  0  1  0  0  0
   -5.1628   50.4082   27.8806 H   0  0  0  0  0  0
   -3.3735   50.9271   28.9697 C   0  0  0  0  0  0
   -2.0270   51.2697   28.3423 C   0  0  0  0  0  0
   -2.2584   51.4913   26.9188 N   0  0  0  0  0  0
   -3.3731   50.5922   26.6054 C   0  0  0  0  0  0
   -1.2798   51.8543   25.9791 C   0  0  0  0  0  0
    0.0495   52.0955   26.3498 C   0  0  0  0  0  0
    0.9940   52.3667   25.3588 C   0  0  0  0  0  0
    0.6024   52.4264   24.0107 C   0  0  0  0  0  0
   -0.7607   52.2397   23.7324 C   0  0  0  0  0  0
   -1.6864   51.9632   24.6844 N   0  0  0  0  0  0
    1.5437   52.6035   22.9593 N   0  0  0  0  0  0
    2.5119   53.6026   23.0425 C   0  0  0  0  0  0
    2.5806   54.4434   23.9437 O   0  0  0  0  0  0
    3.4100   53.4910   21.8938 C   0  0  0  0  0  0
    3.2702   52.6083   20.8162 C   0  0  0  0  0  0
    4.2329   52.7904   19.8180 C   0  0  0  0  0  0
    5.1429   53.8124   20.0970 C   0  0  0  0  0  0
    4.8009   54.4966   21.6696 S   0  0  0  0  0  0
    6.3085   54.3041   19.2823 C   0  0  0  0  0  0
    7.1438   55.3344   19.7383 C   0  0  0  0  0  0
    8.2700   55.7112   19.0112 C   0  0  0  0  0  0
    8.5741   55.0717   17.8063 C   0  0  0  0  0  0
    7.7317   54.0615   17.3337 C   0  0  0  0  0  0
    6.6087   53.6832   18.0647 C   0  0  0  0  0  0
    9.8194   55.4615   17.0100 C   0  0  0  0  0  0
    9.5749   55.4270   15.6985 F   0  0  0  0  0  0
   10.7962   54.5966   17.2831 F   0  0  0  0  0  0
   10.2436   56.6895   17.3180 F   0  0  0  0  0  0
    2.1597   51.6792   20.9226 C   0  0  0  0  0  0
    1.3601   51.6732   21.9204 N   0  0  0  0  0  0
   -4.7967   46.7628   27.4028 H   0  0  0  0  0  0
   -5.9652   48.1255   27.2159 H   0  0  0  0  0  0
   -4.5311   47.9993   26.1219 H   0  0  0  0  0  0
   -3.1042   48.3612   28.0901 H   0  0  0  0  0  0
   -3.2377   50.3578   29.8916 H   0  0  0  0  0  0
   -3.9260   51.8235   29.2388 H   0  0  0  0  0  0
   -1.2693   50.4983   28.4797 H   0  0  0  0  0  0
   -1.5640   52.1491   28.7841 H   0  0  0  0  0  0
   -4.0339   50.9942   25.8365 H   0  0  0  0  0  0
   -2.9254   49.7184   26.1281 H   0  0  0  0  0  0
    0.3667   52.0242   27.3789 H   0  0  0  0  0  0
    2.0292   52.4986   25.6407 H   0  0  0  0  0  0
   -1.1286   52.2733   22.7168 H   0  0  0  0  0  0
    4.2627   52.1893   18.9189 H   0  0  0  0  0  0
    6.9507   55.8349   20.6746 H   0  0  0  0  0  0
    8.9152   56.4880   19.3975 H   0  0  0  0  0  0
    7.9542   53.5519   16.4069 H   0  0  0  0  0  0
    5.9958   52.8770   17.6868 H   0  0  0  0  0  0
    1.9835   50.9500   20.1367 H   0  0  0  0  0  0
   -4.3978   48.4461   29.0647 H   0  0  0  0  0  0
  1  2  1  0  0  0
  1 35  1  0  0  0
  1 36  1  0  0  0
  1 37  1  0  0  0
  2  3  1  0  0  0
  2 38  1  0  0  0
  2 54  1  0  0  0
  3  4  1  0  0  0
  3  8  1  0  0  0
  3  5  1  0  0  0
  5  6  1  0  0  0
  5 39  1  0  0  0
  5 40  1  0  0  0
  6  7  1  0  0  0
  6 41  1  0  0  0
  6 42  1  0  0  0
  7  8  1  0  0  0
  7  9  1  0  0  0
  8 43  1  0  0  0
  8 44  1  0  0  0
  9 14  2  0  0  0
  9 10  1  0  0  0
 10 11  2  0  0  0
 10 45  1  0  0  0
 11 12  1  0  0  0
 11 46  1  0  0  0
 12 13  2  0  0  0
 12 15  1  0  0  0
 13 14  1  0  0  0
 13 47  1  0  0  0
 15 34  1  0  0  0
 15 16  1  0  0  0
 16 17  2  0  0  0
 16 18  1  0  0  0
 18 22  1  0  0  0
 18 19  2  0  0  0
 19 20  1  0  0  0
 19 33  1  0  0  0
 20 21  2  0  0  0
 20 48  1  0  0  0
 21 22  1  0  0  0
 21 23  1  0  0  0
 23 28  2  0  0  0
 23 24  1  0  0  0
 24 25  2  0  0  0
 24 49  1  0  0  0
 25 26  1  0  0  0
 25 50  1  0  0  0
 26 27  2  0  0  0
 26 29  1  0  0  0
 27 28  1  0  0  0
 27 51  1  0  0  0
 28 52  1  0  0  0
 29 30  1  0  0  0
 29 31  1  0  0  0
 29 32  1  0  0  0
 33 34  2  0  0  0
 33 53  1  0  0  0
M  CHG  1   2   1
M  END
> <i_i_glide_confnum>
27

> <i_i_glide_lignum>
1138

> <i_i_glide_posenum>
375

> <i_i_glide_rotatable_bonds>
5

> <i_m_Source_File_Index>
2660

> <b_m_subgroup_collapsed>
0

> <r_i_docking_score>
-4.04247

> <r_i_glide_ecoul>
-5.71628

> <r_i_glide_eff_state_penalty>
0

> <r_i_glide_einternal>
0.557836

> <r_i_glide_emodel>
-52.1193

> <r_i_glide_energy>
-40.1596

> <r_i_glide_erotb>
0.271705

> <r_i_glide_esite>
-0.161739

> <r_i_glide_evdw>
-34.4433

> <r_i_glide_gscore>
-4.04247

> <r_i_glide_hbond>
-0.2

> <r_i_glide_ligand_efficiency>
-0.122499

> <r_i_glide_ligand_efficiency_ln>
-0.899025

> <r_i_glide_ligand_efficiency_sa>
-0.39292

> <r_i_glide_lipo>
-0.998112

> <r_i_glide_metal>
0

> <r_i_glide_rewards>
-0.374721

> <s_i_glide_gridfile>
wee1_glide-grid

> <s_m_Source_File>
wee1_decoys_glide_SP.sdf

> <s_m_Source_Path>
/Users/zhangxujun/Desktop

> <s_m_entry_id>
2935

> <s_m_entry_name>
wee1_decoys_glide_SP.2660

> <s_m_subgroup_title>
wee1_decoys_glide_SP

> <s_m_subgroupid>
wee1_decoys_glide_SP


$$$$
