@<TRIPOS>MOLECULE
ZINC22122709_4940
61   65    1
SMALL
USER_CHARGES


@<TRIPOS>ATOM
      1 C1          2.6456   49.8084   20.2550 C.3       1 UNK         0.0000 
      2 C2          2.6448   51.0009   21.1959 C.ar      1 UNK         0.0000 
      3 C3          3.3710   52.1449   20.8769 C.ar      1 UNK         0.0000 
      4 C4          3.3544   53.2391   21.7386 C.ar      1 UNK         0.0000 
      5 C5          2.6273   53.2012   22.9351 C.ar      1 UNK         0.0000 
      6 C6          1.9040   52.0356   23.2823 C.ar      1 UNK         0.0000 
      7 C7          1.9283   50.9488   22.3925 C.ar      1 UNK         0.0000 
      8 C8          1.1040   51.8487   24.5468 C.ar      1 UNK         0.0000 
      9 C9          0.0535   50.9469   24.7628 C.ar      1 UNK         0.0000 
     10 C10        -0.3618   51.1280   26.0668 C.ar      1 UNK         0.0000 
     11 N11         0.4675   52.1037   26.5992 N.pl3     1 UNK         0.0000 
     12 N12         1.3525   52.5099   25.6617 N.2       1 UNK         0.0000 
     13 C13         0.5459   52.6474   27.9207 C.ar      1 UNK         0.0000 
     14 C14         0.0468   51.9447   29.0281 C.ar      1 UNK         0.0000 
     15 C15         0.0765   52.5146   30.2986 C.ar      1 UNK         0.0000 
     16 C16         0.6220   53.7810   30.4790 C.ar      1 UNK         0.0000 
     17 C17         1.1399   54.4860   29.3974 C.ar      1 UNK         0.0000 
     18 C18         1.1046   53.9229   28.1251 C.ar      1 UNK         0.0000 
     19 N19        -1.4013   50.4976   26.7146 N.am      1 UNK         0.0000 
     20 C20        -2.6103   51.0660   26.8565 C.2       1 UNK         0.0000 
     21 O21        -2.8900   52.2074   26.4805 O.2       1 UNK         0.0000 
     22 C22        -3.6442   50.1855   27.5578 C.3       1 UNK         0.0000 
     23 S23        -5.3739   50.5852   27.1348 S.3       1 UNK         0.0000 
     24 C24        -5.8975   51.1904   28.7019 C.ar      1 UNK         0.0000 
     25 N25        -6.4982   52.3430   28.8633 N.2       1 UNK         0.0000 
     26 N26        -6.8960   52.4307   30.1915 N.2       1 UNK         0.0000 
     27 C27        -6.5534   51.3047   30.7732 C.ar      1 UNK         0.0000 
     28 N28        -5.9138   50.4714   29.8805 N.pl3     1 UNK         0.0000 
     29 N29        -5.4465   49.1806   30.1014 N.3       1 UNK         0.0000 
     30 C30        -6.8866   50.9548   32.1461 C.2       1 UNK         0.0000 
     31 C31        -6.0958   50.2194   33.0365 C.2       1 UNK         0.0000 
     32 C32        -6.8103   50.0970   34.2091 C.2       1 UNK         0.0000 
     33 O33        -8.0115   50.7130   34.0817 O.3       1 UNK         0.0000 
     34 C34        -8.0538   51.2664   32.8436 C.2       1 UNK         0.0000 
     35 C35        -9.3146   52.0241   32.5083 C.3       1 UNK         0.0000 
     36 C36         2.6401   54.4465   23.8103 C.3       1 UNK         0.0000 
     37 H37         3.5030   49.8327   19.5777 H         1 UNK         0.0000 
     38 H38         2.7031   48.8771   20.8165 H         1 UNK         0.0000 
     39 H39         1.7266   49.7850   19.6669 H         1 UNK         0.0000 
     40 H40         3.9367   52.1956   19.9572 H         1 UNK         0.0000 
     41 H41         3.9027   54.1273   21.4617 H         1 UNK         0.0000 
     42 H42         1.3975   50.0367   22.6269 H         1 UNK         0.0000 
     43 H43        -0.3732   50.2599   24.0477 H         1 UNK         0.0000 
     44 H44        -0.3662   50.9516   28.9357 H         1 UNK         0.0000 
     45 H45        -0.3245   51.9745   31.1460 H         1 UNK         0.0000 
     46 H46         0.6276   54.2245   31.4629 H         1 UNK         0.0000 
     47 H47         1.5566   55.4729   29.5395 H         1 UNK         0.0000 
     48 H48         1.4972   54.4961   27.2954 H         1 UNK         0.0000 
     49 H49        -1.2642   49.5614   27.0981 H         1 UNK         0.0000 
     50 H50        -3.4542   50.2630   28.6284 H         1 UNK         0.0000 
     51 H51        -3.4747   49.1424   27.2847 H         1 UNK         0.0000 
     52 H52        -5.9260   48.4962   29.5301 H         1 UNK         0.0000 
     53 H53        -4.4379   49.1190   30.0323 H         1 UNK         0.0000 
     54 H54        -5.1035   49.8340   32.8487 H         1 UNK         0.0000 
     55 H55        -6.6061   49.6240   35.1598 H         1 UNK         0.0000 
     56 H56        -9.1268   52.8493   31.8208 H         1 UNK         0.0000 
     57 H57       -10.0561   51.3759   32.0375 H         1 UNK         0.0000 
     58 H58        -9.7813   52.4537   33.3971 H         1 UNK         0.0000 
     59 H59         3.1018   55.2966   23.3070 H         1 UNK         0.0000 
     60 H60         1.6200   54.7387   24.0668 H         1 UNK         0.0000 
     61 H61         3.1857   54.2594   24.7358 H         1 UNK         0.0000 
@<TRIPOS>BOND
     1    1    2 1    
     2    1   37 1    
     3    1   38 1    
     4    1   39 1    
     5    2    7 ar   
     6    2    3 ar   
     7    3    4 ar   
     8    3   40 1    
     9    4    5 ar   
    10    4   41 1    
    11    5    6 ar   
    12    5   36 1    
    13    6    7 ar   
    14    6    8 1    
    15    7   42 1    
    16    8   12 ar   
    17    8    9 ar   
    18    9   10 ar   
    19    9   43 1    
    20   10   11 ar   
    21   10   19 1    
    22   11   12 ar   
    23   11   13 1    
    24   13   18 ar   
    25   13   14 ar   
    26   14   15 ar   
    27   14   44 1    
    28   15   16 ar   
    29   15   45 1    
    30   16   17 ar   
    31   16   46 1    
    32   17   18 ar   
    33   17   47 1    
    34   18   48 1    
    35   19   20 am   BACKBONE|DICT|INTERRES
    36   19   49 1    
    37   20   21 2    
    38   20   22 1    
    39   22   23 1    
    40   22   50 1    
    41   22   51 1    
    42   23   24 1    
    43   24   28 ar   
    44   24   25 ar   
    45   25   26 ar   
    46   26   27 ar   
    47   27   28 ar   
    48   27   30 1    
    49   28   29 1    
    50   29   52 1    
    51   29   53 1    
    52   30   34 2    
    53   30   31 1    
    54   31   32 2    
    55   31   54 1    
    56   32   33 1    
    57   32   55 1    
    58   33   34 1    
    59   34   35 1    
    60   35   56 1    
    61   35   57 1    
    62   35   58 1    
    63   36   59 1    
    64   36   60 1    
    65   36   61 1    
@<TRIPOS>SUBSTRUCTURE
     1 UNK         1 GROUP             0       ****    0 ROOT    
