@<TRIPOS>MOLECULE
ZINC20568842_4981
67   71    1
SMALL
USER_CHARGES


@<TRIPOS>ATOM
      1 C1         -4.1989   46.3178   15.9509 C.3       1 UNK         0.0000 
      2 C2         -3.5333   46.9874   14.7319 C.3       1 UNK         0.0000 
      3 H3         -4.3082   47.0692   13.9670 H         1 UNK         0.0000 
      4 C4         -2.3995   46.1614   14.0885 C.3       1 UNK         0.0000 
      5 C5         -1.2295   45.9286   15.0693 C.3       1 UNK         0.0000 
      6 C6         -0.8246   47.2536   15.7405 C.2       1 UNK         0.0000 
      7 C7         -1.6786   48.3676   15.7009 C.2       1 UNK         0.0000 
      8 S8         -0.9932   49.7424   16.4746 S.3       1 UNK         0.0000 
      9 C9          0.4618   48.8617   16.8764 C.2       1 UNK         0.0000 
     10 C10         0.4227   47.5355   16.3737 C.2       1 UNK         0.0000 
     11 C11         1.4336   46.5058   16.5907 C.2       1 UNK         0.0000 
     12 O12         1.1487   45.3149   16.6953 O.2       1 UNK         0.0000 
     13 N13         2.7044   46.8966   16.6745 N.am      1 UNK         0.0000 
     14 N14         1.5043   49.4728   17.5840 N.am      1 UNK         0.0000 
     15 C15         1.4576   50.5868   18.3495 C.2       1 UNK         0.0000 
     16 O16         0.4360   51.2246   18.6177 O.2       1 UNK         0.0000 
     17 C17         2.8093   51.0376   18.9311 C.3       1 UNK         0.0000 
     18 N18         2.6001   52.0105   20.1229 N.4       1 UNK         0.0000 
     19 C19         2.2646   51.2262   21.4123 C.3       1 UNK         0.0000 
     20 C20         2.0367   52.2224   22.5630 C.3       1 UNK         0.0000 
     21 N21         3.2202   53.0700   22.7814 N.3       1 UNK         0.0000 
     22 C22         3.5608   53.8339   21.5691 C.3       1 UNK         0.0000 
     23 C23         3.8444   52.8946   20.3711 C.3       1 UNK         0.0000 
     24 C24         3.0371   53.9084   23.9826 C.3       1 UNK         0.0000 
     25 C25         4.2960   54.0984   24.8529 C.ar      1 UNK         0.0000 
     26 C26         5.5665   54.1981   24.2744 C.ar      1 UNK         0.0000 
     27 C27         6.7044   54.3961   25.0411 C.ar      1 UNK         0.0000 
     28 C28         6.6181   54.4657   26.4239 C.ar      1 UNK         0.0000 
     29 C29         5.3683   54.3558   27.0680 C.ar      1 UNK         0.0000 
     30 C30         4.1765   54.1903   26.2881 C.ar      1 UNK         0.0000 
     31 C31         2.9386   54.1015   26.9965 C.ar      1 UNK         0.0000 
     32 C32         2.8958   54.1641   28.3866 C.ar      1 UNK         0.0000 
     33 C33         4.0630   54.3095   29.1228 C.ar      1 UNK         0.0000 
     34 C34         5.2902   54.4039   28.4816 C.ar      1 UNK         0.0000 
     35 C35        -3.0427   48.4247   15.0178 C.3       1 UNK         0.0000 
     36 H36        -3.5144   46.2386   16.7954 H         1 UNK         0.0000 
     37 H37        -5.0694   46.8858   16.2843 H         1 UNK         0.0000 
     38 H38        -4.5445   45.3128   15.7072 H         1 UNK         0.0000 
     39 H39        -2.0335   46.6618   13.1904 H         1 UNK         0.0000 
     40 H40        -2.7797   45.1882   13.7741 H         1 UNK         0.0000 
     41 H41        -1.5139   45.2006   15.8291 H         1 UNK         0.0000 
     42 H42        -0.3922   45.4844   14.5296 H         1 UNK         0.0000 
     43 H43         3.4088   46.1943   16.8424 H         1 UNK         0.0000 
     44 H44         3.0192   47.8479   16.4811 H         1 UNK         0.0000 
     45 H45         2.4077   49.0166   17.5357 H         1 UNK         0.0000 
     46 H46         3.4420   50.2193   19.2818 H         1 UNK         0.0000 
     47 H47         3.3594   51.5925   18.1680 H         1 UNK         0.0000 
     48 H48         1.3454   50.6733   21.2132 H         1 UNK         0.0000 
     49 H49         3.0822   50.5302   21.6129 H         1 UNK         0.0000 
     50 H50         1.1938   52.8709   22.3163 H         1 UNK         0.0000 
     51 H51         1.7925   51.6519   23.4622 H         1 UNK         0.0000 
     52 H52         4.4021   54.5070   21.7147 H         1 UNK         0.0000 
     53 H53         2.7055   54.4558   21.3256 H         1 UNK         0.0000 
     54 H54         4.7043   52.2416   20.5310 H         1 UNK         0.0000 
     55 H55         3.9813   53.4798   19.4608 H         1 UNK         0.0000 
     56 H56         2.6305   54.8853   23.7180 H         1 UNK         0.0000 
     57 H57         2.2881   53.4142   24.5962 H         1 UNK         0.0000 
     58 H58         5.7053   54.1164   23.2112 H         1 UNK         0.0000 
     59 H59         7.6639   54.4718   24.5548 H         1 UNK         0.0000 
     60 H60         7.5066   54.5861   27.0242 H         1 UNK         0.0000 
     61 H61         2.0008   53.9962   26.4777 H         1 UNK         0.0000 
     62 H62         1.9448   54.1007   28.8970 H         1 UNK         0.0000 
     63 H63         4.0237   54.3509   30.2005 H         1 UNK         0.0000 
     64 H64         6.1956   54.5157   29.0622 H         1 UNK         0.0000 
     65 H65        -2.9728   48.9803   14.0815 H         1 UNK         0.0000 
     66 H66        -3.7666   48.9570   15.6359 H         1 UNK         0.0000 
     67 H67         1.8242   52.6227   19.8980 H         1 UNK         0.0000 
@<TRIPOS>BOND
     1    1    2 1    
     2    1   36 1    
     3    1   37 1    
     4    1   38 1    
     5    2    3 1    
     6    2   35 1    
     7    2    4 1    
     8    4    5 1    
     9    4   39 1    
    10    4   40 1    
    11    5    6 1    
    12    5   41 1    
    13    5   42 1    
    14    6   10 1    
    15    6    7 2    
    16    7    8 1    
    17    7   35 1    
    18    8    9 1    
    19    9   10 2    
    20    9   14 am   BACKBONE|DICT|INTERRES
    21   10   11 1    
    22   11   12 2    
    23   11   13 am   BACKBONE|DICT|INTERRES
    24   13   43 1    
    25   13   44 1    
    26   14   15 am   BACKBONE|DICT|INTERRES
    27   14   45 1    
    28   15   16 2    
    29   15   17 1    
    30   17   18 1    
    31   17   46 1    
    32   17   47 1    
    33   18   23 1    
    34   18   19 1    
    35   18   67 1    
    36   19   20 1    
    37   19   48 1    
    38   19   49 1    
    39   20   21 1    
    40   20   50 1    
    41   20   51 1    
    42   21   22 1    
    43   21   24 1    
    44   22   23 1    
    45   22   52 1    
    46   22   53 1    
    47   23   54 1    
    48   23   55 1    
    49   24   25 1    
    50   24   56 1    
    51   24   57 1    
    52   25   30 ar   
    53   25   26 ar   
    54   26   27 ar   
    55   26   58 1    
    56   27   28 ar   
    57   27   59 1    
    58   28   29 ar   
    59   28   60 1    
    60   29   34 ar   
    61   29   30 ar   
    62   30   31 ar   
    63   31   32 ar   
    64   31   61 1    
    65   32   33 ar   
    66   32   62 1    
    67   33   34 ar   
    68   33   63 1    
    69   34   64 1    
    70   35   65 1    
    71   35   66 1    
@<TRIPOS>SUBSTRUCTURE
     1 UNK         1 GROUP             0       ****    0 ROOT    
