@<TRIPOS>MOLECULE
ZINC22002279_833
64   66    1
SMALL
USER_CHARGES


@<TRIPOS>ATOM
      1 C1          0.6242   51.5617   22.9636 C.3       1 UNK         0.0000 
      2 C2         -0.6010   50.6862   23.3227 C.3       1 UNK         0.0000 
      3 C3         -0.7918   50.5658   24.8585 C.3       1 UNK         0.0000 
      4 H4          0.1996   50.6774   25.3002 H         1 UNK         0.0000 
      5 N5         -1.5306   51.7603   25.2602 N.pl3     1 UNK         0.0000 
      6 C6         -2.4035   52.2490   24.3220 C.2       1 UNK         0.0000 
      7 S7         -3.6958   53.2888   24.4966 S.2       1 UNK         0.0000 
      8 S8         -2.0742   51.5632   22.7226 S.3       1 UNK         0.0000 
      9 C9         -1.5659   52.2266   26.6667 C.3       1 UNK         0.0000 
     10 C10        -0.4466   51.7571   27.6394 C.3       1 UNK         0.0000 
     11 C11         0.9514   52.3793   27.5160 C.ar      1 UNK         0.0000 
     12 C12         1.8486   52.2076   28.5741 C.ar      1 UNK         0.0000 
     13 C13         3.1239   52.7727   28.5310 C.ar      1 UNK         0.0000 
     14 C14         3.5395   53.5198   27.4155 C.ar      1 UNK         0.0000 
     15 C15         2.6469   53.6806   26.3451 C.ar      1 UNK         0.0000 
     16 C16         1.3686   53.1166   26.4014 C.ar      1 UNK         0.0000 
     17 O17         2.9928   54.4316   25.2471 O.3       1 UNK         0.0000 
     18 C18         3.7689   53.7460   24.2777 C.3       1 UNK         0.0000 
     19 O19         4.7834   54.1172   27.2981 O.3       1 UNK         0.0000 
     20 C20         5.7353   53.9657   28.3462 C.3       1 UNK         0.0000 
     21 N21        -1.4172   49.3318   25.4030 N.am      1 UNK         0.0000 
     22 C22        -2.6683   48.8099   25.2200 C.2       1 UNK         0.0000 
     23 O23        -3.4469   49.2348   24.3674 O.2       1 UNK         0.0000 
     24 N24        -3.0410   47.8355   26.0811 N.am      1 UNK         0.0000 
     25 C25        -4.3609   47.1950   26.1364 C.3       1 UNK         0.0000 
     26 C26        -4.3157   45.9087   26.9995 C.3       1 UNK         0.0000 
     27 C27        -4.0379   46.2041   28.4924 C.3       1 UNK         0.0000 
     28 C28        -5.0337   47.2295   29.0810 C.3       1 UNK         0.0000 
     29 C29        -5.1664   48.4936   28.2043 C.3       1 UNK         0.0000 
     30 C30        -5.4537   48.1243   26.7304 C.3       1 UNK         0.0000 
     31 O31        -0.4955   48.5225   26.0816 O.3       1 UNK         0.0000 
     32 C32        -0.4827   49.3287   22.5925 C.3       1 UNK         0.0000 
     33 H33         1.5470   51.1159   23.3365 H         1 UNK         0.0000 
     34 H34         0.7356   51.6744   21.8848 H         1 UNK         0.0000 
     35 H35         0.5502   52.5655   23.3801 H         1 UNK         0.0000 
     36 H36        -1.7136   53.3024   26.7519 H         1 UNK         0.0000 
     37 H37        -2.4899   51.7917   27.0556 H         1 UNK         0.0000 
     38 H38        -0.7969   52.0132   28.6409 H         1 UNK         0.0000 
     39 H39        -0.3749   50.6697   27.6621 H         1 UNK         0.0000 
     40 H40         1.5507   51.6360   29.4414 H         1 UNK         0.0000 
     41 H41         3.7795   52.6193   29.3736 H         1 UNK         0.0000 
     42 H42         0.6990   53.2848   25.5736 H         1 UNK         0.0000 
     43 H43         4.0947   54.4521   23.5156 H         1 UNK         0.0000 
     44 H44         4.6670   53.3015   24.7087 H         1 UNK         0.0000 
     45 H45         3.1812   52.9660   23.7904 H         1 UNK         0.0000 
     46 H46         6.6572   54.4788   28.0701 H         1 UNK         0.0000 
     47 H47         5.3778   54.4071   29.2772 H         1 UNK         0.0000 
     48 H48         5.9822   52.9137   28.5098 H         1 UNK         0.0000 
     49 H49        -2.4644   47.7158   26.9097 H         1 UNK         0.0000 
     50 H50        -4.6283   46.9064   25.1163 H         1 UNK         0.0000 
     51 H51        -3.5500   45.2259   26.6267 H         1 UNK         0.0000 
     52 H52        -5.2617   45.3728   26.9070 H         1 UNK         0.0000 
     53 H53        -3.0121   46.5559   28.6198 H         1 UNK         0.0000 
     54 H54        -4.0930   45.2817   29.0622 H         1 UNK         0.0000 
     55 H55        -4.7302   47.5110   30.0942 H         1 UNK         0.0000 
     56 H56        -6.0157   46.7608   29.1762 H         1 UNK         0.0000 
     57 H57        -4.2456   49.0774   28.2699 H         1 UNK         0.0000 
     58 H58        -5.9633   49.1330   28.5902 H         1 UNK         0.0000 
     59 H59        -6.4277   47.6355   26.6578 H         1 UNK         0.0000 
     60 H60        -5.5424   49.0330   26.1312 H         1 UNK         0.0000 
     61 H61        -0.8261   48.4965   27.0057 H         1 UNK         0.0000 
     62 H62         0.3442   48.7440   22.9952 H         1 UNK         0.0000 
     63 H63        -1.3854   48.7250   22.6796 H         1 UNK         0.0000 
     64 H64        -0.2968   49.4627   21.5266 H         1 UNK         0.0000 
@<TRIPOS>BOND
     1    1    2 1    
     2    1   33 1    
     3    1   34 1    
     4    1   35 1    
     5    2    8 1    
     6    2    3 1    
     7    2   32 1    
     8    3    4 1    
     9    3    5 1    
    10    3   21 1    
    11    5    6 1    
    12    5    9 1    
    13    6    7 2    
    14    6    8 1    
    15    9   10 1    
    16    9   36 1    
    17    9   37 1    
    18   10   11 1    
    19   10   38 1    
    20   10   39 1    
    21   11   16 ar   
    22   11   12 ar   
    23   12   13 ar   
    24   12   40 1    
    25   13   14 ar   
    26   13   41 1    
    27   14   15 ar   
    28   14   19 1    
    29   15   16 ar   
    30   15   17 1    
    31   16   42 1    
    32   17   18 1    
    33   18   43 1    
    34   18   44 1    
    35   18   45 1    
    36   19   20 1    
    37   20   46 1    
    38   20   47 1    
    39   20   48 1    
    40   21   22 am   BACKBONE|DICT|INTERRES
    41   21   31 1    
    42   22   23 2    
    43   22   24 am   BACKBONE|DICT|INTERRES
    44   24   25 1    
    45   24   49 1    
    46   25   30 1    
    47   25   26 1    
    48   25   50 1    
    49   26   27 1    
    50   26   51 1    
    51   26   52 1    
    52   27   28 1    
    53   27   53 1    
    54   27   54 1    
    55   28   29 1    
    56   28   55 1    
    57   28   56 1    
    58   29   30 1    
    59   29   57 1    
    60   29   58 1    
    61   30   59 1    
    62   30   60 1    
    63   31   61 1    
    64   32   62 1    
    65   32   63 1    
    66   32   64 1    
@<TRIPOS>SUBSTRUCTURE
     1 UNK         1 GROUP             0       ****    0 ROOT    
