@<TRIPOS>MOLECULE
ZINC11695906_5927
48   51    1
SMALL
USER_CHARGES


@<TRIPOS>ATOM
      1 C1         -1.4438   46.5445   25.0736 C.3       1 UNK         0.0000 
      2 C2         -1.3251   47.9249   24.4749 C.ar      1 UNK         0.0000 
      3 C3         -0.9295   48.9950   25.2795 C.ar      1 UNK         0.0000 
      4 C4         -0.8350   50.2679   24.7309 C.ar      1 UNK         0.0000 
      5 C5         -1.1329   50.4592   23.3802 C.ar      1 UNK         0.0000 
      6 C6         -1.5163   49.3880   22.5710 C.ar      1 UNK         0.0000 
      7 C7         -1.6164   48.1159   23.1234 C.ar      1 UNK         0.0000 
      8 S8         -1.0203   52.0970   22.6914 S.o2      1 UNK         0.0000 
      9 O9         -1.4491   53.0361   23.7359 O.2       1 UNK         0.0000 
     10 O10        -1.6822   52.0962   21.3806 O.2       1 UNK         0.0000 
     11 C11         0.7643   52.3489   22.4187 C.ar      1 UNK         0.0000 
     12 C12         1.5736   51.7757   21.4583 C.ar      1 UNK         0.0000 
     13 N13         2.7907   52.2225   21.6335 N.ar      1 UNK         0.0000 
     14 C14         2.6939   53.0118   22.6793 C.ar      1 UNK         0.0000 
     15 N15         1.4887   53.1262   23.1877 N.2       1 UNK         0.0000 
     16 C16         3.8953   53.6989   23.2746 C.ar      1 UNK         0.0000 
     17 C17         5.0671   53.8709   22.5225 C.ar      1 UNK         0.0000 
     18 C18         6.1961   54.4562   23.0917 C.ar      1 UNK         0.0000 
     19 C19         6.1621   54.8724   24.4206 C.ar      1 UNK         0.0000 
     20 C20         5.0070   54.7137   25.1828 C.ar      1 UNK         0.0000 
     21 C21         3.8770   54.1321   24.6098 C.ar      1 UNK         0.0000 
     22 S22         1.1562   50.6241   20.1913 S.3       1 UNK         0.0000 
     23 C23         1.5013   51.6738   18.7351 C.3       1 UNK         0.0000 
     24 C24         0.2999   52.4963   18.2451 C.2       1 UNK         0.0000 
     25 O25        -0.8468   52.0577   18.3694 O.2       1 UNK         0.0000 
     26 N26         0.5998   53.6876   17.6816 N.am      1 UNK         0.0000 
     27 C27        -0.3006   54.6635   17.2803 C.2       1 UNK         0.0000 
     28 N28        -1.6159   54.5938   17.2652 N.2       1 UNK         0.0000 
     29 C29        -2.1519   55.7247   16.8441 C.2       1 UNK         0.0000 
     30 C30        -1.2667   56.7522   16.5298 C.2       1 UNK         0.0000 
     31 S31         0.3571   56.1867   16.7688 S.3       1 UNK         0.0000 
     32 H32        -1.6598   46.5913   26.1426 H         1 UNK         0.0000 
     33 H33        -2.2528   45.9866   24.6039 H         1 UNK         0.0000 
     34 H34        -0.5005   46.0292   24.9101 H         1 UNK         0.0000 
     35 H35        -0.6976   48.8426   26.3249 H         1 UNK         0.0000 
     36 H36        -0.5357   51.1011   25.3510 H         1 UNK         0.0000 
     37 H37        -1.7363   49.5403   21.5238 H         1 UNK         0.0000 
     38 H38        -1.9136   47.2835   22.4997 H         1 UNK         0.0000 
     39 H39         5.1014   53.5416   21.4944 H         1 UNK         0.0000 
     40 H40         7.0945   54.5807   22.5063 H         1 UNK         0.0000 
     41 H41         7.0391   55.3226   24.8594 H         1 UNK         0.0000 
     42 H42         4.9870   55.0356   26.2134 H         1 UNK         0.0000 
     43 H43         2.9877   54.0022   25.2097 H         1 UNK         0.0000 
     44 H44         1.7970   51.0108   17.9212 H         1 UNK         0.0000 
     45 H45         2.3644   52.3112   18.9370 H         1 UNK         0.0000 
     46 H46         1.5751   53.9455   17.6392 H         1 UNK         0.0000 
     47 H47        -3.2270   55.7884   16.7606 H         1 UNK         0.0000 
     48 H48        -1.4704   57.7504   16.1702 H         1 UNK         0.0000 
@<TRIPOS>BOND
     1    1    2 1    
     2    1   32 1    
     3    1   33 1    
     4    1   34 1    
     5    2    7 ar   
     6    2    3 ar   
     7    3    4 ar   
     8    3   35 1    
     9    4    5 ar   
    10    4   36 1    
    11    5    6 ar   
    12    5    8 1    
    13    6    7 ar   
    14    6   37 1    
    15    7   38 1    
    16    8    9 2    
    17    8   10 2    
    18    8   11 1    
    19   11   12 ar   
    20   11   15 ar   
    21   12   22 1    
    22   12   13 ar   
    23   13   14 ar   
    24   14   15 ar   
    25   14   16 1    
    26   16   21 ar   
    27   16   17 ar   
    28   17   18 ar   
    29   17   39 1    
    30   18   19 ar   
    31   18   40 1    
    32   19   20 ar   
    33   19   41 1    
    34   20   21 ar   
    35   20   42 1    
    36   21   43 1    
    37   22   23 1    
    38   23   24 1    
    39   23   44 1    
    40   23   45 1    
    41   24   25 2    
    42   24   26 am   BACKBONE|DICT|INTERRES
    43   26   27 am   BACKBONE|DICT|INTERRES
    44   26   46 1    
    45   27   31 1    
    46   27   28 2    
    47   28   29 1    
    48   29   30 2    
    49   29   47 1    
    50   30   31 1    
    51   30   48 1    
@<TRIPOS>SUBSTRUCTURE
     1 UNK         1 GROUP             0       ****    0 ROOT    
