@<TRIPOS>MOLECULE
ZINC13679774_931
65   68    1
SMALL
USER_CHARGES


@<TRIPOS>ATOM
      1 C1          3.1355   52.4653   29.0772 C.3       1 UNK         0.0000 
      2 C2          1.7988   51.9493   28.5118 C.3       1 UNK         0.0000 
      3 C3          0.5436   52.3651   29.3242 C.3       1 UNK         0.0000 
      4 H4          0.6968   52.0082   30.3445 H         1 UNK         0.0000 
      5 C5          0.3454   53.8938   29.4180 C.3       1 UNK         0.0000 
      6 N6         -0.6874   51.6965   28.8860 N.am      1 UNK         0.0000 
      7 C7         -1.3059   51.8007   27.6919 C.2       1 UNK         0.0000 
      8 O8         -0.7739   52.3793   26.7420 O.2       1 UNK         0.0000 
      9 C9         -2.7551   51.2967   27.6167 C.ar      1 UNK         0.0000 
     10 C10        -3.3929   50.8319   28.7849 C.ar      1 UNK         0.0000 
     11 C11        -4.7133   50.3947   28.7780 C.ar      1 UNK         0.0000 
     12 C12        -5.4476   50.4240   27.5998 C.ar      1 UNK         0.0000 
     13 C13        -4.8546   50.8743   26.4251 C.ar      1 UNK         0.0000 
     14 C14        -3.5157   51.3038   26.4111 C.ar      1 UNK         0.0000 
     15 N15        -2.9052   51.7512   25.2225 N.am      1 UNK         0.0000 
     16 C16        -3.1955   51.5237   23.9237 C.2       1 UNK         0.0000 
     17 O17        -4.1900   50.9163   23.5221 O.2       1 UNK         0.0000 
     18 C18        -2.1331   52.0546   22.9308 C.3       1 UNK         0.0000 
     19 H19        -2.1077   53.1393   23.0438 H         1 UNK         0.0000 
     20 C20        -0.7664   51.4331   23.2946 C.3       1 UNK         0.0000 
     21 N21         0.2588   51.9473   22.3899 N.pl3     1 UNK         0.0000 
     22 C22        -0.1093   51.8957   21.0171 C.ar      1 UNK         0.0000 
     23 C23         0.8355   51.9367   19.9819 C.ar      1 UNK         0.0000 
     24 C24         0.4333   51.8754   18.6488 C.ar      1 UNK         0.0000 
     25 C25        -0.9177   51.7553   18.3250 C.ar      1 UNK         0.0000 
     26 C26        -1.8719   51.6871   19.3368 C.ar      1 UNK         0.0000 
     27 C27        -1.4755   51.7545   20.6731 C.ar      1 UNK         0.0000 
     28 O28        -2.4952   51.6593   21.6027 O.3       1 UNK         0.0000 
     29 S29         1.9336   52.0593   23.0052 S.o2      1 UNK         0.0000 
     30 O30         1.8464   52.0953   24.4711 O.2       1 UNK         0.0000 
     31 O31         2.7044   51.0037   22.3376 O.2       1 UNK         0.0000 
     32 C32         2.5633   53.7500   22.4510 C.3       1 UNK         0.0000 
     33 C33         3.8943   54.0967   23.1026 C.ar      1 UNK         0.0000 
     34 C34         5.0693   54.0975   22.3433 C.ar      1 UNK         0.0000 
     35 C35         6.2808   54.4497   22.9392 C.ar      1 UNK         0.0000 
     36 C36         6.3208   54.7538   24.2978 C.ar      1 UNK         0.0000 
     37 C37         5.1593   54.7298   25.0650 C.ar      1 UNK         0.0000 
     38 C38         3.9442   54.4131   24.4643 C.ar      1 UNK         0.0000 
     39 H39         3.9731   52.0963   28.4862 H         1 UNK         0.0000 
     40 H40         3.2854   52.1401   30.1081 H         1 UNK         0.0000 
     41 H41         3.1909   53.5553   29.0525 H         1 UNK         0.0000 
     42 H42         1.7078   52.2796   27.4750 H         1 UNK         0.0000 
     43 H43         1.8485   50.8604   28.4687 H         1 UNK         0.0000 
     44 H44         1.2243   54.3901   29.8221 H         1 UNK         0.0000 
     45 H45         0.1679   54.3348   28.4385 H         1 UNK         0.0000 
     46 H46        -0.4906   54.1457   30.0732 H         1 UNK         0.0000 
     47 H47        -1.1006   51.0591   29.5538 H         1 UNK         0.0000 
     48 H48        -2.8728   50.7700   29.7295 H         1 UNK         0.0000 
     49 H49        -5.1629   50.0296   29.6892 H         1 UNK         0.0000 
     50 H50        -6.4747   50.0908   27.5941 H         1 UNK         0.0000 
     51 H51        -5.4626   50.8910   25.5344 H         1 UNK         0.0000 
     52 H52        -2.0147   52.1931   25.4140 H         1 UNK         0.0000 
     53 H53        -0.4819   51.6519   24.3223 H         1 UNK         0.0000 
     54 H54        -0.7822   50.3437   23.2290 H         1 UNK         0.0000 
     55 H55         1.8935   52.0028   20.1835 H         1 UNK         0.0000 
     56 H56         1.1772   51.9065   17.8643 H         1 UNK         0.0000 
     57 H57        -1.2204   51.7000   17.2902 H         1 UNK         0.0000 
     58 H58        -2.9158   51.5704   19.0877 H         1 UNK         0.0000 
     59 H59         2.6493   53.7212   21.3651 H         1 UNK         0.0000 
     60 H60         1.8041   54.4840   22.7151 H         1 UNK         0.0000 
     61 H61         5.0442   53.8541   21.2899 H         1 UNK         0.0000 
     62 H62         7.1888   54.4944   22.3559 H         1 UNK         0.0000 
     63 H63         7.2639   55.0134   24.7540 H         1 UNK         0.0000 
     64 H64         5.1971   54.9658   26.1192 H         1 UNK         0.0000 
     65 H65         3.0421   54.4053   25.0578 H         1 UNK         0.0000 
@<TRIPOS>BOND
     1    1    2 1    
     2    1   39 1    
     3    1   40 1    
     4    1   41 1    
     5    2    3 1    
     6    2   42 1    
     7    2   43 1    
     8    3    4 1    
     9    3    5 1    
    10    3    6 1    
    11    5   44 1    
    12    5   45 1    
    13    5   46 1    
    14    6    7 am   BACKBONE|DICT|INTERRES
    15    6   47 1    
    16    7    8 2    
    17    7    9 1    
    18    9   14 ar   
    19    9   10 ar   
    20   10   11 ar   
    21   10   48 1    
    22   11   12 ar   
    23   11   49 1    
    24   12   13 ar   
    25   12   50 1    
    26   13   14 ar   
    27   13   51 1    
    28   14   15 1    
    29   15   16 am   BACKBONE|DICT|INTERRES
    30   15   52 1    
    31   16   17 2    
    32   16   18 1    
    33   18   19 1    
    34   18   28 1    
    35   18   20 1    
    36   20   21 1    
    37   20   53 1    
    38   20   54 1    
    39   21   22 1    
    40   21   29 1    
    41   22   27 ar   
    42   22   23 ar   
    43   23   24 ar   
    44   23   55 1    
    45   24   25 ar   
    46   24   56 1    
    47   25   26 ar   
    48   25   57 1    
    49   26   27 ar   
    50   26   58 1    
    51   27   28 1    
    52   29   30 2    
    53   29   31 2    
    54   29   32 1    
    55   32   33 1    
    56   32   59 1    
    57   32   60 1    
    58   33   38 ar   
    59   33   34 ar   
    60   34   35 ar   
    61   34   61 1    
    62   35   36 ar   
    63   35   62 1    
    64   36   37 ar   
    65   36   63 1    
    66   37   38 ar   
    67   37   64 1    
    68   38   65 1    
@<TRIPOS>SUBSTRUCTURE
     1 UNK         1 GROUP             0       ****    0 ROOT    
