@<TRIPOS>MOLECULE
ZINC35636093_1439
53   56    1
SMALL
USER_CHARGES


@<TRIPOS>ATOM
      1 C1          1.5043   56.8002   29.9967 C.3       1 UNK         0.0000 
      2 C2          1.9041   55.3910   29.5980 C.2       1 UNK         0.0000 
      3 O3          1.3943   54.4247   30.1587 O.2       1 UNK         0.0000 
      4 N4          2.8631   55.2966   28.6668 N.am      1 UNK         0.0000 
      5 C5          3.5802   54.0679   28.2809 C.3       1 UNK         0.0000 
      6 H6          3.4023   53.3369   29.0738 H         1 UNK         0.0000 
      7 C7          3.0996   53.4172   26.9583 C.3       1 UNK         0.0000 
      8 H8          3.5363   52.4253   26.9243 H         1 UNK         0.0000 
      9 C9          3.6686   54.1682   25.7460 C.3       1 UNK         0.0000 
     10 H10         3.2497   55.1742   25.7024 H         1 UNK         0.0000 
     11 C11         5.1931   54.2183   25.8938 C.3       1 UNK         0.0000 
     12 H12         5.5662   53.1936   25.9034 H         1 UNK         0.0000 
     13 C13         5.7772   54.8907   24.6518 C.3       1 UNK         0.0000 
     14 O14         5.3371   54.1719   23.4967 O.3       1 UNK         0.0000 
     15 C15         3.9264   54.0921   23.4091 C.3       1 UNK         0.0000 
     16 H16         3.4934   55.0883   23.3000 H         1 UNK         0.0000 
     17 O17         3.3878   53.4524   24.5445 O.3       1 UNK         0.0000 
     18 C18         3.5384   53.2869   22.1488 C.ar      1 UNK         0.0000 
     19 C19         2.3535   52.5397   22.1257 C.ar      1 UNK         0.0000 
     20 C20         2.0242   51.7784   21.0073 C.ar      1 UNK         0.0000 
     21 C21         2.8771   51.7671   19.9070 C.ar      1 UNK         0.0000 
     22 C22         4.0493   52.5178   19.9120 C.ar      1 UNK         0.0000 
     23 C23         4.3787   53.2790   21.0295 C.ar      1 UNK         0.0000 
     24 O24         5.5537   54.8966   27.0952 O.3       1 UNK         0.0000 
     25 C25         5.1308   54.2006   28.2396 C.3       1 UNK         0.0000 
     26 H26         5.6422   53.2347   28.1795 H         1 UNK         0.0000 
     27 O27         5.5044   54.8969   29.3493 O.3       1 UNK         0.0000 
     28 O28         1.6885   53.2218   26.8365 O.3       1 UNK         0.0000 
     29 C29         1.0486   52.2323   27.5237 C.2       1 UNK         0.0000 
     30 O30         1.5800   51.5689   28.4196 O.2       1 UNK         0.0000 
     31 C31        -0.3835   52.0789   27.1237 C.ar      1 UNK         0.0000 
     32 C32        -1.2832   51.4806   28.0146 C.ar      1 UNK         0.0000 
     33 C33        -2.6143   51.2965   27.6521 C.ar      1 UNK         0.0000 
     34 C34        -3.0521   51.7024   26.3946 C.ar      1 UNK         0.0000 
     35 C35        -2.1662   52.2838   25.4916 C.ar      1 UNK         0.0000 
     36 C36        -0.8329   52.4644   25.8513 C.ar      1 UNK         0.0000 
     37 H37         1.5044   57.4598   29.1300 H         1 UNK         0.0000 
     38 H38         0.5088   56.8031   30.4390 H         1 UNK         0.0000 
     39 H39         2.1933   57.2098   30.7350 H         1 UNK         0.0000 
     40 H40         3.2545   56.1530   28.3073 H         1 UNK         0.0000 
     41 H41         5.5050   55.9430   24.5798 H         1 UNK         0.0000 
     42 H42         6.8668   54.8597   24.6851 H         1 UNK         0.0000 
     43 H43         1.6915   52.5363   22.9789 H         1 UNK         0.0000 
     44 H44         1.1161   51.1947   20.9949 H         1 UNK         0.0000 
     45 H45         2.6351   51.1695   19.0393 H         1 UNK         0.0000 
     46 H46         4.7041   52.4968   19.0517 H         1 UNK         0.0000 
     47 H47         5.2943   53.8518   21.0259 H         1 UNK         0.0000 
     48 H48         6.4422   55.1254   29.2811 H         1 UNK         0.0000 
     49 H49        -0.9615   51.1384   28.9899 H         1 UNK         0.0000 
     50 H50        -3.2948   50.8175   28.3414 H         1 UNK         0.0000 
     51 H51        -4.0836   51.5499   26.1136 H         1 UNK         0.0000 
     52 H52        -2.5086   52.5838   24.5124 H         1 UNK         0.0000 
     53 H53        -0.1554   52.8981   25.1295 H         1 UNK         0.0000 
@<TRIPOS>BOND
     1    1    2 1    
     2    1   37 1    
     3    1   38 1    
     4    1   39 1    
     5    2    3 2    
     6    2    4 am   BACKBONE|DICT|INTERRES
     7    4    5 1    
     8    4   40 1    
     9    5    6 1    
    10    5   25 1    
    11    5    7 1    
    12    7    8 1    
    13    7    9 1    
    14    7   28 1    
    15    9   10 1    
    16    9   17 1    
    17    9   11 1    
    18   11   12 1    
    19   11   13 1    
    20   11   24 1    
    21   13   14 1    
    22   13   41 1    
    23   13   42 1    
    24   14   15 1    
    25   15   16 1    
    26   15   17 1    
    27   15   18 1    
    28   18   23 ar   
    29   18   19 ar   
    30   19   20 ar   
    31   19   43 1    
    32   20   21 ar   
    33   20   44 1    
    34   21   22 ar   
    35   21   45 1    
    36   22   23 ar   
    37   22   46 1    
    38   23   47 1    
    39   24   25 1    
    40   25   26 1    
    41   25   27 1    
    42   27   48 1    
    43   28   29 1    
    44   29   30 2    
    45   29   31 1    
    46   31   36 ar   
    47   31   32 ar   
    48   32   33 ar   
    49   32   49 1    
    50   33   34 ar   
    51   33   50 1    
    52   34   35 ar   
    53   34   51 1    
    54   35   36 ar   
    55   35   52 1    
    56   36   53 1    
@<TRIPOS>SUBSTRUCTURE
     1 UNK         1 GROUP             0       ****    0 ROOT    
