@<TRIPOS>MOLECULE
ZINC10785850_3369
61   64    1
SMALL
USER_CHARGES


@<TRIPOS>ATOM
      1 C1          2.7047   50.7128   19.6856 C.3       1 UNK         0.0000 
      2 C2          1.9278   52.0000   19.9863 C.3       1 UNK         0.0000 
      3 O3          1.7166   52.1283   21.3903 O.3       1 UNK         0.0000 
      4 C4          2.6330   52.8716   22.1000 C.2       1 UNK         0.0000 
      5 O5          3.6333   53.4571   21.6732 O.2       1 UNK         0.0000 
      6 N6          2.2329   52.8045   23.3830 N.am      1 UNK         0.0000 
      7 C7          2.6652   53.5334   24.4333 C.2       1 UNK         0.0000 
      8 O8          3.4257   54.4973   24.3322 O.2       1 UNK         0.0000 
      9 C9          2.2029   53.0668   25.7472 C.2       1 UNK         0.0000 
     10 C10         2.8490   53.4380   26.9681 C.2       1 UNK         0.0000 
     11 C11         2.2452   52.8736   28.1041 C.2       1 UNK         0.0000 
     12 S12         0.9010   51.8738   27.7057 S.3       1 UNK         0.0000 
     13 C13         1.1041   52.2055   26.0210 C.2       1 UNK         0.0000 
     14 N14         0.2345   51.4960   25.2074 N.am      1 UNK         0.0000 
     15 C15        -0.6149   52.0276   24.3067 C.2       1 UNK         0.0000 
     16 O16        -0.6787   53.2408   24.0807 O.2       1 UNK         0.0000 
     17 C17        -1.4572   51.0177   23.4743 C.3       1 UNK         0.0000 
     18 H18        -0.8067   50.1414   23.4562 H         1 UNK         0.0000 
     19 C19        -1.7612   51.5893   22.0577 C.3       1 UNK         0.0000 
     20 C20        -2.5514   50.5900   21.1898 C.3       1 UNK         0.0000 
     21 C21        -3.8243   50.0915   21.8929 C.3       1 UNK         0.0000 
     22 C22        -3.5157   49.5250   23.2847 C.3       1 UNK         0.0000 
     23 N23        -2.7065   50.4517   24.1236 N.pl3     1 UNK         0.0000 
     24 S24        -3.1856   50.5882   25.8485 S.o2      1 UNK         0.0000 
     25 O25        -4.1116   49.5011   26.1829 O.2       1 UNK         0.0000 
     26 O26        -2.0304   50.8941   26.6930 O.2       1 UNK         0.0000 
     27 C27        -4.1662   52.0964   25.8244 C.2       1 UNK         0.0000 
     28 C28        -3.8518   53.2447   25.1197 C.2       1 UNK         0.0000 
     29 C29        -4.6748   54.3145   25.4392 C.2       1 UNK         0.0000 
     30 C30        -5.6980   53.9612   26.3117 C.2       1 UNK         0.0000 
     31 S31        -5.5913   52.2955   26.7912 S.3       1 UNK         0.0000 
     32 C32         2.7509   52.9900   29.5359 C.3       1 UNK         0.0000 
     33 C33         3.7858   54.1261   29.6232 C.3       1 UNK         0.0000 
     34 C34         4.8092   54.0470   28.4841 C.3       1 UNK         0.0000 
     35 C35         4.1511   54.2436   27.1033 C.3       1 UNK         0.0000 
     36 H36         2.8131   50.5643   18.6100 H         1 UNK         0.0000 
     37 H37         2.1995   49.8358   20.0916 H         1 UNK         0.0000 
     38 H38         3.7087   50.7547   20.1104 H         1 UNK         0.0000 
     39 H39         2.4281   52.8707   19.5536 H         1 UNK         0.0000 
     40 H40         0.9503   51.9415   19.5074 H         1 UNK         0.0000 
     41 H41         1.4618   52.1849   23.5642 H         1 UNK         0.0000 
     42 H42        -0.0273   50.5808   25.5504 H         1 UNK         0.0000 
     43 H43        -2.3728   52.4920   22.1188 H         1 UNK         0.0000 
     44 H44        -0.8385   51.7596   21.5033 H         1 UNK         0.0000 
     45 H45        -2.8095   51.0444   20.2319 H         1 UNK         0.0000 
     46 H46        -1.9160   49.7338   20.9544 H         1 UNK         0.0000 
     47 H47        -4.5520   50.8968   21.9900 H         1 UNK         0.0000 
     48 H48        -4.3104   49.3263   21.2861 H         1 UNK         0.0000 
     49 H49        -4.4395   49.2645   23.8014 H         1 UNK         0.0000 
     50 H50        -2.9422   48.6028   23.1784 H         1 UNK         0.0000 
     51 H51        -3.0289   53.3342   24.4373 H         1 UNK         0.0000 
     52 H52        -4.4956   55.2967   25.0332 H         1 UNK         0.0000 
     53 H53        -6.4821   54.5857   26.7109 H         1 UNK         0.0000 
     54 H54         1.9348   53.1649   30.2372 H         1 UNK         0.0000 
     55 H55         3.2281   52.0556   29.8322 H         1 UNK         0.0000 
     56 H56         3.2808   55.0927   29.5964 H         1 UNK         0.0000 
     57 H57         4.3037   54.0806   30.5806 H         1 UNK         0.0000 
     58 H58         5.5870   54.7984   28.6255 H         1 UNK         0.0000 
     59 H59         5.3176   53.0814   28.5142 H         1 UNK         0.0000 
     60 H60         4.8737   53.9633   26.3369 H         1 UNK         0.0000 
     61 H61         3.9393   55.2963   26.9402 H         1 UNK         0.0000 
@<TRIPOS>BOND
     1    1    2 1    
     2    1   36 1    
     3    1   37 1    
     4    1   38 1    
     5    2    3 1    
     6    2   39 1    
     7    2   40 1    
     8    3    4 1    
     9    4    5 2    
    10    4    6 am   BACKBONE|DICT|INTERRES
    11    6    7 am   BACKBONE|DICT|INTERRES
    12    6   41 1    
    13    7    8 2    
    14    7    9 1    
    15    9   13 2    
    16    9   10 1    
    17   10   35 1    
    18   10   11 2    
    19   11   12 1    
    20   11   32 1    
    21   12   13 1    
    22   13   14 am   BACKBONE|DICT|INTERRES
    23   14   15 am   BACKBONE|DICT|INTERRES
    24   14   42 1    
    25   15   16 2    
    26   15   17 1    
    27   17   18 1    
    28   17   23 1    
    29   17   19 1    
    30   19   20 1    
    31   19   43 1    
    32   19   44 1    
    33   20   21 1    
    34   20   45 1    
    35   20   46 1    
    36   21   22 1    
    37   21   47 1    
    38   21   48 1    
    39   22   23 1    
    40   22   49 1    
    41   22   50 1    
    42   23   24 1    
    43   24   25 2    
    44   24   26 2    
    45   24   27 1    
    46   27   31 1    
    47   27   28 2    
    48   28   29 1    
    49   28   51 1    
    50   29   30 2    
    51   29   52 1    
    52   30   31 1    
    53   30   53 1    
    54   32   33 1    
    55   32   54 1    
    56   32   55 1    
    57   33   34 1    
    58   33   56 1    
    59   33   57 1    
    60   34   35 1    
    61   34   58 1    
    62   34   59 1    
    63   35   60 1    
    64   35   61 1    
@<TRIPOS>SUBSTRUCTURE
     1 UNK         1 GROUP             0       ****    0 ROOT    
