@<TRIPOS>MOLECULE
ZINC35642682_5444
68   71    1
SMALL
USER_CHARGES


@<TRIPOS>ATOM
      1 C1          3.5889   53.4090   21.2423 C.3       1 UNK         0.0000 
      2 C2          2.5775   53.6953   22.3556 C.3       1 UNK         0.0000 
      3 O3          1.7877   52.5373   22.5899 O.3       1 UNK         0.0000 
      4 C4          0.7617   52.5571   23.4738 C.2       1 UNK         0.0000 
      5 O5          0.4448   53.5802   24.0817 O.2       1 UNK         0.0000 
      6 C6          0.1032   51.2279   23.6426 C.2       1 UNK         0.0000 
      7 C7         -0.7516   50.8865   24.6548 C.2       1 UNK         0.0000 
      8 N8         -1.2951   49.6021   24.7319 N.am      1 UNK         0.0000 
      9 C9         -0.8768   48.5605   23.9320 C.2       1 UNK         0.0000 
     10 O10        -1.1681   47.3691   24.0469 O.2       1 UNK         0.0000 
     11 N11        -0.0372   48.8965   22.9253 N.am      1 UNK         0.0000 
     12 C12         0.2380   50.2637   22.4466 C.3       1 UNK         0.0000 
     13 H13         1.2535   50.2508   22.0411 H         1 UNK         0.0000 
     14 C14        -0.6175   50.7052   21.2470 C.ar      1 UNK         0.0000 
     15 C15        -0.0053   51.2704   20.1207 C.ar      1 UNK         0.0000 
     16 C16        -0.7770   51.7113   19.0487 C.ar      1 UNK         0.0000 
     17 C17        -2.1623   51.5802   19.0945 C.ar      1 UNK         0.0000 
     18 C18        -2.7811   51.0011   20.1979 C.ar      1 UNK         0.0000 
     19 C19        -2.0111   50.5647   21.2729 C.ar      1 UNK         0.0000 
     20 F20        -2.9147   52.0274   18.0646 F         1 UNK         0.0000 
     21 C21        -2.3586   49.2148   25.6842 C.3       1 UNK         0.0000 
     22 C22        -1.1312   51.8092   25.8390 C.3       1 UNK         0.0000 
     23 N23        -0.2894   51.5726   27.1247 N.4       1 UNK         0.0000 
     24 C24        -0.9289   52.2905   28.3312 C.3       1 UNK         0.0000 
     25 C25        -0.2846   51.9478   29.6793 C.3       1 UNK         0.0000 
     26 C26         0.9409   52.7949   30.0721 C.3       1 UNK         0.0000 
     27 N27         2.0039   52.9163   29.0517 N.am      1 UNK         0.0000 
     28 C28         2.1201   51.8188   28.0808 C.3       1 UNK         0.0000 
     29 C29         1.1827   51.9630   26.8700 C.3       1 UNK         0.0000 
     30 C30         2.7871   54.0354   29.0484 C.2       1 UNK         0.0000 
     31 O31         2.6551   54.9270   29.8862 O.2       1 UNK         0.0000 
     32 C32         3.9197   54.1779   28.0579 C.ar      1 UNK         0.0000 
     33 C33         5.2272   54.2600   28.5467 C.ar      1 UNK         0.0000 
     34 C34         6.3007   54.4300   27.6797 C.ar      1 UNK         0.0000 
     35 C35         6.0669   54.5483   26.3141 C.ar      1 UNK         0.0000 
     36 C36         4.7691   54.4988   25.8132 C.ar      1 UNK         0.0000 
     37 C37         3.6939   54.3231   26.6834 C.ar      1 UNK         0.0000 
     38 F38         7.1044   54.7391   25.4695 F         1 UNK         0.0000 
     39 H39         4.2049   54.2865   21.0413 H         1 UNK         0.0000 
     40 H40         4.2542   52.5872   21.5115 H         1 UNK         0.0000 
     41 H41         3.0848   53.1410   20.3137 H         1 UNK         0.0000 
     42 H42         1.9368   54.5338   22.0821 H         1 UNK         0.0000 
     43 H43         3.0988   53.9740   23.2719 H         1 UNK         0.0000 
     44 H44         0.1245   48.1511   22.2662 H         1 UNK         0.0000 
     45 H45         1.0686   51.3908   20.0772 H         1 UNK         0.0000 
     46 H46        -0.3024   52.1582   18.1866 H         1 UNK         0.0000 
     47 H47        -3.8555   50.8937   20.2197 H         1 UNK         0.0000 
     48 H48        -2.5055   50.1296   22.1288 H         1 UNK         0.0000 
     49 H49        -2.5599   48.1453   25.7585 H         1 UNK         0.0000 
     50 H50        -2.1015   49.5283   26.6934 H         1 UNK         0.0000 
     51 H51        -3.2968   49.6988   25.4126 H         1 UNK         0.0000 
     52 H52        -2.1706   51.6379   26.1175 H         1 UNK         0.0000 
     53 H53        -1.0896   52.8763   25.6407 H         1 UNK         0.0000 
     54 H54        -1.9618   51.9354   28.3344 H         1 UNK         0.0000 
     55 H55        -0.8925   53.3567   28.1025 H         1 UNK         0.0000 
     56 H56        -0.0216   50.8966   29.6810 H         1 UNK         0.0000 
     57 H57        -1.0277   52.0356   30.4744 H         1 UNK         0.0000 
     58 H58         1.3783   52.3174   30.9505 H         1 UNK         0.0000 
     59 H59         0.5815   53.7843   30.3651 H         1 UNK         0.0000 
     60 H60         3.1409   51.8131   27.7005 H         1 UNK         0.0000 
     61 H61         2.0268   50.8430   28.5580 H         1 UNK         0.0000 
     62 H62         1.1478   52.9825   26.4928 H         1 UNK         0.0000 
     63 H63         1.5043   51.3174   26.0569 H         1 UNK         0.0000 
     64 H64         5.4140   54.2166   29.6081 H         1 UNK         0.0000 
     65 H65         7.3056   54.4954   28.0714 H         1 UNK         0.0000 
     66 H66         4.6025   54.6158   24.7527 H         1 UNK         0.0000 
     67 H67         2.6983   54.3472   26.2731 H         1 UNK         0.0000 
     68 H68        -0.3234   50.5786   27.3262 H         1 UNK         0.0000 
@<TRIPOS>BOND
     1    1    2 1    
     2    1   39 1    
     3    1   40 1    
     4    1   41 1    
     5    2    3 1    
     6    2   42 1    
     7    2   43 1    
     8    3    4 1    
     9    4    5 2    
    10    4    6 1    
    11    6   12 1    
    12    6    7 2    
    13    7    8 1    
    14    7   22 1    
    15    8    9 am   BACKBONE|DICT|INTERRES
    16    8   21 1    
    17    9   10 2    
    18    9   11 am   BACKBONE|DICT|INTERRES
    19   11   12 1    
    20   11   44 1    
    21   12   13 1    
    22   12   14 1    
    23   14   19 ar   
    24   14   15 ar   
    25   15   16 ar   
    26   15   45 1    
    27   16   17 ar   
    28   16   46 1    
    29   17   18 ar   
    30   17   20 1    
    31   18   19 ar   
    32   18   47 1    
    33   19   48 1    
    34   21   49 1    
    35   21   50 1    
    36   21   51 1    
    37   22   23 1    
    38   22   52 1    
    39   22   53 1    
    40   23   29 1    
    41   23   24 1    
    42   23   68 1    
    43   24   25 1    
    44   24   54 1    
    45   24   55 1    
    46   25   26 1    
    47   25   56 1    
    48   25   57 1    
    49   26   27 1    
    50   26   58 1    
    51   26   59 1    
    52   27   28 1    
    53   27   30 am   BACKBONE|DICT|INTERRES
    54   28   29 1    
    55   28   60 1    
    56   28   61 1    
    57   29   62 1    
    58   29   63 1    
    59   30   31 2    
    60   30   32 1    
    61   32   37 ar   
    62   32   33 ar   
    63   33   34 ar   
    64   33   64 1    
    65   34   35 ar   
    66   34   65 1    
    67   35   36 ar   
    68   35   38 1    
    69   36   37 ar   
    70   36   66 1    
    71   37   67 1    
@<TRIPOS>SUBSTRUCTURE
     1 UNK         1 GROUP             0       ****    0 ROOT    
