@<TRIPOS>MOLECULE
ZINC39665178_2204
72   75    1
SMALL
USER_CHARGES


@<TRIPOS>ATOM
      1 C1          6.9737   55.2969   27.0253 C.3       1 UNK         0.0000 
      2 C2          6.4642   53.8820   26.7471 C.3       1 UNK         0.0000 
      3 H3          7.2520   53.2756   26.3028 H         1 UNK         0.0000 
      4 C4          6.0553   53.2193   28.0825 C.3       1 UNK         0.0000 
      5 N5          4.6842   53.5769   28.4253 N.am      1 UNK         0.0000 
      6 C6          3.7748   52.7011   28.8560 C.2       1 UNK         0.0000 
      7 O7          4.0633   51.6969   29.5119 O.2       1 UNK         0.0000 
      8 C8          2.3429   52.9486   28.3257 C.3       1 UNK         0.0000 
      9 H9          2.3686   53.7610   27.5949 H         1 UNK         0.0000 
     10 C10         1.9005   51.7022   27.5577 C.3       1 UNK         0.0000 
     11 N11         0.4362   51.7478   27.5936 N.am      1 UNK         0.0000 
     12 C12        -0.0195   52.7105   28.5945 C.3       1 UNK         0.0000 
     13 C13         1.2495   53.1756   29.3673 C.3       1 UNK         0.0000 
     14 C14         1.4551   52.3516   30.6727 C.3       1 UNK         0.0000 
     15 C15         0.3064   52.5356   31.6650 C.3       1 UNK         0.0000 
     16 N16         0.1157   54.0460   31.9335 N.4       1 UNK         0.0000 
     17 C17         0.0017   54.8962   30.6479 C.3       1 UNK         0.0000 
     18 C18         1.2339   54.6487   29.7966 C.3       1 UNK         0.0000 
     19 C19        -0.2960   51.1803   26.5880 C.2       1 UNK         0.0000 
     20 O20         0.3017   50.6410   25.6503 O.2       1 UNK         0.0000 
     21 C21        -1.8762   51.2111   26.5219 C.3       1 UNK         0.0000 
     22 C22        -2.3284   52.5457   25.8540 C.3       1 UNK         0.0000 
     23 C23        -3.8406   52.5952   25.5436 C.3       1 UNK         0.0000 
     24 C24        -4.2840   51.4143   24.6625 C.3       1 UNK         0.0000 
     25 C25        -3.8728   50.0590   25.2668 C.3       1 UNK         0.0000 
     26 C26        -2.3679   50.0154   25.6230 C.3       1 UNK         0.0000 
     27 C27        -2.4994   51.0458   27.9441 C.3       1 UNK         0.0000 
     28 O28         5.3264   53.9007   25.8682 O.3       1 UNK         0.0000 
     29 C29         5.4471   54.1412   24.5128 C.ar      1 UNK         0.0000 
     30 C30         6.6525   54.4362   23.8628 C.ar      1 UNK         0.0000 
     31 C31         6.6763   54.6489   22.4873 C.ar      1 UNK         0.0000 
     32 C32         5.5028   54.5144   21.7482 C.ar      1 UNK         0.0000 
     33 C33         4.2982   54.2185   22.3806 C.ar      1 UNK         0.0000 
     34 C34         4.2710   54.0589   23.7638 C.ar      1 UNK         0.0000 
     35 H35         7.9043   55.2392   27.5831 H         1 UNK         0.0000 
     36 H36         7.1044   55.8959   26.1256 H         1 UNK         0.0000 
     37 H37         6.3013   55.8394   27.6813 H         1 UNK         0.0000 
     38 H38         6.1637   52.1384   28.0039 H         1 UNK         0.0000 
     39 H39         6.7298   53.5139   28.8872 H         1 UNK         0.0000 
     40 H40         4.3538   54.4187   27.9760 H         1 UNK         0.0000 
     41 H41         2.2929   51.8209   26.5511 H         1 UNK         0.0000 
     42 H42         2.2075   50.7956   28.0825 H         1 UNK         0.0000 
     43 H43        -0.8402   52.4065   29.2346 H         1 UNK         0.0000 
     44 H44        -0.3748   53.5690   28.0238 H         1 UNK         0.0000 
     45 H45         1.5055   51.2972   30.4024 H         1 UNK         0.0000 
     46 H46         2.3942   52.5767   31.1775 H         1 UNK         0.0000 
     47 H47        -0.6373   52.1509   31.2815 H         1 UNK         0.0000 
     48 H48         0.5191   52.0719   32.6294 H         1 UNK         0.0000 
     49 H49        -0.7043   54.1580   32.5152 H         1 UNK         0.0000 
     50 H50        -0.8956   54.5483   30.1426 H         1 UNK         0.0000 
     51 H51        -0.0715   55.9532   30.8817 H         1 UNK         0.0000 
     52 H52         2.1574   54.9612   30.2843 H         1 UNK         0.0000 
     53 H53         1.1457   55.2853   28.9140 H         1 UNK         0.0000 
     54 H54        -2.0844   53.3972   26.4845 H         1 UNK         0.0000 
     55 H55        -1.8042   52.6828   24.9050 H         1 UNK         0.0000 
     56 H56        -4.4094   52.5900   26.4745 H         1 UNK         0.0000 
     57 H57        -4.0857   53.5351   25.0467 H         1 UNK         0.0000 
     58 H58        -5.3642   51.4418   24.5149 H         1 UNK         0.0000 
     59 H59        -3.8393   51.5175   23.6719 H         1 UNK         0.0000 
     60 H60        -4.4836   49.8486   26.1441 H         1 UNK         0.0000 
     61 H61        -4.1012   49.2598   24.5598 H         1 UNK         0.0000 
     62 H62        -1.8620   50.0395   24.6556 H         1 UNK         0.0000 
     63 H63        -2.1214   49.0550   26.0809 H         1 UNK         0.0000 
     64 H64        -3.4375   50.4944   27.9375 H         1 UNK         0.0000 
     65 H65        -1.8574   50.4977   28.6324 H         1 UNK         0.0000 
     66 H66        -2.7368   52.0051   28.3967 H         1 UNK         0.0000 
     67 H67         7.5770   54.5019   24.4104 H         1 UNK         0.0000 
     68 H68         7.6069   54.8961   21.9961 H         1 UNK         0.0000 
     69 H69         5.5232   54.6547   20.6766 H         1 UNK         0.0000 
     70 H70         3.3885   54.1314   21.8023 H         1 UNK         0.0000 
     71 H71         3.3380   53.8303   24.2577 H         1 UNK         0.0000 
     72 H72         0.8951   54.3843   32.4785 H         1 UNK         0.0000 
@<TRIPOS>BOND
     1    1    2 1    
     2    1   35 1    
     3    1   36 1    
     4    1   37 1    
     5    2    3 1    
     6    2    4 1    
     7    2   28 1    
     8    4    5 1    
     9    4   38 1    
    10    4   39 1    
    11    5    6 am   BACKBONE|DICT|INTERRES
    12    5   40 1    
    13    6    7 2    
    14    6    8 1    
    15    8    9 1    
    16    8   13 1    
    17    8   10 1    
    18   10   11 1    
    19   10   41 1    
    20   10   42 1    
    21   11   12 1    
    22   11   19 am   BACKBONE|DICT|INTERRES
    23   12   13 1    
    24   12   43 1    
    25   12   44 1    
    26   13   18 1    
    27   13   14 1    
    28   14   15 1    
    29   14   45 1    
    30   14   46 1    
    31   15   16 1    
    32   15   47 1    
    33   15   48 1    
    34   16   17 1    
    35   16   49 1    
    36   16   72 1    
    37   17   18 1    
    38   17   50 1    
    39   17   51 1    
    40   18   52 1    
    41   18   53 1    
    42   19   20 2    
    43   19   21 1    
    44   21   26 1    
    45   21   22 1    
    46   21   27 1    
    47   22   23 1    
    48   22   54 1    
    49   22   55 1    
    50   23   24 1    
    51   23   56 1    
    52   23   57 1    
    53   24   25 1    
    54   24   58 1    
    55   24   59 1    
    56   25   26 1    
    57   25   60 1    
    58   25   61 1    
    59   26   62 1    
    60   26   63 1    
    61   27   64 1    
    62   27   65 1    
    63   27   66 1    
    64   28   29 1    
    65   29   34 ar   
    66   29   30 ar   
    67   30   31 ar   
    68   30   67 1    
    69   31   32 ar   
    70   31   68 1    
    71   32   33 ar   
    72   32   69 1    
    73   33   34 ar   
    74   33   70 1    
    75   34   71 1    
@<TRIPOS>SUBSTRUCTURE
     1 UNK         1 GROUP             0       ****    0 ROOT    
