ZINC11363177_2445
                    3D
 Schrodinger Suite 2024-2.
 55 58  0  0  1  0            999 V2000
    7.1040   55.6329   24.9943 C   0  0  0  0  0  0
    6.0233   54.9452   25.7915 C   0  0  0  0  0  0
    5.0650   54.2003   25.1267 C   0  0  0  0  0  0
    4.0481   53.5949   25.8546 C   0  0  0  0  0  0
    3.8865   53.7703   27.2357 C   0  0  0  0  0  0
    4.9067   54.4958   27.8890 C   0  0  0  0  0  0
    5.9731   55.0383   27.1733 C   0  0  0  0  0  0
    2.7676   53.1661   27.9227 N   0  0  0  0  0  0
    1.8934   52.0874   27.3559 C   0  0  1  0  0  0
    2.6159   51.2944   27.2854 H   0  0  0  0  0  0
    0.9315   51.6360   28.4596 C   0  0  1  0  0  0
    0.8284   50.5572   28.5011 H   0  0  0  0  0  0
    1.5759   52.2005   29.7153 C   0  0  0  0  0  0
    2.5422   53.2946   29.2747 C   0  0  0  0  0  0
    3.0219   54.0960   30.0807 O   0  0  0  0  0  0
   -0.4469   52.2499   28.2201 C   0  0  0  0  0  0
   -0.4933   53.4770   28.1900 O   0  0  0  0  0  0
   -1.4466   51.3953   27.8881 N   0  0  0  0  0  0
   -2.6097   51.7008   27.1679 C   0  0  0  0  0  0
   -2.6139   52.6432   26.1280 C   0  0  0  0  0  0
   -3.7686   52.8529   25.3866 C   0  0  0  0  0  0
   -4.9238   52.1233   25.6708 C   0  0  0  0  0  0
   -4.9112   51.1615   26.6850 C   0  0  0  0  0  0
   -3.7520   50.9470   27.4277 C   0  0  0  0  0  0
   -6.0563   52.3408   24.8771 N   0  0  0  0  0  0
   -7.6539   52.5443   25.5989 S   0  0  0  0  0  0
   -7.5620   53.7084   26.4886 O   0  0  0  0  0  0
   -8.0836   51.2360   26.1048 O   0  0  0  0  0  0
   -8.6922   52.9975   24.1025 C   0  0  0  0  0  0
    1.2534   52.1912   25.9305 C   0  0  0  0  0  0
    1.1416   53.2836   25.0765 C   0  0  0  0  0  0
    0.7043   52.9833   23.7842 C   0  0  0  0  0  0
    0.3012   51.6704   23.6501 C   0  0  0  0  0  0
    0.5450   50.7999   25.1248 S   0  0  0  0  0  0
    6.7296   55.9783   24.0300 H   0  0  0  0  0  0
    7.5044   56.4964   25.5136 H   0  0  0  0  0  0
    7.9045   54.9140   24.8274 H   0  0  0  0  0  0
    5.1335   54.0405   24.0667 H   0  0  0  0  0  0
    3.4717   52.9001   25.2838 H   0  0  0  0  0  0
    4.9299   54.6501   28.9547 H   0  0  0  0  0  0
    6.7537   55.5779   27.6851 H   0  0  0  0  0  0
    0.8616   52.6670   30.3986 H   0  0  0  0  0  0
    2.0762   51.4200   30.2848 H   0  0  0  0  0  0
   -1.3222   50.4023   28.0800 H   0  0  0  0  0  0
   -1.7194   53.1892   25.8786 H   0  0  0  0  0  0
   -3.7557   53.5713   24.5767 H   0  0  0  0  0  0
   -5.7862   50.5592   26.8825 H   0  0  0  0  0  0
   -3.7381   50.1745   28.1897 H   0  0  0  0  0  0
   -5.9056   52.9660   24.1003 H   0  0  0  0  0  0
   -9.7324   53.0607   24.4142 H   0  0  0  0  0  0
   -8.5702   52.2229   23.3455 H   0  0  0  0  0  0
   -8.3491   53.9569   23.7166 H   0  0  0  0  0  0
    1.4855   54.2610   25.3639 H   0  0  0  0  0  0
    0.6982   53.7047   22.9839 H   0  0  0  0  0  0
   -0.0922   51.1734   22.7752 H   0  0  0  0  0  0
  1  2  1  0  0  0
  1 35  1  0  0  0
  1 36  1  0  0  0
  1 37  1  0  0  0
  2  7  2  0  0  0
  2  3  1  0  0  0
  3  4  2  0  0  0
  3 38  1  0  0  0
  4  5  1  0  0  0
  4 39  1  0  0  0
  5  6  2  0  0  0
  5  8  1  0  0  0
  6  7  1  0  0  0
  6 40  1  0  0  0
  7 41  1  0  0  0
  8 14  1  0  0  0
  8  9  1  0  0  0
  9 10  1  0  0  0
  9 11  1  0  0  0
  9 30  1  0  0  0
 11 12  1  0  0  0
 11 13  1  0  0  0
 11 16  1  0  0  0
 13 14  1  0  0  0
 13 42  1  0  0  0
 13 43  1  0  0  0
 14 15  2  0  0  0
 16 17  2  0  0  0
 16 18  1  0  0  0
 18 19  1  0  0  0
 18 44  1  0  0  0
 19 24  2  0  0  0
 19 20  1  0  0  0
 20 21  2  0  0  0
 20 45  1  0  0  0
 21 22  1  0  0  0
 21 46  1  0  0  0
 22 23  2  0  0  0
 22 25  1  0  0  0
 23 24  1  0  0  0
 23 47  1  0  0  0
 24 48  1  0  0  0
 25 26  1  0  0  0
 25 49  1  0  0  0
 26 27  2  0  0  0
 26 28  2  0  0  0
 26 29  1  0  0  0
 29 50  1  0  0  0
 29 51  1  0  0  0
 29 52  1  0  0  0
 30 34  1  0  0  0
 30 31  2  0  0  0
 31 32  1  0  0  0
 31 53  1  0  0  0
 32 33  2  0  0  0
 32 54  1  0  0  0
 33 34  1  0  0  0
 33 55  1  0  0  0
M  END
> <i_i_glide_confnum>
35

> <i_i_glide_lignum>
2446

> <i_i_glide_posenum>
121

> <i_i_glide_rotatable_bonds>
7

> <i_m_Source_File_Index>
3403

> <b_m_subgroup_collapsed>
0

> <r_i_docking_score>
-5.4646

> <r_i_glide_ecoul>
-6.90277

> <r_i_glide_eff_state_penalty>
0

> <r_i_glide_einternal>
25.8621

> <r_i_glide_emodel>
-34.7042

> <r_i_glide_energy>
-34.3513

> <r_i_glide_erotb>
0.549611

> <r_i_glide_esite>
-0.115534

> <r_i_glide_evdw>
-27.4485

> <r_i_glide_gscore>
-5.4646

> <r_i_glide_hbond>
-0.449086

> <r_i_glide_ligand_efficiency>
-0.170769

> <r_i_glide_ligand_efficiency_ln>
-1.22367

> <r_i_glide_ligand_efficiency_sa>
-0.542157

> <r_i_glide_lipo>
-2.38152

> <r_i_glide_metal>
0

> <r_i_glide_rewards>
-0.660236

> <s_i_glide_gridfile>
wee1_glide-grid

> <s_m_Source_File>
wee1_decoys_glide_SP.sdf

> <s_m_Source_Path>
/Users/zhangxujun/Desktop

> <s_m_entry_id>
3678

> <s_m_entry_name>
wee1_decoys_glide_SP.3403

> <s_m_subgroup_title>
wee1_decoys_glide_SP

> <s_m_subgroupid>
wee1_decoys_glide_SP


$$$$
