@<TRIPOS>MOLECULE
ZINC02677911_1043
54   57    1
SMALL
USER_CHARGES


@<TRIPOS>ATOM
      1 C1          3.4588   54.3463   26.3049 C.ar      1 UNK         0.0000 
      2 C2          2.6431   54.3812   27.4315 C.ar      1 UNK         0.0000 
      3 C3          3.2141   54.4647   28.6979 C.ar      1 UNK         0.0000 
      4 C4          4.5993   54.4952   28.8494 C.ar      1 UNK         0.0000 
      5 C5          5.4186   54.4409   27.7242 C.ar      1 UNK         0.0000 
      6 C6          4.8452   54.3749   26.4502 C.ar      1 UNK         0.0000 
      7 C7          5.7055   54.2967   25.2468 C.2       1 UNK         0.0000 
      8 C8          6.9215   53.6967   25.0074 C.2       1 UNK         0.0000 
      9 C9          7.2003   53.8714   23.6548 C.2       1 UNK         0.0000 
     10 C10         6.1981   54.6680   23.1333 C.2       1 UNK         0.0000 
     11 O11         5.2722   54.8929   24.1049 O.3       1 UNK         0.0000 
     12 C12         6.0174   55.2953   21.8370 C.2       1 UNK         0.0000 
     13 C13         5.5801   54.7740   20.6565 C.2       1 UNK         0.0000 
     14 C14         5.0945   53.4129   20.5556 C.2       1 UNK         0.0000 
     15 O15         5.5020   52.6513   19.6830 O.2       1 UNK         0.0000 
     16 N16         4.1263   53.0783   21.4282 N.am      1 UNK         0.0000 
     17 C17         3.4562   51.7802   21.5045 C.3       1 UNK         0.0000 
     18 H18         4.1434   51.0054   21.8469 H         1 UNK         0.0000 
     19 C19         2.3042   51.8897   22.5284 C.3       1 UNK         0.0000 
     20 C20         1.4839   50.5962   22.4853 C.3       1 UNK         0.0000 
     21 S21         1.3971   50.1756   20.6637 S.o2      1 UNK         0.0000 
     22 O22         1.7882   48.7748   20.4932 O.2       1 UNK         0.0000 
     23 O23         0.1456   50.6855   20.0967 O.2       1 UNK         0.0000 
     24 C24         2.8031   51.3226   20.1823 C.3       1 UNK         0.0000 
     25 N25         5.5538   55.4130   19.4400 N.am      1 UNK         0.0000 
     26 C26         6.1252   56.5767   19.0617 C.2       1 UNK         0.0000 
     27 O27         6.7876   57.2976   19.8088 O.2       1 UNK         0.0000 
     28 C28         5.8835   56.9858   17.6266 C.ar      1 UNK         0.0000 
     29 C29         5.5975   56.0379   16.6292 C.ar      1 UNK         0.0000 
     30 C30         5.3862   56.4407   15.3136 C.ar      1 UNK         0.0000 
     31 C31         5.4601   57.7916   14.9806 C.ar      1 UNK         0.0000 
     32 C32         5.7462   58.7426   15.9567 C.ar      1 UNK         0.0000 
     33 C33         5.9605   58.3401   17.2715 C.ar      1 UNK         0.0000 
     34 Cl34        5.2002   58.2876   13.3480 Cl        1 UNK         0.0000 
     35 Cl35        2.1896   54.5296   30.0818 Cl        1 UNK         0.0000 
     36 H36         3.0105   54.2804   25.3235 H         1 UNK         0.0000 
     37 H37         1.5682   54.3518   27.3212 H         1 UNK         0.0000 
     38 H38         5.0398   54.5653   29.8327 H         1 UNK         0.0000 
     39 H39         6.4930   54.4630   27.8492 H         1 UNK         0.0000 
     40 H40         7.4953   53.1339   25.7271 H         1 UNK         0.0000 
     41 H41         8.0679   53.5094   23.1266 H         1 UNK         0.0000 
     42 H42         6.3191   56.3279   21.8843 H         1 UNK         0.0000 
     43 H43         3.8771   53.7591   22.1296 H         1 UNK         0.0000 
     44 H44         2.6820   52.0944   23.5314 H         1 UNK         0.0000 
     45 H45         1.6696   52.7445   22.2838 H         1 UNK         0.0000 
     46 H46         2.0660   49.8075   22.9637 H         1 UNK         0.0000 
     47 H47         0.4924   50.5946   22.9332 H         1 UNK         0.0000 
     48 H48         2.2853   52.1916   19.7765 H         1 UNK         0.0000 
     49 H49         3.4306   50.9336   19.3792 H         1 UNK         0.0000 
     50 H50         5.0450   54.9153   18.7237 H         1 UNK         0.0000 
     51 H51         5.5455   54.9795   16.8493 H         1 UNK         0.0000 
     52 H52         5.1672   55.7057   14.5514 H         1 UNK         0.0000 
     53 H53         5.7958   59.7948   15.7054 H         1 UNK         0.0000 
     54 H54         6.1794   59.1024   18.0106 H         1 UNK         0.0000 
@<TRIPOS>BOND
     1    1    6 ar   
     2    1    2 ar   
     3    1   36 1    
     4    2    3 ar   
     5    2   37 1    
     6    3    4 ar   
     7    3   35 1    
     8    4    5 ar   
     9    4   38 1    
    10    5    6 ar   
    11    5   39 1    
    12    6    7 1    
    13    7   11 1    
    14    7    8 2    
    15    8    9 1    
    16    8   40 1    
    17    9   10 2    
    18    9   41 1    
    19   10   11 1    
    20   10   12 1    
    21   12   13 2    
    22   12   42 1    
    23   13   14 1    
    24   13   25 1    
    25   14   15 2    
    26   14   16 am   BACKBONE|DICT|INTERRES
    27   16   17 1    
    28   16   43 1    
    29   17   18 1    
    30   17   24 1    
    31   17   19 1    
    32   19   20 1    
    33   19   44 1    
    34   19   45 1    
    35   20   21 1    
    36   20   46 1    
    37   20   47 1    
    38   21   22 2    
    39   21   23 2    
    40   21   24 1    
    41   24   48 1    
    42   24   49 1    
    43   25   26 am   BACKBONE|DICT|INTERRES
    44   25   50 1    
    45   26   27 2    
    46   26   28 1    
    47   28   33 ar   
    48   28   29 ar   
    49   29   30 ar   
    50   29   51 1    
    51   30   31 ar   
    52   30   52 1    
    53   31   32 ar   
    54   31   34 1    
    55   32   33 ar   
    56   32   53 1    
    57   33   54 1    
@<TRIPOS>SUBSTRUCTURE
     1 UNK         1 GROUP             0       ****    0 ROOT    
