@<TRIPOS>MOLECULE
ZINC45166286_3834
42   44    1
SMALL
USER_CHARGES


@<TRIPOS>ATOM
      1 C1          2.2007   49.3697   21.7552 C.ar      1 UNK         0.0000 
      2 C2          2.7014   50.5592   21.2489 C.ar      1 UNK         0.0000 
      3 C3          2.3925   51.7732   21.8610 C.ar      1 UNK         0.0000 
      4 C4          1.5929   51.8197   23.0280 C.ar      1 UNK         0.0000 
      5 C5          1.0939   50.5968   23.5264 C.ar      1 UNK         0.0000 
      6 C6          1.3914   49.3980   22.8818 C.ar      1 UNK         0.0000 
      7 Cl7         0.0760   50.4726   24.9176 Cl        1 UNK         0.0000 
      8 S8          1.1143   53.3953   23.8218 S.o2      1 UNK         0.0000 
      9 O9          1.5845   54.4965   22.9783 O.2       1 UNK         0.0000 
     10 O10        -0.3265   53.2971   24.0814 O.2       1 UNK         0.0000 
     11 N11         1.9563   53.5412   25.4031 N.pl3     1 UNK         0.0000 
     12 C12         1.3271   52.8972   26.5828 C.3       1 UNK         0.0000 
     13 C13         1.6168   53.7084   27.8570 C.3       1 UNK         0.0000 
     14 C14         3.1287   53.9203   28.0579 C.3       1 UNK         0.0000 
     15 C15         3.8411   54.4781   26.8003 C.3       1 UNK         0.0000 
     16 H16         3.4930   55.4938   26.6246 H         1 UNK         0.0000 
     17 C17         3.4477   53.6967   25.5160 C.3       1 UNK         0.0000 
     18 H18         3.8235   52.6925   25.6669 H         1 UNK         0.0000 
     19 C19         4.1927   54.2709   24.2884 C.3       1 UNK         0.0000 
     20 C20         5.7221   54.3123   24.4728 C.3       1 UNK         0.0000 
     21 C21         6.1249   55.0397   25.7651 C.3       1 UNK         0.0000 
     22 C22         5.3785   54.4841   26.9903 C.3       1 UNK         0.0000 
     23 N23         2.8995   52.8984   21.2265 N.pl3     1 UNK         0.0000 
     24 H24         2.4386   48.4347   21.2716 H         1 UNK         0.0000 
     25 H25         3.3163   50.5303   20.3601 H         1 UNK         0.0000 
     26 H26         1.0022   48.4772   23.2835 H         1 UNK         0.0000 
     27 H27         0.2530   52.7948   26.4286 H         1 UNK         0.0000 
     28 H28         1.7635   51.9066   26.7081 H         1 UNK         0.0000 
     29 H29         1.1129   54.6748   27.7954 H         1 UNK         0.0000 
     30 H30         1.1906   53.1995   28.7220 H         1 UNK         0.0000 
     31 H31         3.3405   54.5430   28.9287 H         1 UNK         0.0000 
     32 H32         3.5606   52.9459   28.2938 H         1 UNK         0.0000 
     33 H33         3.9860   53.6687   23.4111 H         1 UNK         0.0000 
     34 H34         3.8211   55.2730   24.0756 H         1 UNK         0.0000 
     35 H35         6.1151   53.2969   24.4946 H         1 UNK         0.0000 
     36 H36         6.1862   54.7968   23.6130 H         1 UNK         0.0000 
     37 H37         7.2008   54.9560   25.9152 H         1 UNK         0.0000 
     38 H38         5.9081   56.1010   25.6634 H         1 UNK         0.0000 
     39 H39         5.6415   55.0522   27.8844 H         1 UNK         0.0000 
     40 H40         5.7228   53.4680   27.1967 H         1 UNK         0.0000 
     41 H41         2.4680   53.7887   21.4582 H         1 UNK         0.0000 
     42 H42         3.3296   52.7776   20.3181 H         1 UNK         0.0000 
@<TRIPOS>BOND
     1    1    6 ar   
     2    1    2 ar   
     3    1   24 1    
     4    2    3 ar   
     5    2   25 1    
     6    3    4 ar   
     7    3   23 1    
     8    4    5 ar   
     9    4    8 1    
    10    5    6 ar   
    11    5    7 1    
    12    6   26 1    
    13    8    9 2    
    14    8   10 2    
    15    8   11 1    
    16   11   17 1    
    17   11   12 1    
    18   12   13 1    
    19   12   27 1    
    20   12   28 1    
    21   13   14 1    
    22   13   29 1    
    23   13   30 1    
    24   14   15 1    
    25   14   31 1    
    26   14   32 1    
    27   15   16 1    
    28   15   22 1    
    29   15   17 1    
    30   17   18 1    
    31   17   19 1    
    32   19   20 1    
    33   19   33 1    
    34   19   34 1    
    35   20   21 1    
    36   20   35 1    
    37   20   36 1    
    38   21   22 1    
    39   21   37 1    
    40   21   38 1    
    41   22   39 1    
    42   22   40 1    
    43   23   41 1    
    44   23   42 1    
@<TRIPOS>SUBSTRUCTURE
     1 UNK         1 GROUP             0       ****    0 ROOT    
