ZINC39665044_3066
                    3D
 Schrodinger Suite 2024-2.
 66 69  0  0  1  0            999 V2000
    0.8880   51.3591   17.0023 C   0  0  0  0  0  0
    0.5889   51.9577   18.3915 C   0  0  2  0  0  0
    1.3036   52.7517   18.6095 H   0  0  0  0  0  0
    0.7369   50.9066   19.5138 C   0  0  0  0  0  0
    0.8614   51.4914   20.8521 N   0  0  0  0  0  0
   -0.1299   51.6903   21.7413 C   0  0  0  0  0  0
   -1.3023   51.4212   21.4868 O   0  0  0  0  0  0
    0.1932   52.3595   23.1081 C   0  0  2  0  0  0
   -0.4090   53.2685   23.1438 H   0  0  0  0  0  0
    1.6613   52.8265   23.1838 C   0  0  0  0  0  0
    1.9301   52.9221   24.6190 N   0  0  0  0  0  0
    0.8204   52.3330   25.3824 C   0  0  0  0  0  0
   -0.0139   51.5028   24.3759 C   0  0  0  0  0  0
    0.5239   50.0419   24.2458 C   0  0  0  0  0  0
    0.4465   49.2686   25.5825 C   0  0  0  0  0  0
   -1.0173   49.2969   26.0817 N   0  3  0  0  0  0
   -1.6599   50.6988   26.1457 C   0  0  0  0  0  0
   -1.5052   51.3597   24.7643 C   0  0  0  0  0  0
    2.8659   53.7057   25.2336 C   0  0  0  0  0  0
    2.6641   54.0960   26.3847 O   0  0  0  0  0  0
    4.2222   54.0228   24.5831 C   0  0  0  0  0  0
    4.3401   54.2062   23.1878 C   0  0  0  0  0  0
    5.5486   54.4964   22.5692 C   0  0  0  0  0  0
    6.6889   54.6538   23.3317 C   0  0  0  0  0  0
    6.6187   54.4963   24.7078 C   0  0  0  0  0  0
    5.4180   54.1683   25.3601 C   0  0  0  0  0  0
    5.5465   53.8826   26.8788 C   0  0  0  0  0  0
    5.2696   54.9645   27.5908 F   0  0  0  0  0  0
    4.7705   52.8967   27.3050 F   0  0  0  0  0  0
    6.7797   53.4783   27.1946 F   0  0  0  0  0  0
   -0.7487   52.4689   18.4290 O   0  0  0  0  0  0
   -1.0956   53.5789   17.6816 C   0  0  0  0  0  0
   -2.4462   53.7157   17.3598 C   0  0  0  0  0  0
   -2.8905   54.8135   16.6274 C   0  0  0  0  0  0
   -1.9828   55.7943   16.2373 C   0  0  0  0  0  0
   -0.6339   55.6789   16.5620 C   0  0  0  0  0  0
   -0.1889   54.5714   17.2789 C   0  0  0  0  0  0
    1.8922   50.9335   16.9613 H   0  0  0  0  0  0
    0.1808   50.5676   16.7531 H   0  0  0  0  0  0
    0.8283   52.1125   16.2173 H   0  0  0  0  0  0
   -0.0914   50.1959   19.4718 H   0  0  0  0  0  0
    1.6412   50.3198   19.3429 H   0  0  0  0  0  0
    1.7941   51.7719   21.1104 H   0  0  0  0  0  0
    2.3260   52.0568   22.7888 H   0  0  0  0  0  0
    1.6659   53.7802   22.6562 H   0  0  0  0  0  0
    0.2086   53.1693   25.7190 H   0  0  0  0  0  0
    1.1044   51.8200   26.3009 H   0  0  0  0  0  0
    0.0080   49.4916   23.4572 H   0  0  0  0  0  0
    1.5717   50.0573   23.9409 H   0  0  0  0  0  0
    0.7050   48.2147   25.4651 H   0  0  0  0  0  0
    1.0656   49.6822   26.3794 H   0  0  0  0  0  0
   -1.5786   48.7078   25.4846 H   0  0  0  0  0  0
   -2.7028   50.5387   26.4243 H   0  0  0  0  0  0
   -1.1588   51.2349   26.9533 H   0  0  0  0  0  0
   -1.9580   52.3505   24.8275 H   0  0  0  0  0  0
   -2.0740   50.8333   23.9958 H   0  0  0  0  0  0
    3.5196   54.1891   22.5040 H   0  0  0  0  0  0
    5.5903   54.6335   21.4979 H   0  0  0  0  0  0
    7.6216   54.9022   22.8506 H   0  0  0  0  0  0
    7.5300   54.6198   25.2685 H   0  0  0  0  0  0
   -3.1488   52.9567   17.6706 H   0  0  0  0  0  0
   -3.9358   54.9078   16.3711 H   0  0  0  0  0  0
   -2.3259   56.6503   15.6747 H   0  0  0  0  0  0
    0.0655   56.4448   16.2597 H   0  0  0  0  0  0
    0.8587   54.5149   17.5280 H   0  0  0  0  0  0
   -1.0954   48.8744   27.0237 H   0  0  0  0  0  0
  1  2  1  0  0  0
  1 38  1  0  0  0
  1 39  1  0  0  0
  1 40  1  0  0  0
  2  3  1  0  0  0
  2  4  1  0  0  0
  2 31  1  0  0  0
  4  5  1  0  0  0
  4 41  1  0  0  0
  4 42  1  0  0  0
  5  6  1  0  0  0
  5 43  1  0  0  0
  6  7  2  0  0  0
  6  8  1  0  0  0
  8  9  1  0  0  0
  8 13  1  0  0  0
  8 10  1  0  0  0
 10 11  1  0  0  0
 10 44  1  0  0  0
 10 45  1  0  0  0
 11 12  1  0  0  0
 11 19  1  0  0  0
 12 13  1  0  0  0
 12 46  1  0  0  0
 12 47  1  0  0  0
 13 18  1  0  0  0
 13 14  1  0  0  0
 14 15  1  0  0  0
 14 48  1  0  0  0
 14 49  1  0  0  0
 15 16  1  0  0  0
 15 50  1  0  0  0
 15 51  1  0  0  0
 16 17  1  0  0  0
 16 52  1  0  0  0
 16 66  1  0  0  0
 17 18  1  0  0  0
 17 53  1  0  0  0
 17 54  1  0  0  0
 18 55  1  0  0  0
 18 56  1  0  0  0
 19 20  2  0  0  0
 19 21  1  0  0  0
 21 26  2  0  0  0
 21 22  1  0  0  0
 22 23  2  0  0  0
 22 57  1  0  0  0
 23 24  1  0  0  0
 23 58  1  0  0  0
 24 25  2  0  0  0
 24 59  1  0  0  0
 25 26  1  0  0  0
 25 60  1  0  0  0
 26 27  1  0  0  0
 27 28  1  0  0  0
 27 29  1  0  0  0
 27 30  1  0  0  0
 31 32  1  0  0  0
 32 37  2  0  0  0
 32 33  1  0  0  0
 33 34  2  0  0  0
 33 61  1  0  0  0
 34 35  1  0  0  0
 34 62  1  0  0  0
 35 36  2  0  0  0
 35 63  1  0  0  0
 36 37  1  0  0  0
 36 64  1  0  0  0
 37 65  1  0  0  0
M  CHG  1  16   1
M  END
> <i_i_glide_confnum>
112

> <i_i_glide_lignum>
3067

> <i_i_glide_posenum>
130

> <i_i_glide_rotatable_bonds>
9

> <i_m_Source_File_Index>
1699

> <b_m_subgroup_collapsed>
0

> <r_i_docking_score>
-6.09942

> <r_i_glide_ecoul>
-9.76664

> <r_i_glide_eff_state_penalty>
0

> <r_i_glide_einternal>
23.9562

> <r_i_glide_emodel>
-50.6109

> <r_i_glide_energy>
-43.3783

> <r_i_glide_erotb>
0.59203

> <r_i_glide_esite>
-0.105633

> <r_i_glide_evdw>
-33.6117

> <r_i_glide_gscore>
-6.09942

> <r_i_glide_hbond>
-0.182377

> <r_i_glide_ligand_efficiency>
-0.174269

> <r_i_glide_ligand_efficiency_ln>
-1.33896

> <r_i_glide_ligand_efficiency_sa>
-0.570046

> <r_i_glide_lipo>
-2.14469

> <r_i_glide_metal>
0

> <r_i_glide_rewards>
-1.11318

> <s_i_glide_gridfile>
wee1_glide-grid

> <s_m_Source_File>
wee1_decoys_glide_SP.sdf

> <s_m_Source_Path>
/Users/zhangxujun/Desktop

> <s_m_entry_id>
1974

> <s_m_entry_name>
wee1_decoys_glide_SP.1699

> <s_m_subgroup_title>
wee1_decoys_glide_SP

> <s_m_subgroupid>
wee1_decoys_glide_SP


$$$$
