ZINC03341234_3960
                    3D
 Schrodinger Suite 2024-2.
 52 54  0  0  1  0            999 V2000
    3.3633   55.8218   16.1525 C   0  0  0  0  0  0
    3.4754   54.8147   17.1513 O   0  0  0  0  0  0
    4.3016   55.0169   18.2464 C   0  0  0  0  0  0
    5.1117   56.1559   18.3989 C   0  0  0  0  0  0
    5.9160   56.3349   19.5341 C   0  0  0  0  0  0
    5.9046   55.3468   20.5221 C   0  0  0  0  0  0
    5.1038   54.2148   20.3827 C   0  0  0  0  0  0
    4.3042   54.0297   19.2470 C   0  0  0  0  0  0
    3.4972   52.8901   19.0445 N   0  0  0  0  0  0
    3.2730   51.5115   20.1455 S   0  0  0  0  0  0
    4.5241   51.2967   20.8821 O   0  0  0  0  0  0
    2.7041   50.4205   19.3507 O   0  0  0  0  0  0
    2.0189   52.0107   21.3349 C   0  0  0  0  0  0
    2.4588   52.5650   22.5352 C   0  0  0  0  0  0
    1.5799   52.8852   23.5830 C   0  0  0  0  0  0
    0.2077   52.6099   23.3938 C   0  0  0  0  0  0
   -0.2396   52.0968   22.1767 C   0  0  0  0  0  0
    0.6429   51.8224   21.1364 C   0  0  0  0  0  0
   -0.0406   51.2729   19.6453 Cl  0  0  0  0  0  0
   -1.0123   52.8967   24.5900 Cl  0  0  0  0  0  0
    2.1365   53.4611   24.8737 C   0  0  0  0  0  0
    1.5644   53.2976   25.9501 O   0  0  0  0  0  0
    3.3233   54.0962   24.7645 N   0  0  0  0  0  0
    4.1593   54.6768   25.8246 C   0  0  0  0  0  0
    4.2680   53.8457   27.1317 C   0  0  0  0  0  0
    5.7549   53.7474   27.5087 C   0  0  0  0  0  0
    6.4808   54.7291   26.5947 C   0  0  0  0  0  0
    5.6154   54.7796   25.3363 C   0  0  0  0  0  0
    6.8779   55.5111   21.9432 Cl  0  0  0  0  0  0
    6.7119   57.4465   19.7482 O   0  0  0  0  0  0
    6.8493   58.4249   18.7193 C   0  0  0  0  0  0
    2.6398   55.5019   15.4025 H   0  0  0  0  0  0
    3.0081   56.7658   16.5695 H   0  0  0  0  0  0
    4.3132   55.9892   15.6428 H   0  0  0  0  0  0
    5.1098   56.9136   17.6336 H   0  0  0  0  0  0
    5.1300   53.4941   21.1789 H   0  0  0  0  0  0
    2.9807   52.8555   18.1786 H   0  0  0  0  0  0
    3.5188   52.7231   22.6544 H   0  0  0  0  0  0
   -1.2947   51.9202   22.0330 H   0  0  0  0  0  0
    3.5849   54.3749   23.8328 H   0  0  0  0  0  0
    3.8552   55.6948   26.0839 H   0  0  0  0  0  0
    3.8907   52.8313   27.0049 H   0  0  0  0  0  0
    3.6786   54.3018   27.9281 H   0  0  0  0  0  0
    6.1169   52.7359   27.3196 H   0  0  0  0  0  0
    5.9361   53.9646   28.5642 H   0  0  0  0  0  0
    7.5036   54.4169   26.3844 H   0  0  0  0  0  0
    6.5251   55.7036   27.0753 H   0  0  0  0  0  0
    5.7883   55.6652   24.7248 H   0  0  0  0  0  0
    5.8675   53.9259   24.7011 H   0  0  0  0  0  0
    7.5359   59.2037   19.0516 H   0  0  0  0  0  0
    7.2612   57.9903   17.8064 H   0  0  0  0  0  0
    5.9050   58.9117   18.4836 H   0  0  0  0  0  0
  1  2  1  0  0  0
  1 32  1  0  0  0
  1 33  1  0  0  0
  1 34  1  0  0  0
  2  3  1  0  0  0
  3  8  2  0  0  0
  3  4  1  0  0  0
  4  5  2  0  0  0
  4 35  1  0  0  0
  5  6  1  0  0  0
  5 30  1  0  0  0
  6  7  2  0  0  0
  6 29  1  0  0  0
  7  8  1  0  0  0
  7 36  1  0  0  0
  8  9  1  0  0  0
  9 10  1  0  0  0
  9 37  1  0  0  0
 10 11  2  0  0  0
 10 12  2  0  0  0
 10 13  1  0  0  0
 13 18  2  0  0  0
 13 14  1  0  0  0
 14 15  2  0  0  0
 14 38  1  0  0  0
 15 16  1  0  0  0
 15 21  1  0  0  0
 16 17  2  0  0  0
 16 20  1  0  0  0
 17 18  1  0  0  0
 17 39  1  0  0  0
 18 19  1  0  0  0
 21 22  2  0  0  0
 21 23  1  0  0  0
 23 24  1  0  0  0
 23 40  1  0  0  0
 24 28  1  0  0  0
 24 25  1  0  0  0
 24 41  1  0  0  0
 25 26  1  0  0  0
 25 42  1  0  0  0
 25 43  1  0  0  0
 26 27  1  0  0  0
 26 44  1  0  0  0
 26 45  1  0  0  0
 27 28  1  0  0  0
 27 46  1  0  0  0
 27 47  1  0  0  0
 28 48  1  0  0  0
 28 49  1  0  0  0
 30 31  1  0  0  0
 31 50  1  0  0  0
 31 51  1  0  0  0
 31 52  1  0  0  0
M  END
> <i_i_glide_confnum>
156

> <i_i_glide_lignum>
3961

> <i_i_glide_posenum>
156

> <i_i_glide_rotatable_bonds>
8

> <i_m_Source_File_Index>
3048

> <b_m_subgroup_collapsed>
0

> <r_i_docking_score>
-5.24525

> <r_i_glide_ecoul>
-2.29551

> <r_i_glide_eff_state_penalty>
0

> <r_i_glide_einternal>
3.27713

> <r_i_glide_emodel>
-57.3659

> <r_i_glide_energy>
-43.7275

> <r_i_glide_erotb>
0.476256

> <r_i_glide_esite>
-0.211275

> <r_i_glide_evdw>
-41.432

> <r_i_glide_gscore>
-5.24525

> <r_i_glide_hbond>
-0.32

> <r_i_glide_ligand_efficiency>
-0.169201

> <r_i_glide_ligand_efficiency_ln>
-1.18296

> <r_i_glide_ligand_efficiency_sa>
-0.531526

> <r_i_glide_lipo>
-2.41588

> <r_i_glide_metal>
0

> <r_i_glide_rewards>
-0.358416

> <s_i_glide_gridfile>
wee1_glide-grid

> <s_m_Source_File>
wee1_decoys_glide_SP.sdf

> <s_m_Source_Path>
/Users/zhangxujun/Desktop

> <s_m_entry_id>
3323

> <s_m_entry_name>
wee1_decoys_glide_SP.3048

> <s_m_subgroup_title>
wee1_decoys_glide_SP

> <s_m_subgroupid>
wee1_decoys_glide_SP


$$$$
