@<TRIPOS>MOLECULE
ZINC09059459_2735
57   60    1
SMALL
USER_CHARGES


@<TRIPOS>ATOM
      1 C1          8.5872   56.7422   17.3486 C.3       1 UNK         0.0000 
      2 C2          7.4046   56.6370   18.3245 C.3       1 UNK         0.0000 
      3 H3          7.0156   57.6434   18.4919 H         1 UNK         0.0000 
      4 C4          6.2698   55.7407   17.7729 C.3       1 UNK         0.0000 
      5 C5          5.1101   55.5320   18.7816 C.3       1 UNK         0.0000 
      6 H6          4.5913   56.4863   18.8811 H         1 UNK         0.0000 
      7 N7          5.7275   55.2389   20.0796 N.pl3     1 UNK         0.0000 
      8 C8          6.9846   55.6062   20.4899 C.ar      1 UNK         0.0000 
      9 N9          7.1583   55.2967   21.7437 N.2       1 UNK         0.0000 
     10 C10         5.9882   54.7734   22.1109 C.ar      1 UNK         0.0000 
     11 N11         5.0810   54.7459   21.1469 N.2       1 UNK         0.0000 
     12 C12         5.7825   54.2357   23.4364 C.2       1 UNK         0.0000 
     13 O13         6.7215   53.6968   24.0170 O.2       1 UNK         0.0000 
     14 N14         4.5375   54.4123   23.9434 N.am      1 UNK         0.0000 
     15 C15         4.0855   54.0651   25.2211 C.2       1 UNK         0.0000 
     16 C16         4.7177   53.9807   26.4775 C.2       1 UNK         0.0000 
     17 C17         3.8554   53.5630   27.5053 C.2       1 UNK         0.0000 
     18 C18         2.5269   53.4663   27.0825 C.2       1 UNK         0.0000 
     19 S19         2.3922   53.6967   25.3640 S.3       1 UNK         0.0000 
     20 C20         1.3342   53.2599   28.0135 C.3       1 UNK         0.0000 
     21 C21         1.8160   52.7983   29.4329 C.3       1 UNK         0.0000 
     22 H22         2.1016   51.7489   29.3408 H         1 UNK         0.0000 
     23 C23         3.0676   53.6003   29.8648 C.3       1 UNK         0.0000 
     24 C24         4.2637   53.3249   28.9618 C.3       1 UNK         0.0000 
     25 C25         0.6867   52.8414   30.5281 C.3       1 UNK         0.0000 
     26 C26         0.2716   54.2961   30.8787 C.3       1 UNK         0.0000 
     27 C27         1.1756   52.1879   31.8479 C.3       1 UNK         0.0000 
     28 C28        -0.5497   52.0517   30.0348 C.3       1 UNK         0.0000 
     29 C29         6.0969   54.2725   26.7902 C.1       1 UNK         0.0000 
     30 N30         7.1879   54.4967   27.0599 N.1       1 UNK         0.0000 
     31 N31         7.9085   56.1141   19.5990 N.pl3     1 UNK         0.0000 
     32 C32         4.0682   54.4944   18.3154 C.3       1 UNK         0.0000 
     33 F33         3.4091   54.8939   17.2269 F         1 UNK         0.0000 
     34 F34         4.5988   53.2969   18.0756 F         1 UNK         0.0000 
     35 H35         8.2666   57.1462   16.3869 H         1 UNK         0.0000 
     36 H36         9.3665   57.4043   17.7331 H         1 UNK         0.0000 
     37 H37         9.0446   55.7686   17.1607 H         1 UNK         0.0000 
     38 H38         6.6754   54.7755   17.4617 H         1 UNK         0.0000 
     39 H39         5.8688   56.1660   16.8506 H         1 UNK         0.0000 
     40 H40         3.8270   54.6706   23.2741 H         1 UNK         0.0000 
     41 H41         0.6553   52.5218   27.5844 H         1 UNK         0.0000 
     42 H42         0.7897   54.2010   28.0843 H         1 UNK         0.0000 
     43 H43         2.8587   54.6684   29.9345 H         1 UNK         0.0000 
     44 H44         3.3669   53.2965   30.8656 H         1 UNK         0.0000 
     45 H45         5.0903   53.9659   29.2691 H         1 UNK         0.0000 
     46 H46         4.6169   52.2995   29.0849 H         1 UNK         0.0000 
     47 H47        -0.4954   54.3093   31.6491 H         1 UNK         0.0000 
     48 H48        -0.0976   54.8568   30.0254 H         1 UNK         0.0000 
     49 H49         1.1023   54.8740   31.2814 H         1 UNK         0.0000 
     50 H50         1.8207   51.3261   31.6825 H         1 UNK         0.0000 
     51 H51         1.7377   52.8965   32.4562 H         1 UNK         0.0000 
     52 H52         0.3441   51.8616   32.4721 H         1 UNK         0.0000 
     53 H53        -0.2789   51.0577   29.6809 H         1 UNK         0.0000 
     54 H54        -1.2939   51.9135   30.8215 H         1 UNK         0.0000 
     55 H55        -1.0539   52.5500   29.2078 H         1 UNK         0.0000 
     56 H56         8.8089   56.4632   19.8972 H         1 UNK         0.0000 
     57 H57         3.3053   54.3362   19.0780 H         1 UNK         0.0000 
@<TRIPOS>BOND
     1    1    2 1    
     2    1   35 1    
     3    1   36 1    
     4    1   37 1    
     5    2    3 1    
     6    2   31 1    
     7    2    4 1    
     8    4    5 1    
     9    4   38 1    
    10    4   39 1    
    11    5    6 1    
    12    5    7 1    
    13    5   32 1    
    14    7   11 ar   
    15    7    8 ar   
    16    8    9 ar   
    17    8   31 1    
    18    9   10 ar   
    19   10   11 ar   
    20   10   12 1    
    21   12   13 2    
    22   12   14 am   BACKBONE|DICT|INTERRES
    23   14   15 am   BACKBONE|DICT|INTERRES
    24   14   40 1    
    25   15   19 1    
    26   15   16 2    
    27   16   17 1    
    28   16   29 1    
    29   17   24 1    
    30   17   18 2    
    31   18   19 1    
    32   18   20 1    
    33   20   21 1    
    34   20   41 1    
    35   20   42 1    
    36   21   22 1    
    37   21   23 1    
    38   21   25 1    
    39   23   24 1    
    40   23   43 1    
    41   23   44 1    
    42   24   45 1    
    43   24   46 1    
    44   25   26 1    
    45   25   27 1    
    46   25   28 1    
    47   26   47 1    
    48   26   48 1    
    49   26   49 1    
    50   27   50 1    
    51   27   51 1    
    52   27   52 1    
    53   28   53 1    
    54   28   54 1    
    55   28   55 1    
    56   29   30 3    
    57   31   56 1    
    58   32   33 1    
    59   32   34 1    
    60   32   57 1    
@<TRIPOS>SUBSTRUCTURE
     1 UNK         1 GROUP             0       ****    0 ROOT    
