@<TRIPOS>MOLECULE
ZINC33009449_4541
54   57    1
SMALL
USER_CHARGES


@<TRIPOS>ATOM
      1 C1          4.0095   53.9965   28.9418 C.ar      1 UNK         0.0000 
      2 C2          3.3524   53.6619   27.7634 C.ar      1 UNK         0.0000 
      3 C3          3.9616   53.9206   26.5394 C.ar      1 UNK         0.0000 
      4 C4          5.2452   54.4964   26.4867 C.ar      1 UNK         0.0000 
      5 C5          5.8949   54.8126   27.6817 C.ar      1 UNK         0.0000 
      6 C6          5.2713   54.5793   28.9000 C.ar      1 UNK         0.0000 
      7 C7          5.9120   54.8329   25.1752 C.2       1 UNK         0.0000 
      8 O8          6.7879   55.6966   25.1196 O.2       1 UNK         0.0000 
      9 N9          5.4569   54.1242   24.1280 N.am      1 UNK         0.0000 
     10 C10         5.6380   54.3189   22.7556 C.ar      1 UNK         0.0000 
     11 C11         6.5772   55.1669   22.1619 C.ar      1 UNK         0.0000 
     12 C12         6.6053   55.2966   20.7745 C.ar      1 UNK         0.0000 
     13 C13         5.7500   54.5505   19.9384 C.ar      1 UNK         0.0000 
     14 C14         4.7983   53.6934   20.5558 C.ar      1 UNK         0.0000 
     15 C15         4.7574   53.6078   21.9533 C.ar      1 UNK         0.0000 
     16 N16         3.8969   52.9195   19.7880 N.am      1 UNK         0.0000 
     17 C17         3.3635   51.7128   20.0810 C.2       1 UNK         0.0000 
     18 O18         3.5865   51.0802   21.1140 O.2       1 UNK         0.0000 
     19 N19         2.5664   51.2992   19.0761 N.am      1 UNK         0.0000 
     20 C20         1.9157   50.0622   18.8956 C.ar      1 UNK         0.0000 
     21 C21         2.0711   48.9492   19.7379 C.ar      1 UNK         0.0000 
     22 C22         1.4253   47.7541   19.4403 C.ar      1 UNK         0.0000 
     23 C23         0.6206   47.6612   18.3099 C.ar      1 UNK         0.0000 
     24 C24         0.4532   48.7599   17.4712 C.ar      1 UNK         0.0000 
     25 C25         1.1017   49.9578   17.7639 C.ar      1 UNK         0.0000 
     26 Br26       -0.2426   46.0135   17.9081 Br        1 UNK         0.0000 
     27 N27         5.8880   54.7035   18.5388 N.pl3     1 UNK         0.0000 
     28 C28         5.3886   53.8174   17.4792 C.3       1 UNK         0.0000 
     29 C29         6.1447   54.1382   16.1925 C.3       1 UNK         0.0000 
     30 C30         6.4812   55.6010   16.3691 C.3       1 UNK         0.0000 
     31 C31         6.7550   55.6785   17.8657 C.3       1 UNK         0.0000 
     32 H32         3.5316   53.8149   29.8919 H         1 UNK         0.0000 
     33 H33         2.3686   53.2171   27.7969 H         1 UNK         0.0000 
     34 H34         3.4109   53.6759   25.6427 H         1 UNK         0.0000 
     35 H35         6.8711   55.2770   27.6813 H         1 UNK         0.0000 
     36 H36         5.7671   54.8965   29.8061 H         1 UNK         0.0000 
     37 H37         4.7899   53.4061   24.3623 H         1 UNK         0.0000 
     38 H38         7.2855   55.7294   22.7513 H         1 UNK         0.0000 
     39 H39         7.3465   55.9581   20.3534 H         1 UNK         0.0000 
     40 H40         4.0115   52.9939   22.4353 H         1 UNK         0.0000 
     41 H41         3.8214   53.2094   18.8256 H         1 UNK         0.0000 
     42 H42         2.4509   51.9407   18.3083 H         1 UNK         0.0000 
     43 H43         2.7050   48.9690   20.6093 H         1 UNK         0.0000 
     44 H44         1.5608   46.8975   20.0805 H         1 UNK         0.0000 
     45 H45        -0.1663   48.6804   16.5904 H         1 UNK         0.0000 
     46 H46         0.9813   50.7967   17.0941 H         1 UNK         0.0000 
     47 H47         5.6201   52.7827   17.7397 H         1 UNK         0.0000 
     48 H48         4.3160   53.9375   17.3196 H         1 UNK         0.0000 
     49 H49         7.0408   53.5201   16.1091 H         1 UNK         0.0000 
     50 H50         5.5404   53.9560   15.3034 H         1 UNK         0.0000 
     51 H51         5.6505   56.2537   16.0924 H         1 UNK         0.0000 
     52 H52         7.3452   55.9036   15.7761 H         1 UNK         0.0000 
     53 H53         6.5157   56.6776   18.2328 H         1 UNK         0.0000 
     54 H54         7.8058   55.4827   18.0857 H         1 UNK         0.0000 
@<TRIPOS>BOND
     1    1    6 ar   
     2    1    2 ar   
     3    1   32 1    
     4    2    3 ar   
     5    2   33 1    
     6    3    4 ar   
     7    3   34 1    
     8    4    5 ar   
     9    4    7 1    
    10    5    6 ar   
    11    5   35 1    
    12    6   36 1    
    13    7    8 2    
    14    7    9 am   BACKBONE|DICT|INTERRES
    15    9   10 1    
    16    9   37 1    
    17   10   15 ar   
    18   10   11 ar   
    19   11   12 ar   
    20   11   38 1    
    21   12   13 ar   
    22   12   39 1    
    23   13   14 ar   
    24   13   27 1    
    25   14   15 ar   
    26   14   16 1    
    27   15   40 1    
    28   16   17 am   BACKBONE|DICT|INTERRES
    29   16   41 1    
    30   17   18 2    
    31   17   19 am   BACKBONE|DICT|INTERRES
    32   19   20 1    
    33   19   42 1    
    34   20   25 ar   
    35   20   21 ar   
    36   21   22 ar   
    37   21   43 1    
    38   22   23 ar   
    39   22   44 1    
    40   23   24 ar   
    41   23   26 1    
    42   24   25 ar   
    43   24   45 1    
    44   25   46 1    
    45   27   31 1    
    46   27   28 1    
    47   28   29 1    
    48   28   47 1    
    49   28   48 1    
    50   29   30 1    
    51   29   49 1    
    52   29   50 1    
    53   30   31 1    
    54   30   51 1    
    55   30   52 1    
    56   31   53 1    
    57   31   54 1    
@<TRIPOS>SUBSTRUCTURE
     1 UNK         1 GROUP             0       ****    0 ROOT    
