@<TRIPOS>MOLECULE
ZINC12378763_4386
42   44    1
SMALL
USER_CHARGES


@<TRIPOS>ATOM
      1 C1          8.3036   51.8472   16.8056 C.3       1 UNK         0.0000 
      2 C2          7.5033   52.0983   15.5151 C.2       1 UNK         0.0000 
      3 N3          6.3166   52.5789   15.4503 N.2       1 UNK         0.0000 
      4 N4          5.7082   52.8953   16.6312 N.pl3     1 UNK         0.0000 
      5 C5          4.4147   53.2265   16.7206 C.2       1 UNK         0.0000 
      6 N6          3.6048   53.3638   15.6743 N.pl3     1 UNK         0.0000 
      7 S7          3.7167   53.4661   18.3048 S.3       1 UNK         0.0000 
      8 C8          5.1354   53.3818   19.4551 C.3       1 UNK         0.0000 
      9 H9          5.7183   52.4963   19.2018 H         1 UNK         0.0000 
     10 C10         5.9766   54.6241   19.4518 C.3       1 UNK         0.0000 
     11 C11         6.0413   55.0495   20.9030 C.2       1 UNK         0.0000 
     12 O12         6.6903   56.0243   21.2861 O.2       1 UNK         0.0000 
     13 N13         5.3017   54.1767   21.6533 N.am      1 UNK         0.0000 
     14 C14         4.7050   53.2068   20.8981 C.2       1 UNK         0.0000 
     15 O15         3.9828   52.2873   21.2861 O.2       1 UNK         0.0000 
     16 C16         5.1918   54.2432   23.0712 C.ar      1 UNK         0.0000 
     17 C17         3.9416   54.1003   23.6972 C.ar      1 UNK         0.0000 
     18 C18         3.8358   54.1735   25.0830 C.ar      1 UNK         0.0000 
     19 C19         4.9754   54.3896   25.8554 C.ar      1 UNK         0.0000 
     20 C20         6.2212   54.5271   25.2507 C.ar      1 UNK         0.0000 
     21 C21         6.3319   54.4552   23.8653 C.ar      1 UNK         0.0000 
     22 Cl22        4.8439   54.4874   27.5735 Cl        1 UNK         0.0000 
     23 C23         8.1763   51.7034   14.2683 C.2       1 UNK         0.0000 
     24 C24         9.4761   51.2113   14.1086 C.2       1 UNK         0.0000 
     25 C25         9.7965   50.8981   12.7869 C.2       1 UNK         0.0000 
     26 C26         8.7632   51.1500   11.9040 C.2       1 UNK         0.0000 
     27 S27         7.3698   51.7777   12.7169 S.3       1 UNK         0.0000 
     28 Br28        8.7519   50.8932   10.0191 Br        1 UNK         0.0000 
     29 H29         8.8557   50.9071   16.7520 H         1 UNK         0.0000 
     30 H30         9.0257   52.6452   16.9884 H         1 UNK         0.0000 
     31 H31         7.6670   51.7251   17.6817 H         1 UNK         0.0000 
     32 H32         3.9799   53.1924   14.7504 H         1 UNK         0.0000 
     33 H33         2.6274   53.5808   15.8035 H         1 UNK         0.0000 
     34 H34         6.9898   54.4276   19.0976 H         1 UNK         0.0000 
     35 H35         5.5527   55.4373   18.8614 H         1 UNK         0.0000 
     36 H36         3.0440   53.9440   23.1151 H         1 UNK         0.0000 
     37 H37         2.8712   54.0624   25.5573 H         1 UNK         0.0000 
     38 H38         7.0997   54.6828   25.8569 H         1 UNK         0.0000 
     39 H39         7.3093   54.5640   23.4170 H         1 UNK         0.0000 
     40 H40        10.1805   51.0722   14.9164 H         1 UNK         0.0000 
     41 H41        10.7527   50.4971   12.4823 H         1 UNK         0.0000 
     42 H42         6.2122   52.6847   17.4782 H         1 UNK         0.0000 
@<TRIPOS>BOND
     1    1    2 1    
     2    1   29 1    
     3    1   30 1    
     4    1   31 1    
     5    2    3 2    
     6    2   23 1    
     7    3    4 1    
     8    4    5 2    
     9    4   42 1    
    10    5    6 1    
    11    5    7 1    
    12    6   32 1    
    13    6   33 1    
    14    7    8 1    
    15    8    9 1    
    16    8   14 1    
    17    8   10 1    
    18   10   11 1    
    19   10   34 1    
    20   10   35 1    
    21   11   12 2    
    22   11   13 am   BACKBONE|DICT|INTERRES
    23   13   14 am   BACKBONE|DICT|INTERRES
    24   13   16 1    
    25   14   15 2    
    26   16   21 ar   
    27   16   17 ar   
    28   17   18 ar   
    29   17   36 1    
    30   18   19 ar   
    31   18   37 1    
    32   19   20 ar   
    33   19   22 1    
    34   20   21 ar   
    35   20   38 1    
    36   21   39 1    
    37   23   27 1    
    38   23   24 2    
    39   24   25 1    
    40   24   40 1    
    41   25   26 2    
    42   25   41 1    
    43   26   27 1    
    44   26   28 1    
@<TRIPOS>SUBSTRUCTURE
     1 UNK         1 GROUP             0       ****    0 ROOT    
