@<TRIPOS>MOLECULE
ZINC64435660_2789
54   57    1
SMALL
USER_CHARGES


@<TRIPOS>ATOM
      1 C1          1.8865   52.3803   18.4401 C.3       1 UNK         0.0000 
      2 C2          2.3851   51.3460   19.4795 C.3       1 UNK         0.0000 
      3 H3          2.9654   50.6104   18.9187 H         1 UNK         0.0000 
      4 C4          3.3352   51.8849   20.5718 C.2       1 UNK         0.0000 
      5 O5          3.9043   51.0497   21.2801 O.2       1 UNK         0.0000 
      6 N6          3.5062   53.2214   20.7046 N.am      1 UNK         0.0000 
      7 C7          4.2604   53.7823   21.6936 C.2       1 UNK         0.0000 
      8 C8          3.9005   53.6450   22.9934 C.2       1 UNK         0.0000 
      9 C9          4.7882   54.1470   24.0280 C.2       1 UNK         0.0000 
     10 C10         4.5609   54.5520   25.2802 C.2       1 UNK         0.0000 
     11 C11         5.7773   55.2003   25.6817 C.2       1 UNK         0.0000 
     12 N12         6.7055   55.2128   24.8094 N.2       1 UNK         0.0000 
     13 C13         6.2405   54.4025   23.7308 C.3       1 UNK         0.0000 
     14 H14         6.8121   53.4719   23.7841 H         1 UNK         0.0000 
     15 C15         6.3673   54.8967   22.2810 C.2       1 UNK         0.0000 
     16 C16         5.4651   54.5332   21.3369 C.2       1 UNK         0.0000 
     17 N17         1.2885   50.5996   20.1208 N.am      1 UNK         0.0000 
     18 C18         0.2343   51.1190   20.7847 C.2       1 UNK         0.0000 
     19 O19        -0.3758   52.0976   20.3553 O.2       1 UNK         0.0000 
     20 N20        -0.1620   50.4470   21.9021 N.am      1 UNK         0.0000 
     21 C21        -1.3477   50.9179   22.6325 C.3       1 UNK         0.0000 
     22 C22        -0.8967   51.6663   23.9156 C.3       1 UNK         0.0000 
     23 N23         0.3324   51.1724   24.5629 N.pl3     1 UNK         0.0000 
     24 C24         0.6134   49.7749   24.2044 C.3       1 UNK         0.0000 
     25 C25         0.7222   49.5375   22.6699 C.3       1 UNK         0.0000 
     26 C26         0.6179   51.6488   25.8328 C.ar      1 UNK         0.0000 
     27 C27         0.2824   50.9177   26.9785 C.ar      1 UNK         0.0000 
     28 C28         0.5347   51.4438   28.2442 C.ar      1 UNK         0.0000 
     29 C29         1.1518   52.6836   28.3712 C.ar      1 UNK         0.0000 
     30 C30         1.5048   53.4104   27.2390 C.ar      1 UNK         0.0000 
     31 C31         1.2287   52.8971   25.9724 C.ar      1 UNK         0.0000 
     32 Cl32        1.4706   53.3285   29.9405 Cl        1 UNK         0.0000 
     33 H33         2.7239   52.7830   17.8691 H         1 UNK         0.0000 
     34 H34         1.2070   51.9141   17.7264 H         1 UNK         0.0000 
     35 H35         1.3635   53.2246   18.8891 H         1 UNK         0.0000 
     36 H36         2.9838   53.8452   20.1028 H         1 UNK         0.0000 
     37 H37         2.9841   53.1255   23.2371 H         1 UNK         0.0000 
     38 H38         3.6424   54.5169   25.8392 H         1 UNK         0.0000 
     39 H39         5.9047   55.6807   26.6473 H         1 UNK         0.0000 
     40 H40         7.2314   55.4804   21.9975 H         1 UNK         0.0000 
     41 H41         5.6075   54.8565   20.3158 H         1 UNK         0.0000 
     42 H42         1.5158   49.6339   20.3028 H         1 UNK         0.0000 
     43 H43        -2.0816   51.4562   22.0303 H         1 UNK         0.0000 
     44 H44        -1.8599   50.0102   22.9549 H         1 UNK         0.0000 
     45 H45        -1.7196   51.6743   24.6320 H         1 UNK         0.0000 
     46 H46        -0.6571   52.6858   23.6099 H         1 UNK         0.0000 
     47 H47        -0.2393   49.2045   24.5766 H         1 UNK         0.0000 
     48 H48         1.5044   49.4078   24.7151 H         1 UNK         0.0000 
     49 H49         0.5783   48.4968   22.3938 H         1 UNK         0.0000 
     50 H50         1.7548   49.7972   22.4289 H         1 UNK         0.0000 
     51 H51        -0.2037   49.9546   26.8961 H         1 UNK         0.0000 
     52 H52         0.2424   50.8934   29.1257 H         1 UNK         0.0000 
     53 H53         1.9681   54.3795   27.3460 H         1 UNK         0.0000 
     54 H54         1.4846   53.4728   25.0954 H         1 UNK         0.0000 
@<TRIPOS>BOND
     1    1    2 1    
     2    1   33 1    
     3    1   34 1    
     4    1   35 1    
     5    2    3 1    
     6    2    4 1    
     7    2   17 1    
     8    4    5 2    
     9    4    6 am   BACKBONE|DICT|INTERRES
    10    6    7 1    
    11    6   36 1    
    12    7   16 1    
    13    7    8 2    
    14    8    9 1    
    15    8   37 1    
    16    9   13 1    
    17    9   10 2    
    18   10   11 1    
    19   10   38 1    
    20   11   12 2    
    21   11   39 1    
    22   12   13 1    
    23   13   14 1    
    24   13   15 1    
    25   15   16 2    
    26   15   40 1    
    27   16   41 1    
    28   17   18 am   BACKBONE|DICT|INTERRES
    29   17   42 1    
    30   18   19 2    
    31   18   20 am   BACKBONE|DICT|INTERRES
    32   20   25 1    
    33   20   21 1    
    34   21   22 1    
    35   21   43 1    
    36   21   44 1    
    37   22   23 1    
    38   22   45 1    
    39   22   46 1    
    40   23   24 1    
    41   23   26 1    
    42   24   25 1    
    43   24   47 1    
    44   24   48 1    
    45   25   49 1    
    46   25   50 1    
    47   26   31 ar   
    48   26   27 ar   
    49   27   28 ar   
    50   27   51 1    
    51   28   29 ar   
    52   28   52 1    
    53   29   30 ar   
    54   29   32 1    
    55   30   31 ar   
    56   30   53 1    
    57   31   54 1    
@<TRIPOS>SUBSTRUCTURE
     1 UNK         1 GROUP             0       ****    0 ROOT    
