@<TRIPOS>MOLECULE
ZINC01631529_1073
71   74    1
SMALL
USER_CHARGES


@<TRIPOS>ATOM
      1 C1          4.6307   55.3699   17.5269 C.3       1 UNK         0.0000 
      2 O2          5.3260   55.7564   18.7072 O.3       1 UNK         0.0000 
      3 C3          5.3535   54.8956   19.7852 C.ar      1 UNK         0.0000 
      4 C4          4.7596   53.6244   19.8074 C.ar      1 UNK         0.0000 
      5 C5          4.8118   52.8358   20.9585 C.ar      1 UNK         0.0000 
      6 C6          5.5043   53.3003   22.0817 C.ar      1 UNK         0.0000 
      7 C7          6.0753   54.5809   22.0893 C.ar      1 UNK         0.0000 
      8 C8          5.9984   55.3550   20.9325 C.ar      1 UNK         0.0000 
      9 O9          6.7046   55.1494   23.1779 O.3       1 UNK         0.0000 
     10 C10         6.8705   54.3782   24.3639 C.3       1 UNK         0.0000 
     11 C11         4.1023   51.4928   20.9911 C.3       1 UNK         0.0000 
     12 C12         1.8634   52.0410   22.3293 C.3       1 UNK         0.0000 
     13 H13         2.2932   51.3468   23.0562 H         1 UNK         0.0000 
     14 C14         2.2811   53.4818   22.6727 C.3       1 UNK         0.0000 
     15 C15         1.4373   54.1575   23.7446 C.3       1 UNK         0.0000 
     16 C16         1.2714   53.2970   24.9832 C.ar      1 UNK         0.0000 
     17 C17         1.9636   53.6638   26.1389 C.ar      1 UNK         0.0000 
     18 C18         1.7725   53.0062   27.3526 C.ar      1 UNK         0.0000 
     19 C19         0.9179   51.9072   27.3775 C.ar      1 UNK         0.0000 
     20 C20         0.3350   51.4296   26.1899 C.ar      1 UNK         0.0000 
     21 C21         0.4548   52.1397   24.9677 C.ar      1 UNK         0.0000 
     22 C22        -0.2951   51.7035   23.7127 C.ar      1 UNK         0.0000 
     23 C23         0.3326   51.8512   22.3724 C.ar      1 UNK         0.0000 
     24 C24        -0.3171   51.8456   21.1792 C.ar      1 UNK         0.0000 
     25 C25        -1.7003   51.6334   20.7879 C.ar      1 UNK         0.0000 
     26 O26        -2.0631   52.0795   19.6952 O.2       1 UNK         0.0000 
     27 C27        -2.6177   50.8762   21.6430 C.ar      1 UNK         0.0000 
     28 C28        -2.5345   50.7016   22.9775 C.ar      1 UNK         0.0000 
     29 C29        -1.5533   51.2272   23.9106 C.ar      1 UNK         0.0000 
     30 S30        -3.9576   50.0968   20.7086 S.3       1 UNK         0.0000 
     31 C31        -5.0361   49.2606   21.9060 C.3       1 UNK         0.0000 
     32 O32        -0.3598   50.2461   26.2409 O.3       1 UNK         0.0000 
     33 C33         0.4415   49.0857   26.0701 C.3       1 UNK         0.0000 
     34 O34         0.6850   51.2965   28.5863 O.3       1 UNK         0.0000 
     35 C35        -0.6373   51.4708   29.0869 C.3       1 UNK         0.0000 
     36 O36         2.3744   53.3856   28.5410 O.3       1 UNK         0.0000 
     37 C37         3.2374   54.5186   28.5639 C.3       1 UNK         0.0000 
     38 H38         4.7045   56.1663   16.7856 H         1 UNK         0.0000 
     39 H39         5.0600   54.4686   17.0862 H         1 UNK         0.0000 
     40 H40         3.5704   55.2016   17.7252 H         1 UNK         0.0000 
     41 H41         4.2462   53.2421   18.9383 H         1 UNK         0.0000 
     42 H42         5.5510   52.6767   22.9586 H         1 UNK         0.0000 
     43 H43         6.4390   56.3400   20.9277 H         1 UNK         0.0000 
     44 H44         7.3929   54.9746   25.1105 H         1 UNK         0.0000 
     45 H45         7.4708   53.4853   24.1788 H         1 UNK         0.0000 
     46 H46         5.9095   54.0853   24.7913 H         1 UNK         0.0000 
     47 H47         4.3139   50.9252   20.0821 H         1 UNK         0.0000 
     48 H48         4.3707   50.8968   21.8594 H         1 UNK         0.0000 
     49 H49         3.2828   53.4723   23.0813 H         1 UNK         0.0000 
     50 H50         2.3043   54.0978   21.7758 H         1 UNK         0.0000 
     51 H51         1.9011   55.1094   24.0072 H         1 UNK         0.0000 
     52 H52         0.4556   54.4211   23.3598 H         1 UNK         0.0000 
     53 H53         2.6365   54.5027   26.0873 H         1 UNK         0.0000 
     54 H54         0.2685   52.0179   20.2893 H         1 UNK         0.0000 
     55 H55        -3.2713   50.0833   23.4597 H         1 UNK         0.0000 
     56 H56        -1.9421   51.2588   24.9174 H         1 UNK         0.0000 
     57 H57        -5.8807   48.8078   21.3841 H         1 UNK         0.0000 
     58 H58        -4.5003   48.4661   22.4264 H         1 UNK         0.0000 
     59 H59        -5.4318   49.9697   22.6337 H         1 UNK         0.0000 
     60 H60        -0.2061   48.2088   26.0815 H         1 UNK         0.0000 
     61 H61         0.9696   49.0960   25.1143 H         1 UNK         0.0000 
     62 H62         1.1756   48.9798   26.8702 H         1 UNK         0.0000 
     63 H63        -0.7173   51.0377   30.0819 H         1 UNK         0.0000 
     64 H64        -0.8958   52.5273   29.1697 H         1 UNK         0.0000 
     65 H65        -1.3814   50.9759   28.4622 H         1 UNK         0.0000 
     66 H66         3.6136   54.6669   29.5754 H         1 UNK         0.0000 
     67 H67         4.1017   54.3805   27.9122 H         1 UNK         0.0000 
     68 H68         2.7109   55.4296   28.2741 H         1 UNK         0.0000 
     69 N69         2.5619   51.5905   21.0156 N.4       1 UNK         0.0000 
     70 H70         2.2955   52.2363   20.2840 H         1 UNK         0.0000 
     71 H71         2.1907   50.6857   20.7575 H         1 UNK         0.0000 
@<TRIPOS>BOND
     1    1    2 1    
     2    1   38 1    
     3    1   39 1    
     4    1   40 1    
     5    2    3 1    
     6    3    8 ar   
     7    3    4 ar   
     8    4    5 ar   
     9    4   41 1    
    10    5    6 ar   
    11    5   11 1    
    12    6    7 ar   
    13    6   42 1    
    14    7    8 ar   
    15    7    9 1    
    16    8   43 1    
    17    9   10 1    
    18   10   44 1    
    19   10   45 1    
    20   10   46 1    
    21   11   47 1    
    22   11   48 1    
    23   11   69 1    
    24   12   13 1    
    25   12   23 1    
    26   12   14 1    
    27   12   69 1    
    28   14   15 1    
    29   14   49 1    
    30   14   50 1    
    31   15   16 1    
    32   15   51 1    
    33   15   52 1    
    34   16   21 ar   
    35   16   17 ar   
    36   17   18 ar   
    37   17   53 1    
    38   18   19 ar   
    39   18   36 1    
    40   19   20 ar   
    41   19   34 1    
    42   20   21 ar   
    43   20   32 1    
    44   21   22 1    
    45   22   29 ar   
    46   22   23 ar   
    47   23   24 ar   
    48   24   25 ar   
    49   24   54 1    
    50   25   26 2    
    51   25   27 ar   
    52   27   28 ar   
    53   27   30 1    
    54   28   29 ar   
    55   28   55 1    
    56   29   56 1    
    57   30   31 1    
    58   31   57 1    
    59   31   58 1    
    60   31   59 1    
    61   32   33 1    
    62   33   60 1    
    63   33   61 1    
    64   33   62 1    
    65   34   35 1    
    66   35   63 1    
    67   35   64 1    
    68   35   65 1    
    69   36   37 1    
    70   37   66 1    
    71   37   67 1    
    72   37   68 1    
    73   69   70 1    
    74   69   71 1    
@<TRIPOS>SUBSTRUCTURE
     1 UNK         1 GROUP             0       ****    0 ROOT    
