ZINC12451383_210
                    3D
 Schrodinger Suite 2024-2.
 61 64  0  0  1  0            999 V2000
    0.6700   54.6533   28.6787 C   0  0  0  0  0  0
    2.2039   54.4792   28.5455 C   0  0  0  0  0  0
    2.8019   53.0839   28.9262 C   0  0  1  0  0  0
    3.1628   52.9490   29.9465 H   0  0  0  0  0  0
    1.9011   51.8741   28.4908 C   0  0  0  0  0  0
    1.4457   52.0967   27.0428 C   0  0  0  0  0  0
    1.8578   53.1873   26.3531 C   0  0  0  0  0  0
    2.7673   54.1878   27.1100 C   0  0  2  0  0  0
    3.1045   55.0290   26.5041 H   0  0  0  0  0  0
    3.8672   53.3657   27.8333 C   0  0  0  0  0  0
    1.3575   53.4800   24.9471 C   0  0  0  0  0  0
    3.4646   53.3968   23.4228 C   0  0  0  0  0  0
    3.7946   52.7569   22.0506 C   0  0  1  0  0  0
    4.6954   52.1366   22.0818 H   0  0  0  0  0  0
    2.5975   51.8698   21.6869 C   0  0  0  0  0  0
    1.4395   52.3841   22.5543 C   0  0  1  0  0  0
    1.0025   53.3125   22.1842 H   0  0  0  0  0  0
    0.3679   51.2924   22.7687 C   0  0  0  0  0  0
    0.2475   50.6784   23.8316 O   0  0  0  0  0  0
   -0.3903   51.1131   21.6687 O   0  0  0  0  0  0
   -1.4196   50.1318   21.6589 C   0  0  0  0  0  0
    3.9945   53.7617   21.0055 N   0  0  0  0  0  0
    5.1087   54.4972   20.8855 C   0  0  0  0  0  0
    5.9394   54.6080   21.7881 O   0  0  0  0  0  0
    5.1923   55.0775   19.6742 N   0  0  0  0  0  0
    6.2327   55.8882   19.1904 C   0  0  0  0  0  0
    5.8803   56.9081   18.3030 C   0  0  0  0  0  0
    6.8625   57.7373   17.7677 C   0  0  0  0  0  0
    8.1999   57.5238   18.0960 C   0  0  0  0  0  0
    8.5634   56.4977   18.9662 C   0  0  0  0  0  0
    7.5803   55.6857   19.5244 C   0  0  0  0  0  0
    2.8503   55.6778   29.2890 C   0  0  0  0  0  0
    0.3426   55.5033   28.0819 H   0  0  0  0  0  0
    0.0722   53.8098   28.3437 H   0  0  0  0  0  0
    0.3788   54.8334   29.7143 H   0  0  0  0  0  0
    1.0359   51.7786   29.1480 H   0  0  0  0  0  0
    2.4437   50.9330   28.5700 H   0  0  0  0  0  0
    0.7775   51.3845   26.5775 H   0  0  0  0  0  0
    4.7350   53.9275   28.1840 H   0  0  0  0  0  0
    4.2762   52.4967   27.3194 H   0  0  0  0  0  0
    1.3919   54.5339   24.6844 H   0  0  0  0  0  0
    0.3274   53.1316   24.8614 H   0  0  0  0  0  0
    4.2183   53.2968   24.2054 H   0  0  0  0  0  0
    3.2335   54.4612   23.3341 H   0  0  0  0  0  0
    2.3718   51.8434   20.6181 H   0  0  0  0  0  0
    2.8359   50.8395   21.9660 H   0  0  0  0  0  0
   -1.9077   50.1118   20.6836 H   0  0  0  0  0  0
   -1.0138   49.1371   21.8555 H   0  0  0  0  0  0
   -2.1763   50.3499   22.4151 H   0  0  0  0  0  0
    3.2710   53.8498   20.3051 H   0  0  0  0  0  0
    4.3853   55.0089   19.0736 H   0  0  0  0  0  0
    4.8464   57.0763   18.0343 H   0  0  0  0  0  0
    6.5879   58.5417   17.0983 H   0  0  0  0  0  0
    8.9626   58.1611   17.6732 H   0  0  0  0  0  0
    9.6026   56.3389   19.2164 H   0  0  0  0  0  0
    7.8788   54.8961   20.1966 H   0  0  0  0  0  0
    2.5243   56.6330   28.8793 H   0  0  0  0  0  0
    2.5518   55.6741   30.3367 H   0  0  0  0  0  0
    3.9379   55.6712   29.2767 H   0  0  0  0  0  0
    2.1612   52.7071   23.8804 N   0  3  2  0  0  0
    2.4003   51.8141   24.2916 H   0  0  0  0  0  0
  1  2  1  0  0  0
  1 33  1  0  0  0
  1 34  1  0  0  0
  1 35  1  0  0  0
  2  8  1  0  0  0
  2  3  1  0  0  0
  2 32  1  0  0  0
  3  4  1  0  0  0
  3 10  1  0  0  0
  3  5  1  0  0  0
  5  6  1  0  0  0
  5 36  1  0  0  0
  5 37  1  0  0  0
  6  7  2  0  0  0
  6 38  1  0  0  0
  7  8  1  0  0  0
  7 11  1  0  0  0
  8  9  1  0  0  0
  8 10  1  0  0  0
 10 39  1  0  0  0
 10 40  1  0  0  0
 11 41  1  0  0  0
 11 42  1  0  0  0
 11 60  1  0  0  0
 12 13  1  0  0  0
 12 43  1  0  0  0
 12 44  1  0  0  0
 12 60  1  0  0  0
 13 14  1  0  0  0
 13 15  1  0  0  0
 13 22  1  0  0  0
 15 16  1  0  0  0
 15 45  1  0  0  0
 15 46  1  0  0  0
 16 17  1  0  0  0
 16 18  1  0  0  0
 16 60  1  0  0  0
 18 19  2  0  0  0
 18 20  1  0  0  0
 20 21  1  0  0  0
 21 47  1  0  0  0
 21 48  1  0  0  0
 21 49  1  0  0  0
 22 23  1  0  0  0
 22 50  1  0  0  0
 23 24  2  0  0  0
 23 25  1  0  0  0
 25 26  1  0  0  0
 25 51  1  0  0  0
 26 31  2  0  0  0
 26 27  1  0  0  0
 27 28  2  0  0  0
 27 52  1  0  0  0
 28 29  1  0  0  0
 28 53  1  0  0  0
 29 30  2  0  0  0
 29 54  1  0  0  0
 30 31  1  0  0  0
 30 55  1  0  0  0
 31 56  1  0  0  0
 32 57  1  0  0  0
 32 58  1  0  0  0
 32 59  1  0  0  0
 60 61  1  0  0  0
M  CHG  1  60   1
M  END
> <i_i_glide_confnum>
102

> <i_i_glide_lignum>
211

> <i_i_glide_posenum>
218

> <i_i_glide_rotatable_bonds>
8

> <i_m_Source_File_Index>
1663

> <b_m_subgroup_collapsed>
0

> <r_i_docking_score>
-4.47123

> <r_i_glide_ecoul>
-2.23124

> <r_i_glide_eff_state_penalty>
0

> <r_i_glide_einternal>
8.26829

> <r_i_glide_emodel>
-42.627

> <r_i_glide_energy>
-34.5652

> <r_i_glide_erotb>
0.739925

> <r_i_glide_esite>
-0.000255504

> <r_i_glide_evdw>
-32.3339

> <r_i_glide_gscore>
-4.47123

> <r_i_glide_hbond>
-0.0483636

> <r_i_glide_ligand_efficiency>
-0.15418

> <r_i_glide_ligand_efficiency_ln>
-1.0238

> <r_i_glide_ligand_efficiency_sa>
-0.473691

> <r_i_glide_lipo>
-2.4302

> <r_i_glide_metal>
0

> <r_i_glide_rewards>
-0.780957

> <s_i_glide_gridfile>
wee1_glide-grid

> <s_m_Source_File>
wee1_decoys_glide_SP.sdf

> <s_m_Source_Path>
/Users/zhangxujun/Desktop

> <s_m_entry_id>
1938

> <s_m_entry_name>
wee1_decoys_glide_SP.1663

> <s_m_subgroup_title>
wee1_decoys_glide_SP

> <s_m_subgroupid>
wee1_decoys_glide_SP


$$$$
