@<TRIPOS>MOLECULE
ZINC21911048_433
51   53    1
SMALL
USER_CHARGES


@<TRIPOS>ATOM
      1 C1          1.8578   54.2085   23.1837 C.3       1 UNK         0.0000 
      2 C2          2.1931   52.8612   22.5214 C.3       1 UNK         0.0000 
      3 S3          3.2468   52.8957   21.0298 S.3       1 UNK         0.0000 
      4 C4          4.6838   53.7162   21.6312 C.ar      1 UNK         0.0000 
      5 C5          5.5439   54.5943   20.9385 C.ar      1 UNK         0.0000 
      6 C6          6.5291   54.9142   21.8404 C.ar      1 UNK         0.0000 
      7 N7          6.1612   54.3282   23.0278 N.pl3     1 UNK         0.0000 
      8 N8          5.0765   53.5628   22.8800 N.2       1 UNK         0.0000 
      9 C9          6.8754   54.4061   24.3070 C.3       1 UNK         0.0000 
     10 C10         6.1192   54.6360   25.6251 C.2       1 UNK         0.0000 
     11 O11         6.7043   55.2966   26.4821 O.2       1 UNK         0.0000 
     12 N12         4.8927   54.0970   25.7857 N.am      1 UNK         0.0000 
     13 C13         4.0595   54.1127   26.9230 C.ar      1 UNK         0.0000 
     14 C14         4.4778   54.4961   28.2085 C.ar      1 UNK         0.0000 
     15 C15         3.5734   54.4966   29.2650 C.ar      1 UNK         0.0000 
     16 C16         2.2533   54.1082   29.0523 C.ar      1 UNK         0.0000 
     17 C17         1.8375   53.6957   27.7893 C.ar      1 UNK         0.0000 
     18 C18         2.7415   53.6922   26.7301 C.ar      1 UNK         0.0000 
     19 Cl19        1.1286   54.1346   30.3618 Cl        1 UNK         0.0000 
     20 N20         7.6556   55.6709   21.6820 N.pl3     1 UNK         0.0000 
     21 S21         5.4874   55.2287   19.2383 S.o2      1 UNK         0.0000 
     22 O22         4.1995   54.8466   18.6517 O.2       1 UNK         0.0000 
     23 O23         5.9042   56.6350   19.3215 O.2       1 UNK         0.0000 
     24 C24         6.7884   54.3620   18.3614 C.ar      1 UNK         0.0000 
     25 C25         6.4947   53.1843   17.6763 C.ar      1 UNK         0.0000 
     26 C26         7.5034   52.5060   16.9966 C.ar      1 UNK         0.0000 
     27 C27         8.8075   53.0043   17.0040 C.ar      1 UNK         0.0000 
     28 C28         9.0994   54.1888   17.6816 C.ar      1 UNK         0.0000 
     29 C29         8.0902   54.8722   18.3545 C.ar      1 UNK         0.0000 
     30 C30         9.9168   52.2397   16.3070 C.3       1 UNK         0.0000 
     31 H31         1.1501   54.0751   24.0012 H         1 UNK         0.0000 
     32 H32         2.7405   54.7022   23.5879 H         1 UNK         0.0000 
     33 H33         1.3987   54.8963   22.4817 H         1 UNK         0.0000 
     34 H34         1.2634   52.3687   22.2356 H         1 UNK         0.0000 
     35 H35         2.6605   52.2004   23.2520 H         1 UNK         0.0000 
     36 H36         7.5046   55.2831   24.2269 H         1 UNK         0.0000 
     37 H37         7.5062   53.5238   24.3938 H         1 UNK         0.0000 
     38 H38         4.5120   53.6159   24.9842 H         1 UNK         0.0000 
     39 H39         5.4914   54.7956   28.4231 H         1 UNK         0.0000 
     40 H40         3.9071   54.8033   30.2426 H         1 UNK         0.0000 
     41 H41         0.8174   53.3773   27.6310 H         1 UNK         0.0000 
     42 H42         2.4073   53.3568   25.7611 H         1 UNK         0.0000 
     43 H43         7.8589   56.0968   20.7892 H         1 UNK         0.0000 
     44 H44         8.3928   55.6965   22.3799 H         1 UNK         0.0000 
     45 H45         5.4919   52.7774   17.6805 H         1 UNK         0.0000 
     46 H46         7.2674   51.5847   16.4841 H         1 UNK         0.0000 
     47 H47        10.1075   54.5775   17.6949 H         1 UNK         0.0000 
     48 H48         8.3263   55.7937   18.8647 H         1 UNK         0.0000 
     49 H49         9.6686   51.1822   16.2047 H         1 UNK         0.0000 
     50 H50        10.1115   52.6589   15.3192 H         1 UNK         0.0000 
     51 H51        10.8387   52.2888   16.8895 H         1 UNK         0.0000 
@<TRIPOS>BOND
     1    1    2 1    
     2    1   31 1    
     3    1   32 1    
     4    1   33 1    
     5    2    3 1    
     6    2   34 1    
     7    2   35 1    
     8    3    4 1    
     9    4    8 ar   
    10    4    5 ar   
    11    5    6 ar   
    12    5   21 1    
    13    6    7 ar   
    14    6   20 1    
    15    7    8 ar   
    16    7    9 1    
    17    9   10 1    
    18    9   36 1    
    19    9   37 1    
    20   10   11 2    
    21   10   12 am   BACKBONE|DICT|INTERRES
    22   12   13 1    
    23   12   38 1    
    24   13   18 ar   
    25   13   14 ar   
    26   14   15 ar   
    27   14   39 1    
    28   15   16 ar   
    29   15   40 1    
    30   16   17 ar   
    31   16   19 1    
    32   17   18 ar   
    33   17   41 1    
    34   18   42 1    
    35   20   43 1    
    36   20   44 1    
    37   21   22 2    
    38   21   23 2    
    39   21   24 1    
    40   24   29 ar   
    41   24   25 ar   
    42   25   26 ar   
    43   25   45 1    
    44   26   27 ar   
    45   26   46 1    
    46   27   28 ar   
    47   27   30 1    
    48   28   29 ar   
    49   28   47 1    
    50   29   48 1    
    51   30   49 1    
    52   30   50 1    
    53   30   51 1    
@<TRIPOS>SUBSTRUCTURE
     1 UNK         1 GROUP             0       ****    0 ROOT    
