ZINC13432915_1946
                    3D
 Schrodinger Suite 2024-2.
 56 59  0  0  1  0            999 V2000
    4.6630   53.8756   18.8101 C   0  0  0  0  0  0
    5.5041   54.3486   19.9923 C   0  0  0  0  0  0
    6.6885   55.0367   19.7245 C   0  0  0  0  0  0
    7.4792   55.5095   20.7645 C   0  0  0  0  0  0
    7.0900   55.2968   22.0832 C   0  0  0  0  0  0
    5.9031   54.6170   22.4083 C   0  0  0  0  0  0
    5.1073   54.1297   21.3307 C   0  0  0  0  0  0
    3.8669   53.5176   21.5649 N   0  0  0  0  0  0
    3.5981   52.1952   21.5411 C   0  0  0  0  0  0
    4.4461   51.3400   21.2800 O   0  0  0  0  0  0
    2.1435   51.7648   21.8805 C   0  0  0  0  0  0
    2.1192   50.4840   22.7828 C   0  0  0  0  0  0
    0.7122   50.1659   23.3418 C   0  0  0  0  0  0
    0.0944   51.3934   23.8889 N   0  0  0  0  0  0
   -0.0908   52.4836   22.9224 C   0  0  0  0  0  0
    1.2864   52.9463   22.4415 C   0  0  0  0  0  0
   -0.8362   51.3709   25.3942 S   0  0  0  0  0  0
   -1.8188   52.4607   25.3569 O   0  0  0  0  0  0
   -1.2468   49.9900   25.6677 O   0  0  0  0  0  0
    0.3257   51.8344   26.6807 C   0  0  0  0  0  0
    0.1587   51.3027   27.9609 C   0  0  0  0  0  0
    1.0034   51.6971   28.9984 C   0  0  0  0  0  0
    2.0444   52.5910   28.7521 C   0  0  0  0  0  0
    2.2200   53.1237   27.4734 C   0  0  0  0  0  0
    1.3494   52.7631   26.4415 C   0  0  0  0  0  0
    3.3571   54.1202   27.4643 C   0  0  0  0  0  0
    4.0058   53.9710   28.8424 C   0  0  0  0  0  0
    3.0250   53.1998   29.7283 C   0  0  0  0  0  0
    5.5267   54.4968   23.8699 C   0  0  0  0  0  0
    6.4049   54.7536   24.7267 O   0  0  0  0  0  0
    4.5790   52.7875   18.8223 H   0  0  0  0  0  0
    3.6534   54.2863   18.8716 H   0  0  0  0  0  0
    5.0891   54.1694   17.8494 H   0  0  0  0  0  0
    7.0020   55.2085   18.7056 H   0  0  0  0  0  0
    8.3965   56.0401   20.5481 H   0  0  0  0  0  0
    7.7178   55.6990   22.8641 H   0  0  0  0  0  0
    3.1448   54.1257   21.9224 H   0  0  0  0  0  0
    1.7367   51.4321   20.9237 H   0  0  0  0  0  0
    2.4777   49.6017   22.2491 H   0  0  0  0  0  0
    2.7043   50.6421   23.6821 H   0  0  0  0  0  0
    0.0752   49.8000   22.5366 H   0  0  0  0  0  0
    0.7470   49.3952   24.1120 H   0  0  0  0  0  0
   -0.6864   52.1100   22.0876 H   0  0  0  0  0  0
   -0.6471   53.2977   23.3859 H   0  0  0  0  0  0
    1.7670   53.3979   23.3117 H   0  0  0  0  0  0
    1.1139   53.6968   21.6815 H   0  0  0  0  0  0
   -0.6373   50.5929   28.1533 H   0  0  0  0  0  0
    0.8373   51.2982   29.9857 H   0  0  0  0  0  0
    1.4678   53.2052   25.4643 H   0  0  0  0  0  0
    4.0894   53.9201   26.6842 H   0  0  0  0  0  0
    2.9882   55.1372   27.3318 H   0  0  0  0  0  0
    4.2810   54.9347   29.2729 H   0  0  0  0  0  0
    4.9302   53.3988   28.7462 H   0  0  0  0  0  0
    2.5049   53.8861   30.3977 H   0  0  0  0  0  0
    3.5473   52.4590   30.3355 H   0  0  0  0  0  0
    4.3482   54.1979   24.1703 O   0  5  0  0  0  0
  1  2  1  0  0  0
  1 31  1  0  0  0
  1 32  1  0  0  0
  1 33  1  0  0  0
  2  7  2  0  0  0
  2  3  1  0  0  0
  3  4  2  0  0  0
  3 34  1  0  0  0
  4  5  1  0  0  0
  4 35  1  0  0  0
  5  6  2  0  0  0
  5 36  1  0  0  0
  6  7  1  0  0  0
  6 29  1  0  0  0
  7  8  1  0  0  0
  8  9  1  0  0  0
  8 37  1  0  0  0
  9 10  2  0  0  0
  9 11  1  0  0  0
 11 16  1  0  0  0
 11 12  1  0  0  0
 11 38  1  0  0  0
 12 13  1  0  0  0
 12 39  1  0  0  0
 12 40  1  0  0  0
 13 14  1  0  0  0
 13 41  1  0  0  0
 13 42  1  0  0  0
 14 15  1  0  0  0
 14 17  1  0  0  0
 15 16  1  0  0  0
 15 43  1  0  0  0
 15 44  1  0  0  0
 16 45  1  0  0  0
 16 46  1  0  0  0
 17 18  2  0  0  0
 17 19  2  0  0  0
 17 20  1  0  0  0
 20 25  2  0  0  0
 20 21  1  0  0  0
 21 22  2  0  0  0
 21 47  1  0  0  0
 22 23  1  0  0  0
 22 48  1  0  0  0
 23 28  1  0  0  0
 23 24  2  0  0  0
 24 25  1  0  0  0
 24 26  1  0  0  0
 25 49  1  0  0  0
 26 27  1  0  0  0
 26 50  1  0  0  0
 26 51  1  0  0  0
 27 28  1  0  0  0
 27 52  1  0  0  0
 27 53  1  0  0  0
 28 54  1  0  0  0
 28 55  1  0  0  0
 29 30  2  0  0  0
 29 56  1  0  0  0
M  CHG  1  56  -1
M  END
> <i_i_glide_confnum>
67

> <i_i_glide_lignum>
1947

> <i_i_glide_posenum>
379

> <i_i_glide_rotatable_bonds>
6

> <i_m_Source_File_Index>
5498

> <b_m_subgroup_collapsed>
0

> <r_i_docking_score>
-4.43987

> <r_i_glide_ecoul>
-2.53545

> <r_i_glide_eff_state_penalty>
0

> <r_i_glide_einternal>
6.2893

> <r_i_glide_emodel>
-47.5219

> <r_i_glide_energy>
-40.244

> <r_i_glide_erotb>
0.512353

> <r_i_glide_esite>
-0.0871752

> <r_i_glide_evdw>
-37.7086

> <r_i_glide_gscore>
-4.43987

> <r_i_glide_hbond>
0

> <r_i_glide_ligand_efficiency>
-0.143222

> <r_i_glide_ligand_efficiency_ln>
-1.00133

> <r_i_glide_ligand_efficiency_sa>
-0.449914

> <r_i_glide_lipo>
-2.25949

> <r_i_glide_metal>
0

> <r_i_glide_rewards>
-0.339821

> <s_i_glide_gridfile>
wee1_glide-grid

> <s_m_Source_File>
wee1_decoys_glide_SP.sdf

> <s_m_Source_Path>
/Users/zhangxujun/Desktop

> <s_m_entry_id>
5773

> <s_m_entry_name>
wee1_decoys_glide_SP.5498

> <s_m_subgroup_title>
wee1_decoys_glide_SP

> <s_m_subgroupid>
wee1_decoys_glide_SP


$$$$
