@<TRIPOS>MOLECULE
ZINC00646959_1019
50   54    1
SMALL
USER_CHARGES


@<TRIPOS>ATOM
      1 C1         10.6336   56.8153   17.2445 C.2       1 UNK         0.0000 
      2 C2         10.0543   55.6048   17.6302 C.2       1 UNK         0.0000 
      3 C3          8.8273   55.9065   18.1994 C.2       1 UNK         0.0000 
      4 O4          8.6268   57.2518   18.1536 O.3       1 UNK         0.0000 
      5 C5          9.7248   57.8037   17.5789 C.2       1 UNK         0.0000 
      6 C6          7.7191   55.0649   18.7934 C.3       1 UNK         0.0000 
      7 H7          8.0877   54.0420   18.8828 H         1 UNK         0.0000 
      8 C8          6.4546   55.0544   17.9108 C.3       1 UNK         0.0000 
      9 C9          5.3519   54.1140   18.4665 C.3       1 UNK         0.0000 
     10 H10         5.6827   53.0805   18.3407 H         1 UNK         0.0000 
     11 N11         5.2693   54.3615   19.9182 N.pl3     1 UNK         0.0000 
     12 C12         6.2515   54.9291   20.7050 C.ar      1 UNK         0.0000 
     13 C13         5.8151   54.8392   22.0080 C.ar      1 UNK         0.0000 
     14 C14         4.5526   54.1858   21.9356 C.ar      1 UNK         0.0000 
     15 N15         4.2910   53.8600   20.6841 N.2       1 UNK         0.0000 
     16 C16         3.6135   53.9211   23.0138 C.2       1 UNK         0.0000 
     17 O17         2.4561   53.5660   22.7769 O.2       1 UNK         0.0000 
     18 N18         4.1289   54.0920   24.2511 N.am      1 UNK         0.0000 
     19 C19         3.5470   53.8534   25.4961 C.2       1 UNK         0.0000 
     20 C20         4.2016   53.9640   26.7291 C.2       1 UNK         0.0000 
     21 C21         3.3755   53.6064   27.8180 C.2       1 UNK         0.0000 
     22 C22         2.0881   53.2228   27.4104 C.2       1 UNK         0.0000 
     23 S23         1.9038   53.2970   25.6937 S.3       1 UNK         0.0000 
     24 C24         0.9874   52.7033   28.3286 C.3       1 UNK         0.0000 
     25 C25         1.3739   52.9663   29.8010 C.3       1 UNK         0.0000 
     26 C26         2.8470   52.6161   30.0774 C.3       1 UNK         0.0000 
     27 C27         3.8100   53.5303   29.2844 C.3       1 UNK         0.0000 
     28 C28         5.5989   54.3756   26.8671 C.1       1 UNK         0.0000 
     29 N29         6.7023   54.7000   26.9676 N.1       1 UNK         0.0000 
     30 Br30        6.7487   55.5381   23.5184 Br        1 UNK         0.0000 
     31 N31         7.3616   55.5238   20.1347 N.pl3     1 UNK         0.0000 
     32 C32         4.0077   54.2510   17.7043 C.3       1 UNK         0.0000 
     33 F33         4.1823   54.0708   16.3946 F         1 UNK         0.0000 
     34 F34         3.0978   53.3612   18.1033 F         1 UNK         0.0000 
     35 F35         3.4889   55.4702   17.8604 F         1 UNK         0.0000 
     36 H36        11.5974   56.9470   16.7759 H         1 UNK         0.0000 
     37 H37        10.4870   54.6215   17.5233 H         1 UNK         0.0000 
     38 H38         9.7170   58.8792   17.4751 H         1 UNK         0.0000 
     39 H39         6.7038   54.7630   16.8889 H         1 UNK         0.0000 
     40 H40         6.0617   56.0690   17.8174 H         1 UNK         0.0000 
     41 H41         5.0918   54.3997   24.2747 H         1 UNK         0.0000 
     42 H42         0.8596   51.6289   28.1827 H         1 UNK         0.0000 
     43 H43         0.0262   53.1692   28.1061 H         1 UNK         0.0000 
     44 H44         0.7191   52.3927   30.4633 H         1 UNK         0.0000 
     45 H45         1.1973   54.0153   30.0460 H         1 UNK         0.0000 
     46 H46         3.0295   51.5757   29.7991 H         1 UNK         0.0000 
     47 H47         3.0604   52.6823   31.1456 H         1 UNK         0.0000 
     48 H48         3.8221   54.5334   29.7151 H         1 UNK         0.0000 
     49 H49         4.8296   53.1487   29.3701 H         1 UNK         0.0000 
     50 H50         8.1703   55.7203   20.7071 H         1 UNK         0.0000 
@<TRIPOS>BOND
     1    1    5 2    
     2    1    2 1    
     3    1   36 1    
     4    2    3 2    
     5    2   37 1    
     6    3    4 1    
     7    3    6 1    
     8    4    5 1    
     9    5   38 1    
    10    6    7 1    
    11    6   31 1    
    12    6    8 1    
    13    8    9 1    
    14    8   39 1    
    15    8   40 1    
    16    9   10 1    
    17    9   11 1    
    18    9   32 1    
    19   11   15 ar   
    20   11   12 ar   
    21   12   13 ar   
    22   12   31 1    
    23   13   14 ar   
    24   13   30 1    
    25   14   15 ar   
    26   14   16 1    
    27   16   17 2    
    28   16   18 am   BACKBONE|DICT|INTERRES
    29   18   19 am   BACKBONE|DICT|INTERRES
    30   18   41 1    
    31   19   23 1    
    32   19   20 2    
    33   20   21 1    
    34   20   28 1    
    35   21   27 1    
    36   21   22 2    
    37   22   23 1    
    38   22   24 1    
    39   24   25 1    
    40   24   42 1    
    41   24   43 1    
    42   25   26 1    
    43   25   44 1    
    44   25   45 1    
    45   26   27 1    
    46   26   46 1    
    47   26   47 1    
    48   27   48 1    
    49   27   49 1    
    50   28   29 3    
    51   31   50 1    
    52   32   33 1    
    53   32   34 1    
    54   32   35 1    
@<TRIPOS>SUBSTRUCTURE
     1 UNK         1 GROUP             0       ****    0 ROOT    
