@<TRIPOS>MOLECULE
ZINC08833361_4920
63   67    1
SMALL
USER_CHARGES


@<TRIPOS>ATOM
      1 C1          7.9452   52.0204   16.9286 C.3       1 UNK         0.0000 
      2 C2          6.8026   52.4978   16.0410 C.ar      1 UNK         0.0000 
      3 C3          6.8824   52.3038   14.6603 C.ar      1 UNK         0.0000 
      4 C4          5.8473   52.7225   13.8247 C.ar      1 UNK         0.0000 
      5 C5          4.7049   53.3411   14.3501 C.ar      1 UNK         0.0000 
      6 C6          4.6269   53.5323   15.7355 C.ar      1 UNK         0.0000 
      7 C7          5.6680   53.1279   16.5778 C.ar      1 UNK         0.0000 
      8 N8          5.5416   53.2960   17.9672 N.pl3     1 UNK         0.0000 
      9 C9          5.5737   54.4503   18.7037 C.2       1 UNK         0.0000 
     10 S10         5.7229   55.9910   18.0267 S.2       1 UNK         0.0000 
     11 N11         5.4656   54.1896   20.0455 N.am      1 UNK         0.0000 
     12 C12         5.9509   54.8690   21.1169 C.2       1 UNK         0.0000 
     13 O13         6.8576   55.7075   21.0632 O.2       1 UNK         0.0000 
     14 C14         5.3728   54.4982   22.4605 C.ar      1 UNK         0.0000 
     15 C15         4.0395   54.0963   22.6133 C.ar      1 UNK         0.0000 
     16 C16         3.5061   53.9015   23.8876 C.ar      1 UNK         0.0000 
     17 C17         4.2691   54.0898   25.0524 C.ar      1 UNK         0.0000 
     18 C18         5.6243   54.4365   24.8868 C.ar      1 UNK         0.0000 
     19 C19         6.1525   54.6499   23.6085 C.ar      1 UNK         0.0000 
     20 N20         6.5335   54.6127   26.0174 N.pl3     1 UNK         0.0000 
     21 O21         6.7026   53.6946   26.8116 O.co2     1 UNK         0.0000 
     22 O22         7.0940   55.6925   26.0779 O.co2     1 UNK         0.0000 
     23 N23         3.6303   53.9587   26.2914 N.pl3     1 UNK         0.0000 
     24 C24         4.0033   54.5810   27.5777 C.3       1 UNK         0.0000 
     25 C25         2.7614   55.1358   28.3236 C.3       1 UNK         0.0000 
     26 C26         1.6659   54.0780   28.5058 C.3       1 UNK         0.0000 
     27 C27         1.4199   53.3820   27.1619 C.3       1 UNK         0.0000 
     28 C28         2.7096   52.8448   26.5661 C.3       1 UNK         0.0000 
     29 C29         3.5824   53.7885   13.4601 C.ar      1 UNK         0.0000 
     30 N30         3.5762   53.6234   12.0906 N.pl3     1 UNK         0.0000 
     31 H31         4.3289   53.1899   11.5794 H         1 UNK         0.0000 
     32 C32         2.3980   54.1411   11.6073 C.ar      1 UNK         0.0000 
     33 C33         1.8419   54.2524   10.3298 C.ar      1 UNK         0.0000 
     34 C34         0.5834   54.8562   10.2497 C.ar      1 UNK         0.0000 
     35 C35        -0.0855   55.3263   11.3816 C.ar      1 UNK         0.0000 
     36 C36         0.4767   55.2142   12.6550 C.ar      1 UNK         0.0000 
     37 C37         1.7373   54.6109   12.7686 C.ar      1 UNK         0.0000 
     38 N38         2.4897   54.3810   13.8895 N.2       1 UNK         0.0000 
     39 H39         8.7411   51.5359   16.3624 H         1 UNK         0.0000 
     40 H40         8.3746   52.8605   17.4753 H         1 UNK         0.0000 
     41 H41         7.5757   51.3073   17.6659 H         1 UNK         0.0000 
     42 H42         7.7481   51.8229   14.2286 H         1 UNK         0.0000 
     43 H43         5.9449   52.5549   12.7632 H         1 UNK         0.0000 
     44 H44         3.7521   53.9982   16.1665 H         1 UNK         0.0000 
     45 H45         5.5075   52.4186   18.4742 H         1 UNK         0.0000 
     46 H46         4.8343   53.4381   20.2751 H         1 UNK         0.0000 
     47 H47         3.3861   53.9886   21.7589 H         1 UNK         0.0000 
     48 H48         2.4603   53.6484   23.9646 H         1 UNK         0.0000 
     49 H49         7.1884   54.9558   23.5155 H         1 UNK         0.0000 
     50 H50         4.6834   55.4094   27.4091 H         1 UNK         0.0000 
     51 H51         4.5318   53.8548   28.1984 H         1 UNK         0.0000 
     52 H52         2.3474   55.9919   27.7907 H         1 UNK         0.0000 
     53 H53         3.0644   55.5284   29.2941 H         1 UNK         0.0000 
     54 H54         1.9746   53.3441   29.2512 H         1 UNK         0.0000 
     55 H55         0.7477   54.5359   28.8757 H         1 UNK         0.0000 
     56 H56         0.6603   52.6041   27.2469 H         1 UNK         0.0000 
     57 H57         1.1046   54.0955   26.4177 H         1 UNK         0.0000 
     58 H58         2.4706   52.2709   25.6705 H         1 UNK         0.0000 
     59 H59         3.1787   52.1654   27.2815 H         1 UNK         0.0000 
     60 H60         2.3511   53.8926    9.4482 H         1 UNK         0.0000 
     61 H61         0.1124   54.9637    9.2830 H         1 UNK         0.0000 
     62 H62        -1.0569   55.7862   11.2679 H         1 UNK         0.0000 
     63 H63        -0.0428   55.5805   13.5277 H         1 UNK         0.0000 
@<TRIPOS>BOND
     1    1    2 1    
     2    1   39 1    
     3    1   40 1    
     4    1   41 1    
     5    2    7 ar   
     6    2    3 ar   
     7    3    4 ar   
     8    3   42 1    
     9    4    5 ar   
    10    4   43 1    
    11    5    6 ar   
    12    5   29 1    
    13    6    7 ar   
    14    6   44 1    
    15    7    8 1    
    16    8    9 1    
    17    8   45 1    
    18    9   10 2    
    19    9   11 am   BACKBONE|DICT|INTERRES
    20   11   12 am   BACKBONE|DICT|INTERRES
    21   11   46 1    
    22   12   13 2    
    23   12   14 1    
    24   14   19 ar   
    25   14   15 ar   
    26   15   16 ar   
    27   15   47 1    
    28   16   17 ar   
    29   16   48 1    
    30   17   18 ar   
    31   17   23 1    
    32   18   19 ar   
    33   18   20 1    
    34   19   49 1    
    35   20   21 2    
    36   20   22 1    
    37   23   28 1    
    38   23   24 1    
    39   24   25 1    
    40   24   50 1    
    41   24   51 1    
    42   25   26 1    
    43   25   52 1    
    44   25   53 1    
    45   26   27 1    
    46   26   54 1    
    47   26   55 1    
    48   27   28 1    
    49   27   56 1    
    50   27   57 1    
    51   28   58 1    
    52   28   59 1    
    53   29   38 ar   
    54   29   30 ar   
    55   30   31 1    
    56   30   32 ar   
    57   32   37 ar   
    58   32   33 ar   
    59   33   34 ar   
    60   33   60 1    
    61   34   35 ar   
    62   34   61 1    
    63   35   36 ar   
    64   35   62 1    
    65   36   37 ar   
    66   36   63 1    
    67   37   38 ar   
@<TRIPOS>SUBSTRUCTURE
     1 UNK         1 GROUP             0       ****    0 ROOT    
