@<TRIPOS>MOLECULE
ZINC39741613_3177
55   57    1
SMALL
USER_CHARGES


@<TRIPOS>ATOM
      1 C1         -0.1748   59.4932   15.6746 C.3       1 UNK         0.0000 
      2 C2         -1.0980   58.3112   15.9276 C.ar      1 UNK         0.0000 
      3 C3         -0.5678   57.1078   16.4066 C.ar      1 UNK         0.0000 
      4 C4         -1.3912   55.9992   16.6284 C.ar      1 UNK         0.0000 
      5 C5         -2.7617   56.1028   16.3467 C.ar      1 UNK         0.0000 
      6 C6         -3.2970   57.3041   15.8857 C.ar      1 UNK         0.0000 
      7 C7         -2.4740   58.4100   15.6819 C.ar      1 UNK         0.0000 
      8 Br8        -3.2632   60.0397   15.0826 Br        1 UNK         0.0000 
      9 N9         -0.7677   54.8182   17.0704 N.am      1 UNK         0.0000 
     10 C10        -1.3239   53.7507   17.6816 C.2       1 UNK         0.0000 
     11 O11        -2.4955   53.6958   18.0555 O.2       1 UNK         0.0000 
     12 C12        -0.3653   52.5820   17.9427 C.3       1 UNK         0.0000 
     13 S13        -1.1484   51.0972   18.6695 S.3       1 UNK         0.0000 
     14 C14        -0.6580   51.3633   20.3403 C.ar      1 UNK         0.0000 
     15 N15        -1.4938   51.7375   21.2750 N.2       1 UNK         0.0000 
     16 N16        -0.7802   51.8077   22.4619 N.2       1 UNK         0.0000 
     17 C17         0.4578   51.4496   22.2059 C.ar      1 UNK         0.0000 
     18 N18         0.6059   51.1486   20.8607 N.pl3     1 UNK         0.0000 
     19 C19         1.7909   50.6638   20.1248 C.3       1 UNK         0.0000 
     20 C20         3.0179   51.5796   20.3076 C.3       1 UNK         0.0000 
     21 C21         2.0762   49.1842   20.4475 C.3       1 UNK         0.0000 
     22 C22         1.5692   51.3646   23.2479 C.3       1 UNK         0.0000 
     23 N23         1.1027   51.5142   24.6293 N.am      1 UNK         0.0000 
     24 C24         1.1929   52.6402   25.3591 C.2       1 UNK         0.0000 
     25 O25         1.6293   53.6989   24.9024 O.2       1 UNK         0.0000 
     26 C26         0.7447   52.5331   26.7979 C.ar      1 UNK         0.0000 
     27 C27        -0.3875   51.7780   27.1450 C.ar      1 UNK         0.0000 
     28 C28        -0.8062   51.6947   28.4738 C.ar      1 UNK         0.0000 
     29 C29        -0.0961   52.3500   29.4763 C.ar      1 UNK         0.0000 
     30 C30         1.0295   53.0994   29.1470 C.ar      1 UNK         0.0000 
     31 C31         1.4518   53.1942   27.8206 C.ar      1 UNK         0.0000 
     32 F32         2.5572   53.9269   27.5517 F         1 UNK         0.0000 
     33 H33         0.8647   59.2700   15.9205 H         1 UNK         0.0000 
     34 H34        -0.4908   60.3488   16.2713 H         1 UNK         0.0000 
     35 H35        -0.2206   59.7873   14.6246 H         1 UNK         0.0000 
     36 H36         0.4922   57.0414   16.6019 H         1 UNK         0.0000 
     37 H37        -3.4283   55.2637   16.4690 H         1 UNK         0.0000 
     38 H38        -4.3564   57.3750   15.6890 H         1 UNK         0.0000 
     39 H39         0.2334   54.7951   16.9452 H         1 UNK         0.0000 
     40 H40         0.0629   52.2767   16.9872 H         1 UNK         0.0000 
     41 H41         0.4626   52.9260   18.5647 H         1 UNK         0.0000 
     42 H42         1.5501   50.7009   19.0611 H         1 UNK         0.0000 
     43 H43         3.7693   51.3619   19.5473 H         1 UNK         0.0000 
     44 H44         2.7526   52.6353   20.2105 H         1 UNK         0.0000 
     45 H45         3.5077   51.4374   21.2680 H         1 UNK         0.0000 
     46 H46         2.8058   48.7774   19.7468 H         1 UNK         0.0000 
     47 H47         2.4780   49.0431   21.4507 H         1 UNK         0.0000 
     48 H48         1.1763   48.5734   20.3595 H         1 UNK         0.0000 
     49 H49         2.0516   50.3889   23.1981 H         1 UNK         0.0000 
     50 H50         2.3533   52.0919   23.0363 H         1 UNK         0.0000 
     51 H51         0.7093   50.6950   25.0673 H         1 UNK         0.0000 
     52 H52        -0.9598   51.2511   26.3943 H         1 UNK         0.0000 
     53 H53        -1.6664   51.0940   28.7298 H         1 UNK         0.0000 
     54 H54        -0.4162   52.2693   30.5064 H         1 UNK         0.0000 
     55 H55         1.5813   53.6090   29.9225 H         1 UNK         0.0000 
@<TRIPOS>BOND
     1    1    2 1    
     2    1   33 1    
     3    1   34 1    
     4    1   35 1    
     5    2    7 ar   
     6    2    3 ar   
     7    3    4 ar   
     8    3   36 1    
     9    4    5 ar   
    10    4    9 1    
    11    5    6 ar   
    12    5   37 1    
    13    6    7 ar   
    14    6   38 1    
    15    7    8 1    
    16    9   10 am   BACKBONE|DICT|INTERRES
    17    9   39 1    
    18   10   11 2    
    19   10   12 1    
    20   12   13 1    
    21   12   40 1    
    22   12   41 1    
    23   13   14 1    
    24   14   18 ar   
    25   14   15 ar   
    26   15   16 ar   
    27   16   17 ar   
    28   17   18 ar   
    29   17   22 1    
    30   18   19 1    
    31   19   20 1    
    32   19   21 1    
    33   19   42 1    
    34   20   43 1    
    35   20   44 1    
    36   20   45 1    
    37   21   46 1    
    38   21   47 1    
    39   21   48 1    
    40   22   23 1    
    41   22   49 1    
    42   22   50 1    
    43   23   24 am   BACKBONE|DICT|INTERRES
    44   23   51 1    
    45   24   25 2    
    46   24   26 1    
    47   26   31 ar   
    48   26   27 ar   
    49   27   28 ar   
    50   27   52 1    
    51   28   29 ar   
    52   28   53 1    
    53   29   30 ar   
    54   29   54 1    
    55   30   31 ar   
    56   30   55 1    
    57   31   32 1    
@<TRIPOS>SUBSTRUCTURE
     1 UNK         1 GROUP             0       ****    0 ROOT    
