ZINC09869616_2697
                    3D
 Schrodinger Suite 2024-2.
 36 38  0  0  1  0            999 V2000
    4.9650   54.3739   28.4721 C   0  0  0  0  0  0
    4.0641   53.9494   29.4425 C   0  0  0  0  0  0
    2.8483   53.3783   29.0906 C   0  0  0  0  0  0
    2.5051   53.2690   27.7361 C   0  0  0  0  0  0
    3.4131   53.6968   26.7555 C   0  0  0  0  0  0
    4.6592   54.2431   27.1120 C   0  0  0  0  0  0
    5.6616   54.7057   26.0965 C   0  0  0  0  0  0
    6.7045   55.2964   26.3939 O   0  0  0  0  0  0
    5.3204   54.3972   24.8246 O   0  0  0  0  0  0
    6.1696   54.7617   23.7381 C   0  0  0  0  0  0
    5.5546   54.4282   22.3785 C   0  0  0  0  0  0
    4.3827   53.6520   22.2788 C   0  0  0  0  0  0
    3.9068   53.3388   21.0115 C   0  0  0  0  0  0
    4.5173   53.7979   19.8826 C   0  0  0  0  0  0
    5.6535   54.5930   19.9364 C   0  0  0  0  0  0
    6.1800   54.8968   21.2002 C   0  0  0  0  0  0
    7.7862   55.9183   21.2814 Br  0  0  0  0  0  0
    3.8322   53.3735   18.7913 O   0  0  0  0  0  0
    2.8468   52.4960   19.2685 C   0  0  0  0  0  0
    2.8234   52.5946   20.6702 O   0  0  0  0  0  0
    0.9063   52.6252   27.2418 S   0  0  0  0  0  0
   -0.0961   53.2910   28.0792 O   0  0  0  0  0  0
    0.8390   52.6818   25.7779 O   0  0  0  0  0  0
    0.9155   50.9449   27.6802 N   0  0  0  0  0  0
    1.8232   52.8236   30.3714 Cl  0  0  0  0  0  0
    5.9037   54.8040   28.7938 H   0  0  0  0  0  0
    4.3042   54.0582   30.4835 H   0  0  0  0  0  0
    3.1403   53.6032   25.7132 H   0  0  0  0  0  0
    6.3542   55.8366   23.7772 H   0  0  0  0  0  0
    7.1358   54.2612   23.8258 H   0  0  0  0  0  0
    3.8665   53.2963   23.1568 H   0  0  0  0  0  0
    6.1321   54.9505   19.0368 H   0  0  0  0  0  0
    1.8768   52.7836   18.8618 H   0  0  0  0  0  0
    3.1050   51.4758   18.9746 H   0  0  0  0  0  0
    0.2436   50.7052   28.4151 H   0  0  0  0  0  0
    0.8519   50.3113   26.8800 H   0  0  0  0  0  0
  1  6  2  0  0  0
  1  2  1  0  0  0
  1 26  1  0  0  0
  2  3  2  0  0  0
  2 27  1  0  0  0
  3  4  1  0  0  0
  3 25  1  0  0  0
  4  5  2  0  0  0
  4 21  1  0  0  0
  5  6  1  0  0  0
  5 28  1  0  0  0
  6  7  1  0  0  0
  7  8  2  0  0  0
  7  9  1  0  0  0
  9 10  1  0  0  0
 10 11  1  0  0  0
 10 29  1  0  0  0
 10 30  1  0  0  0
 11 16  2  0  0  0
 11 12  1  0  0  0
 12 13  2  0  0  0
 12 31  1  0  0  0
 13 20  1  0  0  0
 13 14  1  0  0  0
 14 15  2  0  0  0
 14 18  1  0  0  0
 15 16  1  0  0  0
 15 32  1  0  0  0
 16 17  1  0  0  0
 18 19  1  0  0  0
 19 20  1  0  0  0
 19 33  1  0  0  0
 19 34  1  0  0  0
 21 22  2  0  0  0
 21 23  2  0  0  0
 21 24  1  0  0  0
 24 35  1  0  0  0
 24 36  1  0  0  0
M  END
> <i_i_glide_confnum>
5

> <i_i_glide_lignum>
2698

> <i_i_glide_posenum>
359

> <i_i_glide_rotatable_bonds>
5

> <i_m_Source_File_Index>
685

> <b_m_subgroup_collapsed>
0

> <r_i_docking_score>
-5.95403

> <r_i_glide_ecoul>
-3.15177

> <r_i_glide_eff_state_penalty>
0

> <r_i_glide_einternal>
1.66364

> <r_i_glide_emodel>
-59.9442

> <r_i_glide_energy>
-44.5484

> <r_i_glide_erotb>
0.298568

> <r_i_glide_esite>
-0.0522473

> <r_i_glide_evdw>
-41.3966

> <r_i_glide_gscore>
-5.95403

> <r_i_glide_hbond>
-0.32

> <r_i_glide_ligand_efficiency>
-0.238161

> <r_i_glide_ligand_efficiency_ln>
-1.41128

> <r_i_glide_ligand_efficiency_sa>
-0.696387

> <r_i_glide_lipo>
-2.41131

> <r_i_glide_metal>
0

> <r_i_glide_rewards>
-0.926444

> <s_i_glide_gridfile>
wee1_glide-grid

> <s_m_Source_File>
wee1_decoys_glide_SP.sdf

> <s_m_Source_Path>
/Users/zhangxujun/Desktop

> <s_m_entry_id>
960

> <s_m_entry_name>
wee1_decoys_glide_SP.685

> <s_m_subgroup_title>
wee1_decoys_glide_SP

> <s_m_subgroupid>
wee1_decoys_glide_SP


$$$$
