@<TRIPOS>MOLECULE
ZINC44020728_4584
61   62    1
SMALL
USER_CHARGES


@<TRIPOS>ATOM
      1 C1         -4.6405   44.0366   21.8267 C.3       1 UNK         0.0000 
      2 C2         -4.1993   45.4098   21.2853 C.3       1 UNK         0.0000 
      3 C3         -5.1537   45.9228   20.1956 C.3       1 UNK         0.0000 
      4 N4         -4.0602   46.4048   22.3473 N.am      1 UNK         0.0000 
      5 C5         -3.0423   46.4975   23.2250 C.2       1 UNK         0.0000 
      6 O6         -2.0956   45.7060   23.2539 O.2       1 UNK         0.0000 
      7 C7         -3.1846   47.6339   24.1695 C.2       1 UNK         0.0000 
      8 O8         -4.2756   48.1817   24.3737 O.2       1 UNK         0.0000 
      9 N9         -2.0178   47.9912   24.7620 N.am      1 UNK         0.0000 
     10 N10        -1.9995   49.0468   25.6817 N.am      1 UNK         0.0000 
     11 C11        -1.9940   50.3365   25.2701 C.2       1 UNK         0.0000 
     12 O12        -1.7536   50.6532   24.0991 O.2       1 UNK         0.0000 
     13 C13        -2.1550   51.4387   26.3787 C.3       1 UNK         0.0000 
     14 C14        -3.2774   51.0115   27.3983 C.3       1 UNK         0.0000 
     15 C15        -4.6904   50.8698   26.7818 C.3       1 UNK         0.0000 
     16 C16        -5.1291   52.1575   26.0544 C.3       1 UNK         0.0000 
     17 C17        -4.0711   52.6600   25.0515 C.3       1 UNK         0.0000 
     18 C18        -2.6735   52.7663   25.7110 C.3       1 UNK         0.0000 
     19 C19        -0.7813   51.7463   27.0415 C.ar      1 UNK         0.0000 
     20 C20        -0.6065   51.7010   28.4327 C.ar      1 UNK         0.0000 
     21 C21         0.5822   52.1252   29.0180 C.ar      1 UNK         0.0000 
     22 C22         1.6458   52.5935   28.2355 C.ar      1 UNK         0.0000 
     23 C23         1.4979   52.5738   26.8412 C.ar      1 UNK         0.0000 
     24 C24         0.3053   52.1563   26.2561 C.ar      1 UNK         0.0000 
     25 C25         2.9290   53.1291   28.9223 C.3       1 UNK         0.0000 
     26 C26         2.6008   54.4632   29.6289 C.3       1 UNK         0.0000 
     27 C27         4.0924   53.4000   27.9304 C.3       1 UNK         0.0000 
     28 C28         3.4506   52.1177   29.9732 C.3       1 UNK         0.0000 
     29 H29        -4.7986   43.3307   21.0120 H         1 UNK         0.0000 
     30 H30        -3.8905   43.5966   22.4814 H         1 UNK         0.0000 
     31 H31        -5.5858   44.1053   22.3667 H         1 UNK         0.0000 
     32 H32        -3.2218   45.2864   20.8100 H         1 UNK         0.0000 
     33 H33        -5.2755   45.1825   19.4038 H         1 UNK         0.0000 
     34 H34        -6.1506   46.1187   20.5930 H         1 UNK         0.0000 
     35 H35        -4.7759   46.8303   19.7242 H         1 UNK         0.0000 
     36 H36        -4.7937   47.0949   22.4260 H         1 UNK         0.0000 
     37 H37        -1.1115   47.5828   24.5838 H         1 UNK         0.0000 
     38 H38        -2.0845   48.7486   26.6518 H         1 UNK         0.0000 
     39 H39        -2.9980   50.1139   27.9538 H         1 UNK         0.0000 
     40 H40        -3.3618   51.7770   28.1694 H         1 UNK         0.0000 
     41 H41        -4.7170   50.0310   26.0882 H         1 UNK         0.0000 
     42 H42        -5.4103   50.6253   27.5637 H         1 UNK         0.0000 
     43 H43        -6.0773   51.9902   25.5417 H         1 UNK         0.0000 
     44 H44        -5.3190   52.9373   26.7936 H         1 UNK         0.0000 
     45 H45        -4.0380   51.9918   24.1902 H         1 UNK         0.0000 
     46 H46        -4.3689   53.6328   24.6580 H         1 UNK         0.0000 
     47 H47        -2.7418   53.5347   26.4821 H         1 UNK         0.0000 
     48 H48        -1.9483   53.1776   25.0062 H         1 UNK         0.0000 
     49 H49        -1.3906   51.3657   29.0943 H         1 UNK         0.0000 
     50 H50         0.6506   52.1117   30.0957 H         1 UNK         0.0000 
     51 H51         2.2868   52.9058   26.1848 H         1 UNK         0.0000 
     52 H52         0.2169   52.1924   25.1799 H         1 UNK         0.0000 
     53 H53         3.4935   54.8924   30.0825 H         1 UNK         0.0000 
     54 H54         1.8541   54.3392   30.4154 H         1 UNK         0.0000 
     55 H55         2.2114   55.2012   28.9252 H         1 UNK         0.0000 
     56 H56         4.3682   52.5053   27.3727 H         1 UNK         0.0000 
     57 H57         3.8414   54.1791   27.2092 H         1 UNK         0.0000 
     58 H58         4.9912   53.7382   28.4485 H         1 UNK         0.0000 
     59 H59         3.6288   51.1437   29.5209 H         1 UNK         0.0000 
     60 H60         4.3905   52.4460   30.4169 H         1 UNK         0.0000 
     61 H61         2.7545   51.9798   30.8007 H         1 UNK         0.0000 
@<TRIPOS>BOND
     1    1    2 1    
     2    1   29 1    
     3    1   30 1    
     4    1   31 1    
     5    2    3 1    
     6    2    4 1    
     7    2   32 1    
     8    3   33 1    
     9    3   34 1    
    10    3   35 1    
    11    4    5 am   BACKBONE|DICT|INTERRES
    12    4   36 1    
    13    5    6 2    
    14    5    7 1    
    15    7    8 2    
    16    7    9 am   BACKBONE|DICT|INTERRES
    17    9   10 1    
    18    9   37 1    
    19   10   11 am   BACKBONE|DICT|INTERRES
    20   10   38 1    
    21   11   12 2    
    22   11   13 1    
    23   13   18 1    
    24   13   14 1    
    25   13   19 1    
    26   14   15 1    
    27   14   39 1    
    28   14   40 1    
    29   15   16 1    
    30   15   41 1    
    31   15   42 1    
    32   16   17 1    
    33   16   43 1    
    34   16   44 1    
    35   17   18 1    
    36   17   45 1    
    37   17   46 1    
    38   18   47 1    
    39   18   48 1    
    40   19   24 ar   
    41   19   20 ar   
    42   20   21 ar   
    43   20   49 1    
    44   21   22 ar   
    45   21   50 1    
    46   22   23 ar   
    47   22   25 1    
    48   23   24 ar   
    49   23   51 1    
    50   24   52 1    
    51   25   26 1    
    52   25   27 1    
    53   25   28 1    
    54   26   53 1    
    55   26   54 1    
    56   26   55 1    
    57   27   56 1    
    58   27   57 1    
    59   27   58 1    
    60   28   59 1    
    61   28   60 1    
    62   28   61 1    
@<TRIPOS>SUBSTRUCTURE
     1 UNK         1 GROUP             0       ****    0 ROOT    
