ZINC58849328_4002
                    3D
 Schrodinger Suite 2024-2.
 62 67  0  0  1  0            999 V2000
    5.5044   53.6929   21.5772 C   0  0  0  0  0  0
    4.2124   53.9718   22.0847 O   0  0  0  0  0  0
    4.0542   54.0874   23.4476 C   0  0  0  0  0  0
    2.7514   53.9783   23.9179 C   0  0  0  0  0  0
    2.4827   54.0967   25.2748 C   0  0  0  0  0  0
    3.5053   54.3578   26.1908 C   0  0  0  0  0  0
    4.8292   54.4295   25.7371 C   0  0  0  0  0  0
    5.0962   54.2995   24.3662 C   0  0  0  0  0  0
    5.8428   54.7340   26.6138 O   0  0  0  0  0  0
    6.8218   53.7169   26.7716 C   0  0  0  0  0  0
    3.1715   54.6467   27.5235 N   0  0  0  0  0  0
    3.2262   53.4600   28.8340 S   0  0  0  0  0  0
    4.2890   52.4970   28.5494 O   0  0  0  0  0  0
    3.2173   54.2289   30.0817 O   0  0  0  0  0  0
    1.6551   52.6180   28.7230 C   0  0  0  0  0  0
    0.7919   52.5763   29.8164 C   0  0  0  0  0  0
   -0.4953   52.0757   29.6530 C   0  0  0  0  0  0
   -0.9339   51.6500   28.3949 C   0  0  0  0  0  0
   -0.0797   51.6995   27.2768 C   0  0  0  0  0  0
    1.2383   52.1082   27.4941 C   0  0  0  0  0  0
   -0.5767   51.3818   25.8595 C   0  0  1  0  0  0
   -0.4460   52.2942   25.2755 H   0  0  0  0  0  0
    0.1356   50.2200   25.1922 C   0  0  0  0  0  0
   -0.6638   49.1498   25.0623 C   0  0  0  0  0  0
   -2.0567   49.4341   25.5747 C   0  0  0  0  0  0
   -2.0516   50.9528   25.8009 C   0  0  1  0  0  0
   -2.4641   51.3835   24.8858 H   0  0  0  0  0  0
   -2.9319   51.5001   26.9601 C   0  0  2  0  0  0
   -2.9975   52.5833   26.8431 H   0  0  0  0  0  0
   -2.2838   51.2967   28.2544 N   0  0  0  0  0  0
   -4.3736   50.9975   26.8860 C   0  0  0  0  0  0
   -5.3117   51.6968   26.1000 C   0  0  0  0  0  0
   -6.6389   51.2584   25.9987 C   0  0  0  0  0  0
   -6.9937   50.1140   26.7041 C   0  0  0  0  0  0
   -6.0911   49.4259   27.4637 C   0  0  0  0  0  0
   -4.7667   49.8335   27.5751 C   0  0  0  0  0  0
   -6.6943   48.3327   27.9997 O   0  0  0  0  0  0
   -8.0623   48.4828   27.7233 C   0  0  0  0  0  0
   -8.1935   49.4779   26.7428 O   0  0  0  0  0  0
    5.4429   53.5130   20.5036 H   0  0  0  0  0  0
    5.9043   52.7917   22.0454 H   0  0  0  0  0  0
    6.1931   54.5243   21.7362 H   0  0  0  0  0  0
    1.9432   53.8178   23.2191 H   0  0  0  0  0  0
    1.4553   54.0668   25.6012 H   0  0  0  0  0  0
    6.1148   54.4010   24.0258 H   0  0  0  0  0  0
    7.6905   54.1321   27.2807 H   0  0  0  0  0  0
    6.4467   52.8981   27.3826 H   0  0  0  0  0  0
    7.1431   53.2967   25.8192 H   0  0  0  0  0  0
    2.7025   55.5150   27.7260 H   0  0  0  0  0  0
    1.0960   52.9527   30.7830 H   0  0  0  0  0  0
   -1.1580   52.0398   30.5064 H   0  0  0  0  0  0
    1.9266   52.0967   26.6676 H   0  0  0  0  0  0
    1.1677   50.2728   24.8836 H   0  0  0  0  0  0
   -0.3847   48.1913   24.6508 H   0  0  0  0  0  0
   -2.2615   48.8732   26.4816 H   0  0  0  0  0  0
   -2.8138   49.1512   24.8428 H   0  0  0  0  0  0
   -2.8952   51.2349   29.0546 H   0  0  0  0  0  0
   -5.0082   52.5812   25.5592 H   0  0  0  0  0  0
   -7.3518   51.7927   25.3874 H   0  0  0  0  0  0
   -4.0542   49.2679   28.1622 H   0  0  0  0  0  0
   -8.5783   48.8046   28.6299 H   0  0  0  0  0  0
   -8.4894   47.5421   27.3740 H   0  0  0  0  0  0
  1  2  1  0  0  0
  1 40  1  0  0  0
  1 41  1  0  0  0
  1 42  1  0  0  0
  2  3  1  0  0  0
  3  8  2  0  0  0
  3  4  1  0  0  0
  4  5  2  0  0  0
  4 43  1  0  0  0
  5  6  1  0  0  0
  5 44  1  0  0  0
  6  7  2  0  0  0
  6 11  1  0  0  0
  7  8  1  0  0  0
  7  9  1  0  0  0
  8 45  1  0  0  0
  9 10  1  0  0  0
 10 46  1  0  0  0
 10 47  1  0  0  0
 10 48  1  0  0  0
 11 12  1  0  0  0
 11 49  1  0  0  0
 12 13  2  0  0  0
 12 14  2  0  0  0
 12 15  1  0  0  0
 15 20  2  0  0  0
 15 16  1  0  0  0
 16 17  2  0  0  0
 16 50  1  0  0  0
 17 18  1  0  0  0
 17 51  1  0  0  0
 18 30  1  0  0  0
 18 19  2  0  0  0
 19 20  1  0  0  0
 19 21  1  0  0  0
 20 52  1  0  0  0
 21 22  1  0  0  0
 21 26  1  0  0  0
 21 23  1  0  0  0
 23 24  2  0  0  0
 23 53  1  0  0  0
 24 25  1  0  0  0
 24 54  1  0  0  0
 25 26  1  0  0  0
 25 55  1  0  0  0
 25 56  1  0  0  0
 26 27  1  0  0  0
 26 28  1  0  0  0
 28 29  1  0  0  0
 28 30  1  0  0  0
 28 31  1  0  0  0
 30 57  1  0  0  0
 31 36  2  0  0  0
 31 32  1  0  0  0
 32 33  2  0  0  0
 32 58  1  0  0  0
 33 34  1  0  0  0
 33 59  1  0  0  0
 34 39  1  0  0  0
 34 35  2  0  0  0
 35 36  1  0  0  0
 35 37  1  0  0  0
 36 60  1  0  0  0
 37 38  1  0  0  0
 38 39  1  0  0  0
 38 61  1  0  0  0
 38 62  1  0  0  0
M  END
> <i_i_glide_confnum>
11

> <i_i_glide_lignum>
4003

> <i_i_glide_posenum>
198

> <i_i_glide_rotatable_bonds>
6

> <i_m_Source_File_Index>
415

> <b_m_subgroup_collapsed>
0

> <r_i_docking_score>
-3.96762

> <r_i_glide_ecoul>
-3.11931

> <r_i_glide_eff_state_penalty>
0

> <r_i_glide_einternal>
15.1037

> <r_i_glide_emodel>
-44.8066

> <r_i_glide_energy>
-44.1726

> <r_i_glide_erotb>
0.318936

> <r_i_glide_esite>
-0.163251

> <r_i_glide_evdw>
-41.0533

> <r_i_glide_gscore>
-3.96762

> <r_i_glide_hbond>
0

> <r_i_glide_ligand_efficiency>
-0.110212

> <r_i_glide_ligand_efficiency_ln>
-0.865628

> <r_i_glide_ligand_efficiency_sa>
-0.363911

> <r_i_glide_lipo>
-2.1404

> <r_i_glide_metal>
0

> <r_i_glide_rewards>
0.537656

> <s_i_glide_gridfile>
wee1_glide-grid

> <s_m_Source_File>
wee1_decoys_glide_SP.sdf

> <s_m_Source_Path>
/Users/zhangxujun/Desktop

> <s_m_entry_id>
690

> <s_m_entry_name>
wee1_decoys_glide_SP.415

> <s_m_subgroup_title>
wee1_decoys_glide_SP

> <s_m_subgroupid>
wee1_decoys_glide_SP


$$$$
