@<TRIPOS>MOLECULE
ZINC65639235_6223
55   56    1
SMALL
USER_CHARGES


@<TRIPOS>ATOM
      1 C1          6.4280   55.3335   26.5546 C.3       1 UNK         0.0000 
      2 C2          5.2965   54.4977   27.1251 C.ar      1 UNK         0.0000 
      3 C3          5.3662   54.2042   28.4863 C.ar      1 UNK         0.0000 
      4 C4          4.3036   53.5812   29.1330 C.ar      1 UNK         0.0000 
      5 C5          3.1457   53.2249   28.4378 C.ar      1 UNK         0.0000 
      6 C6          3.0901   53.4887   27.0588 C.ar      1 UNK         0.0000 
      7 C7          4.1566   54.1069   26.3903 C.ar      1 UNK         0.0000 
      8 N8          3.9674   54.3310   25.0127 N.am      1 UNK         0.0000 
      9 C9          4.8395   54.0966   24.0054 C.2       1 UNK         0.0000 
     10 O10         6.0317   53.8045   24.1465 O.2       1 UNK         0.0000 
     11 C11         4.2058   54.1847   22.6637 C.2       1 UNK         0.0000 
     12 O12         2.9873   54.3086   22.5009 O.2       1 UNK         0.0000 
     13 N13         5.0959   54.1334   21.6551 N.am      1 UNK         0.0000 
     14 C14         4.7912   54.2741   20.2314 C.3       1 UNK         0.0000 
     15 C15         4.6503   52.9344   19.4681 C.3       1 UNK         0.0000 
     16 C16         3.7030   51.8874   20.0915 C.3       1 UNK         0.0000 
     17 C17         2.4882   51.8020   19.1806 C.3       1 UNK         0.0000 
     18 N18         3.1041   52.0377   17.7945 N.4       1 UNK         0.0000 
     19 C19         4.1440   53.1519   18.0268 C.3       1 UNK         0.0000 
     20 C20         2.1140   52.1897   16.6144 C.3       1 UNK         0.0000 
     21 C21         1.3087   53.5071   16.6820 C.3       1 UNK         0.0000 
     22 C22         2.8924   52.0205   15.2991 C.3       1 UNK         0.0000 
     23 C23         2.0108   52.5629   29.1903 C.2       1 UNK         0.0000 
     24 O24         2.1966   52.0964   30.3179 O.2       1 UNK         0.0000 
     25 N25         0.8087   52.5527   28.5900 N.am      1 UNK         0.0000 
     26 C26        -0.3901   51.9700   29.1824 C.3       1 UNK         0.0000 
     27 H27         6.7044   56.0901   27.2883 H         1 UNK         0.0000 
     28 H28         7.2953   54.7111   26.3355 H         1 UNK         0.0000 
     29 H29         6.1376   55.8975   25.6695 H         1 UNK         0.0000 
     30 H30         6.2438   54.4923   29.0555 H         1 UNK         0.0000 
     31 H31         4.3762   53.3864   30.1936 H         1 UNK         0.0000 
     32 H32         2.2185   53.2033   26.4888 H         1 UNK         0.0000 
     33 H33         3.0148   54.4914   24.7169 H         1 UNK         0.0000 
     34 H34         6.0696   54.0376   21.9128 H         1 UNK         0.0000 
     35 H35         3.9043   54.8933   20.0844 H         1 UNK         0.0000 
     36 H36         5.6170   54.8376   19.7951 H         1 UNK         0.0000 
     37 H37         5.6470   52.4974   19.3750 H         1 UNK         0.0000 
     38 H38         4.1908   50.9102   20.0818 H         1 UNK         0.0000 
     39 H39         3.4334   52.0665   21.1287 H         1 UNK         0.0000 
     40 H40         1.9783   50.8367   19.1746 H         1 UNK         0.0000 
     41 H41         1.7620   52.5937   19.3614 H         1 UNK         0.0000 
     42 H42         3.6286   54.1022   17.8924 H         1 UNK         0.0000 
     43 H43         4.9003   53.0252   17.2486 H         1 UNK         0.0000 
     44 H44         1.4472   51.3361   16.7448 H         1 UNK         0.0000 
     45 H45         0.5319   53.5114   15.9162 H         1 UNK         0.0000 
     46 H46         0.8071   53.6424   17.6400 H         1 UNK         0.0000 
     47 H47         1.9265   54.3856   16.4961 H         1 UNK         0.0000 
     48 H48         2.2160   52.0167   14.4433 H         1 UNK         0.0000 
     49 H49         3.6108   52.8256   15.1437 H         1 UNK         0.0000 
     50 H50         3.4413   51.0769   15.2814 H         1 UNK         0.0000 
     51 H51         0.7166   52.9492   27.6689 H         1 UNK         0.0000 
     52 H52        -1.2520   52.1236   28.5342 H         1 UNK         0.0000 
     53 H53        -0.6039   52.4076   30.1592 H         1 UNK         0.0000 
     54 H54        -0.2637   50.8964   29.3089 H         1 UNK         0.0000 
     55 H55         3.6465   51.1963   17.5935 H         1 UNK         0.0000 
@<TRIPOS>BOND
     1    1    2 1    
     2    1   27 1    
     3    1   28 1    
     4    1   29 1    
     5    2    7 ar   
     6    2    3 ar   
     7    3    4 ar   
     8    3   30 1    
     9    4    5 ar   
    10    4   31 1    
    11    5    6 ar   
    12    5   23 1    
    13    6    7 ar   
    14    6   32 1    
    15    7    8 1    
    16    8    9 am   BACKBONE|DICT|INTERRES
    17    8   33 1    
    18    9   10 2    
    19    9   11 1    
    20   11   12 2    
    21   11   13 am   BACKBONE|DICT|INTERRES
    22   13   14 1    
    23   13   34 1    
    24   14   15 1    
    25   14   35 1    
    26   14   36 1    
    27   15   19 1    
    28   15   16 1    
    29   15   37 1    
    30   16   17 1    
    31   16   38 1    
    32   16   39 1    
    33   17   18 1    
    34   17   40 1    
    35   17   41 1    
    36   18   19 1    
    37   18   20 1    
    38   18   55 1    
    39   19   42 1    
    40   19   43 1    
    41   20   21 1    
    42   20   22 1    
    43   20   44 1    
    44   21   45 1    
    45   21   46 1    
    46   21   47 1    
    47   22   48 1    
    48   22   49 1    
    49   22   50 1    
    50   23   24 2    
    51   23   25 am   BACKBONE|DICT|INTERRES
    52   25   26 1    
    53   25   51 1    
    54   26   52 1    
    55   26   53 1    
    56   26   54 1    
@<TRIPOS>SUBSTRUCTURE
     1 UNK         1 GROUP             0       ****    0 ROOT    
