@<TRIPOS>MOLECULE
ZINC02475887_2072
48   52    1
SMALL
USER_CHARGES


@<TRIPOS>ATOM
      1 C1          8.3047   55.4883   19.4269 C.ar      1 UNK         0.0000 
      2 C2          9.1544   55.9849   18.4432 C.ar      1 UNK         0.0000 
      3 C3          8.8096   57.1406   17.7469 C.ar      1 UNK         0.0000 
      4 C4          7.6122   57.7985   18.0171 C.ar      1 UNK         0.0000 
      5 C5          6.7591   57.2994   18.9969 C.ar      1 UNK         0.0000 
      6 C6          7.1079   56.1522   19.7174 C.ar      1 UNK         0.0000 
      7 C7          6.1655   55.6331   20.7988 C.3       1 UNK         0.0000 
      8 H8          5.5279   56.4842   21.0449 H         1 UNK         0.0000 
      9 C9          5.2880   54.4707   20.2754 C.3       1 UNK         0.0000 
     10 C10         4.2434   53.9444   21.2965 C.3       1 UNK         0.0000 
     11 H11         3.3781   54.6055   21.2522 H         1 UNK         0.0000 
     12 N12         4.7901   54.0962   22.6524 N.pl3     1 UNK         0.0000 
     13 C13         5.9522   54.7482   23.0084 C.ar      1 UNK         0.0000 
     14 C14         5.9264   54.8532   24.3878 C.ar      1 UNK         0.0000 
     15 C15         4.7251   54.2303   24.7955 C.ar      1 UNK         0.0000 
     16 N16         4.0605   53.8033   23.7348 N.2       1 UNK         0.0000 
     17 C17         4.2524   54.0968   26.1659 C.2       1 UNK         0.0000 
     18 O18         4.9190   54.4961   27.1213 O.2       1 UNK         0.0000 
     19 N19         3.0368   53.5144   26.2675 N.am      1 UNK         0.0000 
     20 C20         2.3064   53.1575   27.4102 C.ar      1 UNK         0.0000 
     21 C21         0.9498   52.8472   27.1965 C.ar      1 UNK         0.0000 
     22 C22         0.1151   52.4779   28.2575 C.ar      1 UNK         0.0000 
     23 C23         0.6786   52.4296   29.5238 C.ar      1 UNK         0.0000 
     24 C24         2.0021   52.6916   29.7399 C.ar      1 UNK         0.0000 
     25 C25         2.8570   53.0551   28.7057 C.ar      1 UNK         0.0000 
     26 O26         2.2840   52.4968   31.0552 O.3       1 UNK         0.0000 
     27 C27         1.0298   52.4322   31.6812 C.3       1 UNK         0.0000 
     28 O28         0.0893   52.0997   30.6985 O.3       1 UNK         0.0000 
     29 Cl29        7.1042   55.6444   25.3539 Cl        1 UNK         0.0000 
     30 N30         6.8229   55.2172   22.0438 N.pl3     1 UNK         0.0000 
     31 C31         3.7348   52.5176   20.9730 C.3       1 UNK         0.0000 
     32 F32         4.7071   51.6150   21.1087 F         1 UNK         0.0000 
     33 F33         2.7265   52.1486   21.7643 F         1 UNK         0.0000 
     34 F34         3.2953   52.4422   19.7172 F         1 UNK         0.0000 
     35 F35         9.6429   57.6274   16.8006 F         1 UNK         0.0000 
     36 H36         8.5770   54.5865   19.9553 H         1 UNK         0.0000 
     37 H37        10.0847   55.4800   18.2262 H         1 UNK         0.0000 
     38 H38         7.3463   58.6918   17.4692 H         1 UNK         0.0000 
     39 H39         5.8311   57.8137   19.1947 H         1 UNK         0.0000 
     40 H40         5.9395   53.6522   19.9671 H         1 UNK         0.0000 
     41 H41         4.7744   54.7635   19.3581 H         1 UNK         0.0000 
     42 H42         2.5905   53.2928   25.3908 H         1 UNK         0.0000 
     43 H43         0.5282   52.8948   26.2028 H         1 UNK         0.0000 
     44 H44        -0.9244   52.2378   28.0906 H         1 UNK         0.0000 
     45 H45         3.9013   53.2378   28.9047 H         1 UNK         0.0000 
     46 H46         1.0159   51.6987   32.4884 H         1 UNK         0.0000 
     47 H47         0.7659   53.4009   32.1124 H         1 UNK         0.0000 
     48 H48         7.5246   55.8776   22.3499 H         1 UNK         0.0000 
@<TRIPOS>BOND
     1    1    6 ar   
     2    1    2 ar   
     3    1   36 1    
     4    2    3 ar   
     5    2   37 1    
     6    3    4 ar   
     7    3   35 1    
     8    4    5 ar   
     9    4   38 1    
    10    5    6 ar   
    11    5   39 1    
    12    6    7 1    
    13    7    8 1    
    14    7   30 1    
    15    7    9 1    
    16    9   10 1    
    17    9   40 1    
    18    9   41 1    
    19   10   11 1    
    20   10   12 1    
    21   10   31 1    
    22   12   16 ar   
    23   12   13 ar   
    24   13   14 ar   
    25   13   30 1    
    26   14   15 ar   
    27   14   29 1    
    28   15   16 ar   
    29   15   17 1    
    30   17   18 2    
    31   17   19 am   BACKBONE|DICT|INTERRES
    32   19   20 1    
    33   19   42 1    
    34   20   25 ar   
    35   20   21 ar   
    36   21   22 ar   
    37   21   43 1    
    38   22   23 ar   
    39   22   44 1    
    40   23   28 1    
    41   23   24 ar   
    42   24   25 ar   
    43   24   26 1    
    44   25   45 1    
    45   26   27 1    
    46   27   28 1    
    47   27   46 1    
    48   27   47 1    
    49   30   48 1    
    50   31   32 1    
    51   31   33 1    
    52   31   34 1    
@<TRIPOS>SUBSTRUCTURE
     1 UNK         1 GROUP             0       ****    0 ROOT    
