ZINC39652835_3671
                    3D
 Schrodinger Suite 2024-2.
 64 66  0  0  1  0            999 V2000
    3.6643   51.8713   31.6483 C   0  0  0  0  0  0
    3.6427   51.9931   30.1162 C   0  0  0  0  0  0
    3.0961   53.3567   29.6512 C   0  0  0  0  0  0
    2.4217   53.3494   28.2479 C   0  0  2  0  0  0
    3.1342   52.8568   27.5828 H   0  0  0  0  0  0
    2.2402   54.8017   27.7462 C   0  0  0  0  0  0
    1.1066   52.5117   28.1916 C   0  0  0  0  0  0
    0.6014   52.1260   29.2477 O   0  0  0  0  0  0
    0.5634   52.1674   26.9972 N   0  0  0  0  0  0
    0.9434   52.6900   25.6916 C   0  0  0  0  0  0
   -0.2738   52.3543   24.7851 C   0  0  2  0  0  0
   -0.9867   53.1743   24.8825 H   0  0  0  0  0  0
   -0.8165   51.0275   25.3844 C   0  0  0  0  0  0
   -0.6111   51.3043   26.8988 C   0  0  0  0  0  0
   -0.0286   49.7753   24.8911 C   0  0  0  0  0  0
   -0.3856   48.5073   25.6817 C   0  0  0  0  0  0
   -1.9197   48.2914   25.6814 N   0  3  0  0  0  0
   -2.8082   49.5432   25.8940 C   0  0  0  0  0  0
   -2.2842   50.7093   25.0258 C   0  0  0  0  0  0
    0.1394   52.3113   23.2835 C   0  0  0  0  0  0
   -0.7031   52.0258   22.4352 O   0  0  0  0  0  0
    1.3900   52.6717   22.9596 N   0  0  0  0  0  0
    2.0217   52.6927   21.6480 C   0  0  0  0  0  0
    3.5554   52.4910   21.6989 C   0  0  0  0  0  0
    4.3737   53.4844   22.5410 C   0  0  0  0  0  0
    4.0818   53.6967   23.8946 C   0  0  0  0  0  0
    4.9051   54.4658   24.6943 C   0  0  0  0  0  0
    6.0315   55.0442   24.1437 C   0  0  0  0  0  0
    6.3356   54.8884   22.7922 C   0  0  0  0  0  0
    5.4994   54.1081   21.9901 C   0  0  0  0  0  0
    7.1044   56.0966   25.2831 Br  0  0  0  0  0  0
    4.0353   50.9028   31.9757 H   0  0  0  0  0  0
    2.6656   51.9926   32.0714 H   0  0  0  0  0  0
    4.3049   52.6333   32.0887 H   0  0  0  0  0  0
    4.6478   51.8479   29.7192 H   0  0  0  0  0  0
    3.0479   51.1908   29.6826 H   0  0  0  0  0  0
    2.3771   53.7440   30.3765 H   0  0  0  0  0  0
    3.9278   54.0627   29.6660 H   0  0  0  0  0  0
    2.6650   54.8964   26.7475 H   0  0  0  0  0  0
    1.1958   55.1204   27.7204 H   0  0  0  0  0  0
    2.7656   55.5336   28.3635 H   0  0  0  0  0  0
    1.1373   53.7613   25.6644 H   0  0  0  0  0  0
    1.8072   52.0966   25.3925 H   0  0  0  0  0  0
   -0.5957   50.4195   27.5339 H   0  0  0  0  0  0
   -1.4581   51.8959   27.2512 H   0  0  0  0  0  0
   -0.1439   49.6088   23.8183 H   0  0  0  0  0  0
    1.0399   49.9293   25.0419 H   0  0  0  0  0  0
    0.0524   47.6188   25.2323 H   0  0  0  0  0  0
   -0.0690   48.5458   26.7234 H   0  0  0  0  0  0
   -2.1868   47.8429   24.8171 H   0  0  0  0  0  0
   -3.8260   49.2494   25.6332 H   0  0  0  0  0  0
   -2.7783   49.7513   26.9638 H   0  0  0  0  0  0
   -2.9035   51.5774   25.2590 H   0  0  0  0  0  0
   -2.4222   50.5331   23.9576 H   0  0  0  0  0  0
    1.9584   53.0490   23.6976 H   0  0  0  0  0  0
    1.5515   52.0164   20.9307 H   0  0  0  0  0  0
    1.8441   53.6966   21.2904 H   0  0  0  0  0  0
    3.7617   51.4867   22.0680 H   0  0  0  0  0  0
    3.9299   52.4856   20.6734 H   0  0  0  0  0  0
    3.2812   53.1911   24.3931 H   0  0  0  0  0  0
    4.6917   54.5871   25.7454 H   0  0  0  0  0  0
    7.2174   55.3534   22.3764 H   0  0  0  0  0  0
    5.7494   53.9637   20.9486 H   0  0  0  0  0  0
   -2.1158   47.6500   26.4410 H   0  0  0  0  0  0
  1  2  1  0  0  0
  1 32  1  0  0  0
  1 33  1  0  0  0
  1 34  1  0  0  0
  2  3  1  0  0  0
  2 35  1  0  0  0
  2 36  1  0  0  0
  3  4  1  0  0  0
  3 37  1  0  0  0
  3 38  1  0  0  0
  4  5  1  0  0  0
  4  6  1  0  0  0
  4  7  1  0  0  0
  6 39  1  0  0  0
  6 40  1  0  0  0
  6 41  1  0  0  0
  7  8  2  0  0  0
  7  9  1  0  0  0
  9 14  1  0  0  0
  9 10  1  0  0  0
 10 11  1  0  0  0
 10 42  1  0  0  0
 10 43  1  0  0  0
 11 12  1  0  0  0
 11 13  1  0  0  0
 11 20  1  0  0  0
 13 19  1  0  0  0
 13 14  1  0  0  0
 13 15  1  0  0  0
 14 44  1  0  0  0
 14 45  1  0  0  0
 15 16  1  0  0  0
 15 46  1  0  0  0
 15 47  1  0  0  0
 16 17  1  0  0  0
 16 48  1  0  0  0
 16 49  1  0  0  0
 17 18  1  0  0  0
 17 50  1  0  0  0
 17 64  1  0  0  0
 18 19  1  0  0  0
 18 51  1  0  0  0
 18 52  1  0  0  0
 19 53  1  0  0  0
 19 54  1  0  0  0
 20 21  2  0  0  0
 20 22  1  0  0  0
 22 23  1  0  0  0
 22 55  1  0  0  0
 23 24  1  0  0  0
 23 56  1  0  0  0
 23 57  1  0  0  0
 24 25  1  0  0  0
 24 58  1  0  0  0
 24 59  1  0  0  0
 25 30  2  0  0  0
 25 26  1  0  0  0
 26 27  2  0  0  0
 26 60  1  0  0  0
 27 28  1  0  0  0
 27 61  1  0  0  0
 28 29  2  0  0  0
 28 31  1  0  0  0
 29 30  1  0  0  0
 29 62  1  0  0  0
 30 63  1  0  0  0
M  CHG  1  17   1
M  END
> <i_i_glide_confnum>
113

> <i_i_glide_lignum>
3672

> <i_i_glide_posenum>
16

> <i_i_glide_rotatable_bonds>
9

> <i_m_Source_File_Index>
986

> <b_m_subgroup_collapsed>
0

> <r_i_docking_score>
-5.46719

> <r_i_glide_ecoul>
-6.99964

> <r_i_glide_eff_state_penalty>
0

> <r_i_glide_einternal>
14.1632

> <r_i_glide_emodel>
-49.9812

> <r_i_glide_energy>
-40.1423

> <r_i_glide_erotb>
0.651632

> <r_i_glide_esite>
-0.1

> <r_i_glide_evdw>
-33.1426

> <r_i_glide_gscore>
-5.46719

> <r_i_glide_hbond>
-0.0456473

> <r_i_glide_ligand_efficiency>
-0.188524

> <r_i_glide_ligand_efficiency_ln>
-1.25185

> <r_i_glide_ligand_efficiency_sa>
-0.579205

> <r_i_glide_lipo>
-2.54243

> <r_i_glide_metal>
0

> <r_i_glide_rewards>
-0.723671

> <s_i_glide_gridfile>
wee1_glide-grid

> <s_m_Source_File>
wee1_decoys_glide_SP.sdf

> <s_m_Source_Path>
/Users/zhangxujun/Desktop

> <s_m_entry_id>
1261

> <s_m_entry_name>
wee1_decoys_glide_SP.986

> <s_m_subgroup_title>
wee1_decoys_glide_SP

> <s_m_subgroupid>
wee1_decoys_glide_SP


$$$$
