@<TRIPOS>MOLECULE
ZINC20641381_2045
59   63    1
SMALL
USER_CHARGES


@<TRIPOS>ATOM
      1 C1          0.0898   48.8923   21.5946 C.3       1 UNK         0.0000 
      2 C2          0.6323   50.0410   20.7078 C.3       1 UNK         0.0000 
      3 C3          1.6244   49.4810   19.6134 C.3       1 UNK         0.0000 
      4 H4          2.4133   48.9117   20.1121 H         1 UNK         0.0000 
      5 C5          2.1916   50.7361   18.9009 C.3       1 UNK         0.0000 
      6 H6          2.8822   50.4941   18.0898 H         1 UNK         0.0000 
      7 C7          1.0358   51.5948   18.3857 C.ar      1 UNK         0.0000 
      8 C8          1.1995   52.5147   17.3467 C.ar      1 UNK         0.0000 
      9 C9          0.1451   53.3338   16.9460 C.ar      1 UNK         0.0000 
     10 C10        -1.0910   53.2439   17.5833 C.ar      1 UNK         0.0000 
     11 C11        -1.2837   52.3291   18.6198 C.ar      1 UNK         0.0000 
     12 C12        -0.2237   51.5012   19.0179 C.ar      1 UNK         0.0000 
     13 O13        -0.4909   50.6028   20.0499 O.3       1 UNK         0.0000 
     14 O14        -2.5055   52.2908   19.2480 O.3       1 UNK         0.0000 
     15 C15        -3.3175   51.1830   18.8783 C.3       1 UNK         0.0000 
     16 N16         2.9596   51.4032   19.9567 N.pl3     1 UNK         0.0000 
     17 C17         2.4761   51.7070   21.1939 C.2       1 UNK         0.0000 
     18 S18         3.2942   52.8967   22.0380 S.2       1 UNK         0.0000 
     19 N19         1.3276   51.0257   21.5899 N.pl3     1 UNK         0.0000 
     20 C20         0.6266   51.3764   22.7764 C.ar      1 UNK         0.0000 
     21 C21         1.0555   50.8840   24.0142 C.ar      1 UNK         0.0000 
     22 C22         0.3254   51.1738   25.1650 C.ar      1 UNK         0.0000 
     23 C23        -0.8279   51.9519   25.0750 C.ar      1 UNK         0.0000 
     24 C24        -1.2675   52.4340   23.8433 C.ar      1 UNK         0.0000 
     25 C25        -0.5451   52.1367   22.6915 C.ar      1 UNK         0.0000 
     26 C26         1.0428   48.4617   18.5858 C.2       1 UNK         0.0000 
     27 O27        -0.1485   48.1448   18.6159 O.2       1 UNK         0.0000 
     28 N28         1.9045   47.9528   17.6776 N.am      1 UNK         0.0000 
     29 C29         1.6190   46.9391   16.7485 C.ar      1 UNK         0.0000 
     30 C30         2.1376   47.0716   15.4610 C.ar      1 UNK         0.0000 
     31 C31         1.8883   46.0903   14.5040 C.ar      1 UNK         0.0000 
     32 C32         1.1355   44.9529   14.8384 C.ar      1 UNK         0.0000 
     33 C33         0.6444   44.8165   16.1358 C.ar      1 UNK         0.0000 
     34 C34         0.8793   45.8011   17.0909 C.ar      1 UNK         0.0000 
     35 O35         0.8314   43.9310   13.9612 O.3       1 UNK         0.0000 
     36 C36         1.2202   44.0437   12.5970 C.3       1 UNK         0.0000 
     37 H37         0.8879   48.4969   22.2207 H         1 UNK         0.0000 
     38 H38        -0.7185   49.2409   22.2366 H         1 UNK         0.0000 
     39 H39        -0.3258   48.0757   21.0121 H         1 UNK         0.0000 
     40 H40         2.1583   52.6069   16.8573 H         1 UNK         0.0000 
     41 H41         0.2911   54.0466   16.1476 H         1 UNK         0.0000 
     42 H42        -1.9016   53.8874   17.2749 H         1 UNK         0.0000 
     43 H43        -4.2777   51.2534   19.3896 H         1 UNK         0.0000 
     44 H44        -3.5133   51.1719   17.8048 H         1 UNK         0.0000 
     45 H45        -2.8667   50.2295   19.1579 H         1 UNK         0.0000 
     46 H46         3.8032   51.8986   19.7044 H         1 UNK         0.0000 
     47 H47         1.9393   50.2641   24.0780 H         1 UNK         0.0000 
     48 H48         0.6454   50.7888   26.1236 H         1 UNK         0.0000 
     49 H49        -1.3920   52.1732   25.9682 H         1 UNK         0.0000 
     50 H50        -2.1693   53.0272   23.7823 H         1 UNK         0.0000 
     51 H51        -0.8946   52.4938   21.7350 H         1 UNK         0.0000 
     52 H52         2.7940   48.4304   17.5303 H         1 UNK         0.0000 
     53 H53         2.7177   47.9441   15.1963 H         1 UNK         0.0000 
     54 H54         2.2777   46.2335   13.5102 H         1 UNK         0.0000 
     55 H55         0.0684   43.9420   16.3996 H         1 UNK         0.0000 
     56 H56         0.4885   45.6756   18.0902 H         1 UNK         0.0000 
     57 H57         0.8683   43.1705   12.0482 H         1 UNK         0.0000 
     58 H58         2.3045   44.0810   12.4895 H         1 UNK         0.0000 
     59 H59         0.7844   44.9267   12.1259 H         1 UNK         0.0000 
@<TRIPOS>BOND
     1    1    2 1    
     2    1   37 1    
     3    1   38 1    
     4    1   39 1    
     5    2   13 1    
     6    2   19 1    
     7    2    3 1    
     8    3    4 1    
     9    3    5 1    
    10    3   26 1    
    11    5    6 1    
    12    5    7 1    
    13    5   16 1    
    14    7   12 ar   
    15    7    8 ar   
    16    8    9 ar   
    17    8   40 1    
    18    9   10 ar   
    19    9   41 1    
    20   10   11 ar   
    21   10   42 1    
    22   11   12 ar   
    23   11   14 1    
    24   12   13 1    
    25   14   15 1    
    26   15   43 1    
    27   15   44 1    
    28   15   45 1    
    29   16   17 1    
    30   16   46 1    
    31   17   18 2    
    32   17   19 1    
    33   19   20 1    
    34   20   25 ar   
    35   20   21 ar   
    36   21   22 ar   
    37   21   47 1    
    38   22   23 ar   
    39   22   48 1    
    40   23   24 ar   
    41   23   49 1    
    42   24   25 ar   
    43   24   50 1    
    44   25   51 1    
    45   26   27 2    
    46   26   28 am   BACKBONE|DICT|INTERRES
    47   28   29 1    
    48   28   52 1    
    49   29   34 ar   
    50   29   30 ar   
    51   30   31 ar   
    52   30   53 1    
    53   31   32 ar   
    54   31   54 1    
    55   32   33 ar   
    56   32   35 1    
    57   33   34 ar   
    58   33   55 1    
    59   34   56 1    
    60   35   36 1    
    61   36   57 1    
    62   36   58 1    
    63   36   59 1    
@<TRIPOS>SUBSTRUCTURE
     1 UNK         1 GROUP             0       ****    0 ROOT    
