@<TRIPOS>MOLECULE
ZINC00038517_1873
43   45    1
SMALL
USER_CHARGES


@<TRIPOS>ATOM
      1 C1          8.0709   57.4445   17.9290 C.3       1 UNK         0.0000 
      2 C2          6.6999   57.7766   18.5501 C.3       1 UNK         0.0000 
      3 C3          5.7521   56.5581   18.5082 C.3       1 UNK         0.0000 
      4 C4          6.3098   55.2430   19.1273 C.3       1 UNK         0.0000 
      5 C5          7.7336   54.9780   18.5489 C.3       1 UNK         0.0000 
      6 C6          8.7079   56.1809   18.5403 C.3       1 UNK         0.0000 
      7 C7          6.3757   55.3614   20.6774 C.2       1 UNK         0.0000 
      8 O8          7.2032   56.0997   21.2101 O.2       1 UNK         0.0000 
      9 N9          5.4649   54.6383   21.3702 N.am      1 UNK         0.0000 
     10 C10         5.3578   54.4925   22.7601 C.2       1 UNK         0.0000 
     11 C11         4.2101   54.0959   23.4842 C.2       1 UNK         0.0000 
     12 C12         4.4181   54.1760   24.8931 C.2       1 UNK         0.0000 
     13 C13         5.7446   54.4895   25.2224 C.2       1 UNK         0.0000 
     14 S14         6.7044   54.7956   23.8271 S.3       1 UNK         0.0000 
     15 C15         6.3060   54.6065   26.6322 C.3       1 UNK         0.0000 
     16 C16         5.3861   53.8351   27.5956 C.3       1 UNK         0.0000 
     17 C17         3.9132   54.2286   27.4002 C.3       1 UNK         0.0000 
     18 C18         3.3723   53.9063   25.9862 C.3       1 UNK         0.0000 
     19 C19         2.9288   53.7579   22.8841 C.2       1 UNK         0.0000 
     20 O20         1.8548   54.0959   23.3736 O.2       1 UNK         0.0000 
     21 N21         2.9854   53.0654   21.7444 N.am      1 UNK         0.0000 
     22 H22         7.9493   57.2993   16.8546 H         1 UNK         0.0000 
     23 H23         8.7465   58.2928   18.0442 H         1 UNK         0.0000 
     24 H24         6.2477   58.6163   18.0191 H         1 UNK         0.0000 
     25 H25         6.8271   58.1161   19.5775 H         1 UNK         0.0000 
     26 H26         5.5000   56.3368   17.4701 H         1 UNK         0.0000 
     27 H27         4.7552   56.7821   18.8883 H         1 UNK         0.0000 
     28 H28         5.6488   54.3991   18.9176 H         1 UNK         0.0000 
     29 H29         8.1769   54.0946   19.0095 H         1 UNK         0.0000 
     30 H30         7.6018   54.6031   17.5336 H         1 UNK         0.0000 
     31 H31         9.6095   55.9176   17.9851 H         1 UNK         0.0000 
     32 H32         9.0515   56.3978   19.5522 H         1 UNK         0.0000 
     33 H33         4.6808   54.2879   20.8393 H         1 UNK         0.0000 
     34 H34         6.3577   55.6549   26.9300 H         1 UNK         0.0000 
     35 H35         7.3203   54.2123   26.6933 H         1 UNK         0.0000 
     36 H36         5.6926   54.0259   28.6252 H         1 UNK         0.0000 
     37 H37         5.5024   52.7610   27.4395 H         1 UNK         0.0000 
     38 H38         3.8047   55.2960   27.5929 H         1 UNK         0.0000 
     39 H39         3.2935   53.7321   28.1477 H         1 UNK         0.0000 
     40 H40         3.0636   52.8629   25.9439 H         1 UNK         0.0000 
     41 H41         2.4713   54.4949   25.8205 H         1 UNK         0.0000 
     42 H42         3.8402   52.6206   21.4484 H         1 UNK         0.0000 
     43 H43         2.1276   52.8851   21.2444 H         1 UNK         0.0000 
@<TRIPOS>BOND
     1    1    6 1    
     2    1    2 1    
     3    1   22 1    
     4    1   23 1    
     5    2    3 1    
     6    2   24 1    
     7    2   25 1    
     8    3    4 1    
     9    3   26 1    
    10    3   27 1    
    11    4    5 1    
    12    4    7 1    
    13    4   28 1    
    14    5    6 1    
    15    5   29 1    
    16    5   30 1    
    17    6   31 1    
    18    6   32 1    
    19    7    8 2    
    20    7    9 am   BACKBONE|DICT|INTERRES
    21    9   10 am   BACKBONE|DICT|INTERRES
    22    9   33 1    
    23   10   14 1    
    24   10   11 2    
    25   11   12 1    
    26   11   19 1    
    27   12   18 1    
    28   12   13 2    
    29   13   14 1    
    30   13   15 1    
    31   15   16 1    
    32   15   34 1    
    33   15   35 1    
    34   16   17 1    
    35   16   36 1    
    36   16   37 1    
    37   17   18 1    
    38   17   38 1    
    39   17   39 1    
    40   18   40 1    
    41   18   41 1    
    42   19   20 2    
    43   19   21 am   BACKBONE|DICT|INTERRES
    44   21   42 1    
    45   21   43 1    
@<TRIPOS>SUBSTRUCTURE
     1 UNK         1 GROUP             0       ****    0 ROOT    
