@<TRIPOS>MOLECULE
ZINC05511062_6134
18   18    1
SMALL
USER_CHARGES


@<TRIPOS>ATOM
      1 C1          6.0857   54.2889   24.4212 C.2       1 UNK         0.0000 
      2 C2          5.7923   54.3561   25.7865 C.2       1 UNK         0.0000 
      3 C3          4.4350   54.2888   26.0322 C.2       1 UNK         0.0000 
      4 S4          3.5273   54.0977   24.5740 S.3       1 UNK         0.0000 
      5 C5          4.9779   54.0966   23.5903 C.2       1 UNK         0.0000 
      6 C6          4.9587   53.9494   22.0742 C.3       1 UNK         0.0000 
      7 N7          3.8098   53.1711   21.6620 N.2       1 UNK         0.0000 
      8 N8          4.1041   51.9963   21.2807 N.am      1 UNK         0.0000 
      9 C9          2.9928   51.2725   20.9156 C.2       1 UNK         0.0000 
     10 O10         2.0262   51.0506   21.6438 O.2       1 UNK         0.0000 
     11 N11         3.1045   50.7904   19.6817 N.am      1 UNK         0.0000 
     12 Br12        7.1037   54.4970   27.1558 Br        1 UNK         0.0000 
     13 H13         7.0968   54.3363   24.0443 H         1 UNK         0.0000 
     14 H14         3.9336   54.3195   26.9878 H         1 UNK         0.0000 
     15 H15         5.9043   53.5445   21.7093 H         1 UNK         0.0000 
     16 H16         4.8709   54.9294   21.6053 H         1 UNK         0.0000 
     17 H17         3.9672   50.8961   19.1445 H         1 UNK         0.0000 
     18 H18         2.3595   50.2322   19.3007 H         1 UNK         0.0000 
@<TRIPOS>BOND
     1    1    5 2    
     2    1    2 1    
     3    1   13 1    
     4    2    3 2    
     5    2   12 1    
     6    3    4 1    
     7    3   14 1    
     8    4    5 1    
     9    5    6 1    
    10    6    7 1    
    11    6   15 1    
    12    6   16 1    
    13    7    8 2    
    14    8    9 am   BACKBONE|DICT|INTERRES
    15    9   10 2    
    16    9   11 am   BACKBONE|DICT|INTERRES
    17   11   17 1    
    18   11   18 1    
@<TRIPOS>SUBSTRUCTURE
     1 UNK         1 GROUP             0       ****    0 ROOT    
