ZINC66346537_2581
                    3D
 Schrodinger Suite 2024-2.
 45 47  0  0  1  0            999 V2000
   -3.0369   45.3755   19.8391 C   0  0  0  0  0  0
   -2.5192   45.7106   21.2309 C   0  0  0  0  0  0
   -2.4833   44.8241   22.0827 O   0  0  0  0  0  0
   -2.1154   46.9865   21.4014 N   0  0  0  0  0  0
   -1.6057   47.6159   22.5513 C   0  0  0  0  0  0
   -1.8238   47.1703   23.8642 C   0  0  0  0  0  0
   -1.2948   47.8849   24.9411 C   0  0  0  0  0  0
   -0.5588   49.0509   24.7188 C   0  0  0  0  0  0
   -0.3249   49.4795   23.4034 C   0  0  0  0  0  0
   -0.8594   48.7739   22.3313 C   0  0  0  0  0  0
   -0.0593   49.7321   25.8480 N   0  0  0  0  0  0
    0.2084   51.0523   25.9439 C   0  0  0  0  0  0
   -0.0750   51.8880   25.0822 O   0  0  0  0  0  0
    0.8196   51.3720   27.0993 N   0  0  0  0  0  0
    1.2128   52.7324   27.5055 C   0  0  2  0  0  0
    0.4678   53.4008   27.0777 H   0  0  0  0  0  0
    2.5516   53.2292   26.9127 C   0  0  0  0  0  0
    3.7311   53.3007   27.6729 C   0  0  0  0  0  0
    4.8953   53.8393   27.1339 C   0  0  0  0  0  0
    4.8964   54.3131   25.8263 C   0  0  0  0  0  0
    3.7433   54.2346   25.0492 C   0  0  0  0  0  0
    2.5789   53.6972   25.5921 C   0  0  0  0  0  0
    6.3327   55.0090   25.1704 Cl  0  0  0  0  0  0
    1.0951   52.8692   29.0152 C   0  0  0  0  0  0
    1.7727   52.0991   29.9726 C   0  0  0  0  0  0
    1.4769   52.4446   31.2821 C   0  0  0  0  0  0
    0.3049   53.7061   31.3712 S   0  0  0  0  0  0
    0.2627   53.7825   29.6478 C   0  0  0  0  0  0
   -3.6741   46.1755   19.4563 H   0  0  0  0  0  0
   -3.6245   44.4556   19.8590 H   0  0  0  0  0  0
   -2.2011   45.2331   19.1510 H   0  0  0  0  0  0
   -2.1140   47.5616   20.5736 H   0  0  0  0  0  0
   -2.4136   46.2903   24.0659 H   0  0  0  0  0  0
   -1.4714   47.5422   25.9532 H   0  0  0  0  0  0
    0.2690   50.3577   23.1956 H   0  0  0  0  0  0
   -0.6737   49.1330   21.3287 H   0  0  0  0  0  0
   -0.0563   49.1923   26.7038 H   0  0  0  0  0  0
    1.1972   50.6205   27.6537 H   0  0  0  0  0  0
    3.7714   52.9625   28.6930 H   0  0  0  0  0  0
    5.7912   53.8983   27.7348 H   0  0  0  0  0  0
    3.7464   54.5983   24.0325 H   0  0  0  0  0  0
    1.6882   53.6675   24.9824 H   0  0  0  0  0  0
    2.4613   51.3138   29.7002 H   0  0  0  0  0  0
    1.8543   52.0051   32.1948 H   0  0  0  0  0  0
   -0.3858   54.4964   29.1686 H   0  0  0  0  0  0
  1  2  1  0  0  0
  1 29  1  0  0  0
  1 30  1  0  0  0
  1 31  1  0  0  0
  2  3  2  0  0  0
  2  4  1  0  0  0
  4  5  1  0  0  0
  4 32  1  0  0  0
  5 10  2  0  0  0
  5  6  1  0  0  0
  6  7  2  0  0  0
  6 33  1  0  0  0
  7  8  1  0  0  0
  7 34  1  0  0  0
  8  9  2  0  0  0
  8 11  1  0  0  0
  9 10  1  0  0  0
  9 35  1  0  0  0
 10 36  1  0  0  0
 11 12  1  0  0  0
 11 37  1  0  0  0
 12 13  2  0  0  0
 12 14  1  0  0  0
 14 15  1  0  0  0
 14 38  1  0  0  0
 15 16  1  0  0  0
 15 17  1  0  0  0
 15 24  1  0  0  0
 17 22  2  0  0  0
 17 18  1  0  0  0
 18 19  2  0  0  0
 18 39  1  0  0  0
 19 20  1  0  0  0
 19 40  1  0  0  0
 20 21  2  0  0  0
 20 23  1  0  0  0
 21 22  1  0  0  0
 21 41  1  0  0  0
 22 42  1  0  0  0
 24 28  2  0  0  0
 24 25  1  0  0  0
 25 26  2  0  0  0
 25 43  1  0  0  0
 26 27  1  0  0  0
 26 44  1  0  0  0
 27 28  1  0  0  0
 28 45  1  0  0  0
M  END
> <i_i_glide_confnum>
163

> <i_i_glide_lignum>
2582

> <i_i_glide_posenum>
190

> <i_i_glide_rotatable_bonds>
8

> <i_m_Source_File_Index>
2947

> <b_m_subgroup_collapsed>
0

> <r_i_docking_score>
-4.77031

> <r_i_glide_ecoul>
-3.82383

> <r_i_glide_eff_state_penalty>
0

> <r_i_glide_einternal>
7.81771

> <r_i_glide_emodel>
-52.6454

> <r_i_glide_energy>
-42.5937

> <r_i_glide_erotb>
0.857907

> <r_i_glide_esite>
-0.104889

> <r_i_glide_evdw>
-38.7699

> <r_i_glide_gscore>
-4.77031

> <r_i_glide_hbond>
-0.184796

> <r_i_glide_ligand_efficiency>
-0.176678

> <r_i_glide_ligand_efficiency_ln>
-1.11045

> <r_i_glide_ligand_efficiency_sa>
-0.530035

> <r_i_glide_lipo>
-2.11359

> <r_i_glide_metal>
0

> <r_i_glide_rewards>
-0.712876

> <s_i_glide_gridfile>
wee1_glide-grid

> <s_m_Source_File>
wee1_decoys_glide_SP.sdf

> <s_m_Source_Path>
/Users/zhangxujun/Desktop

> <s_m_entry_id>
3222

> <s_m_entry_name>
wee1_decoys_glide_SP.2947

> <s_m_subgroup_title>
wee1_decoys_glide_SP

> <s_m_subgroupid>
wee1_decoys_glide_SP


$$$$
