@<TRIPOS>MOLECULE
ZINC14245555_2709
48   51    1
SMALL
USER_CHARGES


@<TRIPOS>ATOM
      1 C1          3.4166   54.0784   26.8193 C.ar      1 UNK         0.0000 
      2 C2          4.2373   54.5644   25.8121 C.ar      1 UNK         0.0000 
      3 C3          5.6099   54.6209   26.0159 C.ar      1 UNK         0.0000 
      4 C4          6.1734   54.1945   27.2179 C.ar      1 UNK         0.0000 
      5 C5          5.3478   53.6983   28.2246 C.ar      1 UNK         0.0000 
      6 C6          3.9659   53.6339   28.0270 C.ar      1 UNK         0.0000 
      7 C7          3.0625   53.0823   29.0755 C.2       1 UNK         0.0000 
      8 C8          3.2260   52.5813   30.3625 C.2       1 UNK         0.0000 
      9 C9          1.9543   52.2175   30.8209 C.2       1 UNK         0.0000 
     10 C10         1.0678   52.4671   29.7844 C.2       1 UNK         0.0000 
     11 O11         1.7483   53.0091   28.7474 O.3       1 UNK         0.0000 
     12 C12        -0.4142   52.2666   29.5633 C.3       1 UNK         0.0000 
     13 N13        -0.6725   51.7603   28.2110 N.am      1 UNK         0.0000 
     14 C14        -1.8560   51.2967   27.7731 C.2       1 UNK         0.0000 
     15 O15        -2.8640   51.2967   28.4775 O.2       1 UNK         0.0000 
     16 C16        -1.9707   50.6724   26.3646 C.3       1 UNK         0.0000 
     17 N17        -0.8183   50.9362   25.4724 N.am      1 UNK         0.0000 
     18 C18        -0.7831   51.9729   24.6047 C.2       1 UNK         0.0000 
     19 O19        -1.5919   52.8963   24.4882 O.2       1 UNK         0.0000 
     20 C20         0.4727   51.7675   23.7586 C.3       1 UNK         0.0000 
     21 C21         0.1361   51.8125   22.2465 C.3       1 UNK         0.0000 
     22 C22         1.3397   52.4922   21.5950 C.3       1 UNK         0.0000 
     23 C23         1.7399   53.5670   22.6035 C.3       1 UNK         0.0000 
     24 C24         1.4794   52.9347   23.9768 C.3       1 UNK         0.0000 
     25 N25         0.8788   50.4871   24.2621 N.am      1 UNK         0.0000 
     26 C26         0.2349   50.0889   25.3595 C.2       1 UNK         0.0000 
     27 O27         0.6892   49.3174   26.1965 O.2       1 UNK         0.0000 
     28 Br28        6.7045   55.2968   24.6237 Br        1 UNK         0.0000 
     29 H29         2.3511   54.0432   26.6500 H         1 UNK         0.0000 
     30 H30         3.8107   54.8982   24.8775 H         1 UNK         0.0000 
     31 H31         7.2411   54.2437   27.3707 H         1 UNK         0.0000 
     32 H32         5.7844   53.3608   29.1517 H         1 UNK         0.0000 
     33 H33         4.1552   52.4967   30.9075 H         1 UNK         0.0000 
     34 H34         1.7056   51.8013   31.7879 H         1 UNK         0.0000 
     35 H35        -0.8955   53.2360   29.6796 H         1 UNK         0.0000 
     36 H36        -0.8550   51.6131   30.3216 H         1 UNK         0.0000 
     37 H37         0.1419   51.5908   27.6399 H         1 UNK         0.0000 
     38 H38        -2.8706   51.0860   25.9079 H         1 UNK         0.0000 
     39 H39        -2.1377   49.5992   26.4750 H         1 UNK         0.0000 
     40 H40        -0.7453   52.4245   22.0376 H         1 UNK         0.0000 
     41 H41        -0.0705   50.8270   21.8255 H         1 UNK         0.0000 
     42 H42         1.1067   52.8968   20.6097 H         1 UNK         0.0000 
     43 H43         2.1534   51.7756   21.4668 H         1 UNK         0.0000 
     44 H44         1.1141   54.4512   22.4819 H         1 UNK         0.0000 
     45 H45         2.7755   53.8865   22.4769 H         1 UNK         0.0000 
     46 H46         2.4202   52.5457   24.3708 H         1 UNK         0.0000 
     47 H47         1.1405   53.6961   24.6826 H         1 UNK         0.0000 
     48 H48         1.5296   49.8942   23.7674 H         1 UNK         0.0000 
@<TRIPOS>BOND
     1    1    6 ar   
     2    1    2 ar   
     3    1   29 1    
     4    2    3 ar   
     5    2   30 1    
     6    3    4 ar   
     7    3   28 1    
     8    4    5 ar   
     9    4   31 1    
    10    5    6 ar   
    11    5   32 1    
    12    6    7 1    
    13    7   11 1    
    14    7    8 2    
    15    8    9 1    
    16    8   33 1    
    17    9   10 2    
    18    9   34 1    
    19   10   11 1    
    20   10   12 1    
    21   12   13 1    
    22   12   35 1    
    23   12   36 1    
    24   13   14 am   BACKBONE|DICT|INTERRES
    25   13   37 1    
    26   14   15 2    
    27   14   16 1    
    28   16   17 1    
    29   16   38 1    
    30   16   39 1    
    31   17   26 am   BACKBONE|DICT|INTERRES
    32   17   18 am   BACKBONE|DICT|INTERRES
    33   18   19 2    
    34   18   20 1    
    35   20   24 1    
    36   20   21 1    
    37   20   25 1    
    38   21   22 1    
    39   21   40 1    
    40   21   41 1    
    41   22   23 1    
    42   22   42 1    
    43   22   43 1    
    44   23   24 1    
    45   23   44 1    
    46   23   45 1    
    47   24   46 1    
    48   24   47 1    
    49   25   26 am   BACKBONE|DICT|INTERRES
    50   25   48 1    
    51   26   27 2    
@<TRIPOS>SUBSTRUCTURE
     1 UNK         1 GROUP             0       ****    0 ROOT    
