ZINC35465703_3323
                    3D
 Schrodinger Suite 2024-2.
 71 73  0  0  1  0            999 V2000
   -0.3882   52.8796   23.5918 C   0  0  0  0  0  0
    0.7151   51.9154   24.1196 C   0  0  2  0  0  0
    0.3961   50.4211   23.8168 C   0  0  0  0  0  0
   -0.9408   49.9316   24.3543 C   0  0  0  0  0  0
   -1.2401   50.2657   25.8466 C   0  0  1  0  0  0
   -0.7118   49.4133   26.2776 H   0  0  0  0  0  0
   -0.4353   51.4941   26.5550 C   0  0  1  0  0  0
    0.8201   51.9651   25.6823 C   0  0  2  0  0  0
    1.5040   51.1666   25.8757 H   0  0  0  0  0  0
    1.6048   53.1816   26.2244 C   0  0  0  0  0  0
    2.9645   53.3836   25.5856 C   0  0  0  0  0  0
    4.0333   53.4863   26.4114 C   0  0  0  0  0  0
    2.9066   53.5046   24.0272 C   0  0  2  0  0  0
    2.1293   52.2487   23.4548 C   0  0  2  0  0  0
    2.7043   51.3744   23.7235 H   0  0  0  0  0  0
    2.1406   52.1851   21.8904 C   0  0  0  0  0  0
    1.2478   51.7799   21.1488 O   0  0  0  0  0  0
    3.2279   52.6703   21.2338 O   0  0  0  0  0  0
    4.4110   53.2204   21.8514 C   0  0  1  0  0  0
    4.2995   53.6973   23.3339 C   0  0  0  0  0  0
    5.2501   54.2535   23.8912 O   0  0  0  0  0  0
    5.4819   52.0972   21.7988 C   0  0  0  0  0  0
    4.9759   54.3693   20.9437 C   0  0  0  0  0  0
    5.9362   55.0705   21.2818 O   0  0  0  0  0  0
    4.3435   54.4919   19.7486 O   0  0  0  0  0  0
    4.7862   55.4320   18.7801 C   0  0  0  0  0  0
    2.1754   54.8145   23.6780 C   0  0  0  0  0  0
   -1.4137   52.6850   26.7188 C   0  0  0  0  0  0
    0.1257   50.9954   27.9586 C   0  0  0  0  0  0
    0.0938   51.9001   29.2478 C   0  0  0  0  0  0
    1.4549   52.4474   29.7254 C   0  0  0  0  0  0
    2.4541   51.6969   29.6628 O   0  0  0  0  0  0
    1.4772   53.6162   30.1720 O   0  5  0  0  0  0
   -2.7684   49.9573   26.1710 C   0  0  0  0  0  0
   -3.7991   50.8470   25.4298 C   0  0  0  0  0  0
   -3.1445   48.4758   25.9114 C   0  0  0  0  0  0
   -3.0278   50.0973   27.5456 O   0  0  0  0  0  0
   -0.5324   53.7375   24.2386 H   0  0  0  0  0  0
   -0.1151   53.2963   22.6323 H   0  0  0  0  0  0
   -1.3701   52.4299   23.4749 H   0  0  0  0  0  0
    0.3629   50.2276   22.7473 H   0  0  0  0  0  0
    1.1937   49.7700   24.1809 H   0  0  0  0  0  0
   -1.7025   50.3807   23.7226 H   0  0  0  0  0  0
   -1.0343   48.8607   24.1665 H   0  0  0  0  0  0
    1.1046   54.0979   26.0686 H   0  0  0  0  0  0
    1.7131   53.1075   27.2940 H   0  0  0  0  0  0
    3.9043   53.4047   27.4829 H   0  0  0  0  0  0
    5.0481   53.6366   26.0913 H   0  0  0  0  0  0
    5.8755   51.9468   20.7914 H   0  0  0  0  0  0
    6.3121   52.2751   22.4807 H   0  0  0  0  0  0
    5.0456   51.1435   22.0805 H   0  0  0  0  0  0
    4.8272   56.4418   19.1898 H   0  0  0  0  0  0
    5.7798   55.1700   18.4139 H   0  0  0  0  0  0
    4.1014   55.4387   17.9325 H   0  0  0  0  0  0
    2.7046   55.6763   24.0804 H   0  0  0  0  0  0
    2.0596   54.8993   22.5971 H   0  0  0  0  0  0
    1.1806   54.8962   24.0842 H   0  0  0  0  0  0
   -2.2895   52.4190   27.2976 H   0  0  0  0  0  0
   -0.9597   53.4978   27.2818 H   0  0  0  0  0  0
   -1.7894   53.0804   25.7831 H   0  0  0  0  0  0
   -0.4957   50.1686   28.2384 H   0  0  0  0  0  0
    1.0899   50.4974   27.8487 H   0  0  0  0  0  0
   -0.6373   52.7031   29.2021 H   0  0  0  0  0  0
   -0.2629   51.2971   30.0814 H   0  0  0  0  0  0
   -3.7886   50.6768   24.3536 H   0  0  0  0  0  0
   -4.8162   50.6270   25.7603 H   0  0  0  0  0  0
   -3.6569   51.9099   25.5923 H   0  0  0  0  0  0
   -2.4930   47.7874   26.4515 H   0  0  0  0  0  0
   -4.1637   48.2567   26.2359 H   0  0  0  0  0  0
   -3.0986   48.2227   24.8528 H   0  0  0  0  0  0
   -2.4455   49.4524   28.0069 H   0  0  0  0  0  0
  1  2  1  0  0  0
  1 38  1  0  0  0
  1 39  1  0  0  0
  1 40  1  0  0  0
  2  8  1  0  0  0
  2 14  1  0  0  0
  2  3  1  0  0  0
  3  4  1  0  0  0
  3 41  1  0  0  0
  3 42  1  0  0  0
  4  5  1  0  0  0
  4 43  1  0  0  0
  4 44  1  0  0  0
  5  6  1  0  0  0
  5  7  1  0  0  0
  5 34  1  0  0  0
  7  8  1  0  0  0
  7 28  1  0  0  0
  7 29  1  0  0  0
  8  9  1  0  0  0
  8 10  1  0  0  0
 10 11  1  0  0  0
 10 45  1  0  0  0
 10 46  1  0  0  0
 11 12  2  0  0  0
 11 13  1  0  0  0
 12 47  1  0  0  0
 12 48  1  0  0  0
 13 20  1  0  0  0
 13 14  1  0  0  0
 13 27  1  0  0  0
 14 15  1  0  0  0
 14 16  1  0  0  0
 16 17  2  0  0  0
 16 18  1  0  0  0
 18 19  1  0  0  0
 19 20  1  0  0  0
 19 22  1  0  0  0
 19 23  1  0  0  0
 20 21  2  0  0  0
 22 49  1  0  0  0
 22 50  1  0  0  0
 22 51  1  0  0  0
 23 24  2  0  0  0
 23 25  1  0  0  0
 25 26  1  0  0  0
 26 52  1  0  0  0
 26 53  1  0  0  0
 26 54  1  0  0  0
 27 55  1  0  0  0
 27 56  1  0  0  0
 27 57  1  0  0  0
 28 58  1  0  0  0
 28 59  1  0  0  0
 28 60  1  0  0  0
 29 30  1  0  0  0
 29 61  1  0  0  0
 29 62  1  0  0  0
 30 31  1  0  0  0
 30 63  1  0  0  0
 30 64  1  0  0  0
 31 32  2  0  0  0
 31 33  1  0  0  0
 34 35  1  0  0  0
 34 36  1  0  0  0
 34 37  1  0  0  0
 35 65  1  0  0  0
 35 66  1  0  0  0
 35 67  1  0  0  0
 36 68  1  0  0  0
 36 69  1  0  0  0
 36 70  1  0  0  0
 37 71  1  0  0  0
M  CHG  1  33  -1
M  END
> <i_i_glide_confnum>
8

> <i_i_glide_lignum>
3324

> <i_i_glide_posenum>
221

> <i_i_glide_rotatable_bonds>
7

> <i_m_Source_File_Index>
341

> <b_m_subgroup_collapsed>
0

> <r_i_docking_score>
-4.22378

> <r_i_glide_ecoul>
-9.51785

> <r_i_glide_eff_state_penalty>
0

> <r_i_glide_einternal>
6.11874

> <r_i_glide_emodel>
-30.168

> <r_i_glide_energy>
-25.7611

> <r_i_glide_erotb>
0.355295

> <r_i_glide_esite>
0

> <r_i_glide_evdw>
-16.2432

> <r_i_glide_gscore>
-4.22378

> <r_i_glide_hbond>
-0.282809

> <r_i_glide_ligand_efficiency>
-0.124229

> <r_i_glide_ligand_efficiency_ln>
-0.933152

> <r_i_glide_ligand_efficiency_sa>
-0.402454

> <r_i_glide_lipo>
-1.32236

> <r_i_glide_metal>
0

> <r_i_glide_rewards>
-0.734071

> <s_i_glide_gridfile>
wee1_glide-grid

> <s_m_Source_File>
wee1_decoys_glide_SP.sdf

> <s_m_Source_Path>
/Users/zhangxujun/Desktop

> <s_m_entry_id>
616

> <s_m_entry_name>
wee1_decoys_glide_SP.341

> <s_m_subgroup_title>
wee1_decoys_glide_SP

> <s_m_subgroupid>
wee1_decoys_glide_SP


$$$$
