@<TRIPOS>MOLECULE
ZINC57523957_851
65   67    1
SMALL
USER_CHARGES


@<TRIPOS>ATOM
      1 C1          2.6288   46.2586   15.7131 C.3       1 UNK         0.0000 
      2 C2          1.4980   46.6499   16.6732 C.3       1 UNK         0.0000 
      3 H3          0.6375   46.9330   16.0671 H         1 UNK         0.0000 
      4 C4          1.8915   47.8500   17.5677 C.3       1 UNK         0.0000 
      5 N5          0.9358   48.0270   18.6780 N.pl3     1 UNK         0.0000 
      6 C6          0.5893   46.8064   19.4238 C.3       1 UNK         0.0000 
      7 C7          0.0783   45.7378   18.4421 C.3       1 UNK         0.0000 
      8 H8         -0.0419   44.8016   18.9886 H         1 UNK         0.0000 
      9 O9          1.1043   45.5165   17.4641 O.3       1 UNK         0.0000 
     10 C10        -1.2912   46.0606   17.8115 C.3       1 UNK         0.0000 
     11 S11         0.0380   49.5333   18.8762 S.o2      1 UNK         0.0000 
     12 O12        -0.9043   49.3731   19.9908 O.2       1 UNK         0.0000 
     13 O13        -0.4366   49.9537   17.5506 O.2       1 UNK         0.0000 
     14 C14         1.2808   50.7020   19.4084 C.ar      1 UNK         0.0000 
     15 C15         1.8166   51.6194   18.5030 C.ar      1 UNK         0.0000 
     16 C16         2.7713   52.5351   18.9326 C.ar      1 UNK         0.0000 
     17 C17         3.2154   52.5131   20.2558 C.ar      1 UNK         0.0000 
     18 C18         2.6938   51.5726   21.1558 C.ar      1 UNK         0.0000 
     19 C19         1.7253   50.6690   20.7304 C.ar      1 UNK         0.0000 
     20 N20         4.1280   53.5063   20.6422 N.am      1 UNK         0.0000 
     21 C21         5.1045   53.3869   21.5625 C.2       1 UNK         0.0000 
     22 O22         5.4203   52.3144   22.0808 O.2       1 UNK         0.0000 
     23 C23         5.8611   54.6806   21.9421 C.3       1 UNK         0.0000 
     24 N24         6.3585   54.6961   23.3072 N.pl3     1 UNK         0.0000 
     25 C25         5.5916   54.6230   24.4857 C.ar      1 UNK         0.0000 
     26 C26         6.2687   54.6540   25.7023 C.ar      1 UNK         0.0000 
     27 C27         5.5747   54.4949   26.8990 C.ar      1 UNK         0.0000 
     28 C28         4.1820   54.2945   26.9060 C.ar      1 UNK         0.0000 
     29 C29         3.5059   54.3184   25.6790 C.ar      1 UNK         0.0000 
     30 C30         4.1996   54.4934   24.4842 C.ar      1 UNK         0.0000 
     31 C31         3.3869   54.0146   28.2108 C.3       1 UNK         0.0000 
     32 C32         4.3056   53.9599   29.4536 C.3       1 UNK         0.0000 
     33 C33         2.6902   52.6342   28.1253 C.3       1 UNK         0.0000 
     34 C34         2.3007   55.0919   28.4525 C.3       1 UNK         0.0000 
     35 H35         2.9376   47.1086   15.1043 H         1 UNK         0.0000 
     36 H36         3.5039   45.9118   16.2598 H         1 UNK         0.0000 
     37 H37         2.3138   45.4622   15.0434 H         1 UNK         0.0000 
     38 H38         1.9058   48.7710   16.9848 H         1 UNK         0.0000 
     39 H39         2.8773   47.7176   18.0209 H         1 UNK         0.0000 
     40 H40         1.5006   46.4968   19.9295 H         1 UNK         0.0000 
     41 H41        -0.1590   47.0329   20.1852 H         1 UNK         0.0000 
     42 H42        -2.0662   46.1233   18.5761 H         1 UNK         0.0000 
     43 H43        -1.2886   47.0133   17.2819 H         1 UNK         0.0000 
     44 H44        -1.5863   45.2872   17.1044 H         1 UNK         0.0000 
     45 H45         1.4912   51.6348   17.4729 H         1 UNK         0.0000 
     46 H46         3.1672   53.2544   18.2318 H         1 UNK         0.0000 
     47 H47         3.0096   51.5541   22.1875 H         1 UNK         0.0000 
     48 H48         1.3153   49.9521   21.4299 H         1 UNK         0.0000 
     49 H49         4.0397   54.3852   20.1545 H         1 UNK         0.0000 
     50 H50         5.2851   55.5678   21.6812 H         1 UNK         0.0000 
     51 H51         6.7030   54.6921   21.2491 H         1 UNK         0.0000 
     52 H52         7.2673   55.1203   23.4454 H         1 UNK         0.0000 
     53 H53         7.3425   54.7573   25.7240 H         1 UNK         0.0000 
     54 H54         6.1553   54.5025   27.8088 H         1 UNK         0.0000 
     55 H55         2.4377   54.1754   25.6382 H         1 UNK         0.0000 
     56 H56         3.6386   54.4937   23.5620 H         1 UNK         0.0000 
     57 H57         3.7628   53.6824   30.3574 H         1 UNK         0.0000 
     58 H58         4.7919   54.9184   29.6479 H         1 UNK         0.0000 
     59 H59         5.0890   53.2154   29.2926 H         1 UNK         0.0000 
     60 H60         2.0432   52.5422   27.2510 H         1 UNK         0.0000 
     61 H61         3.4214   51.8294   28.0816 H         1 UNK         0.0000 
     62 H62         2.0654   52.4444   28.9989 H         1 UNK         0.0000 
     63 H63         1.5336   55.0765   27.6809 H         1 UNK         0.0000 
     64 H64         1.7825   54.9299   29.3999 H         1 UNK         0.0000 
     65 H65         2.7078   56.0983   28.4822 H         1 UNK         0.0000 
@<TRIPOS>BOND
     1    1    2 1    
     2    1   35 1    
     3    1   36 1    
     4    1   37 1    
     5    2    3 1    
     6    2    9 1    
     7    2    4 1    
     8    4    5 1    
     9    4   38 1    
    10    4   39 1    
    11    5    6 1    
    12    5   11 1    
    13    6    7 1    
    14    6   40 1    
    15    6   41 1    
    16    7    8 1    
    17    7    9 1    
    18    7   10 1    
    19   10   42 1    
    20   10   43 1    
    21   10   44 1    
    22   11   12 2    
    23   11   13 2    
    24   11   14 1    
    25   14   19 ar   
    26   14   15 ar   
    27   15   16 ar   
    28   15   45 1    
    29   16   17 ar   
    30   16   46 1    
    31   17   18 ar   
    32   17   20 1    
    33   18   19 ar   
    34   18   47 1    
    35   19   48 1    
    36   20   21 am   BACKBONE|DICT|INTERRES
    37   20   49 1    
    38   21   22 2    
    39   21   23 1    
    40   23   24 1    
    41   23   50 1    
    42   23   51 1    
    43   24   25 1    
    44   24   52 1    
    45   25   30 ar   
    46   25   26 ar   
    47   26   27 ar   
    48   26   53 1    
    49   27   28 ar   
    50   27   54 1    
    51   28   29 ar   
    52   28   31 1    
    53   29   30 ar   
    54   29   55 1    
    55   30   56 1    
    56   31   32 1    
    57   31   33 1    
    58   31   34 1    
    59   32   57 1    
    60   32   58 1    
    61   32   59 1    
    62   33   60 1    
    63   33   61 1    
    64   33   62 1    
    65   34   63 1    
    66   34   64 1    
    67   34   65 1    
@<TRIPOS>SUBSTRUCTURE
     1 UNK         1 GROUP             0       ****    0 ROOT    
