@<TRIPOS>MOLECULE
ZINC45579301_91
59   62    1
SMALL
USER_CHARGES


@<TRIPOS>ATOM
      1 C1         -0.9686   50.5100   24.7636 C.3       1 UNK         0.0000 
      2 C2          0.5743   50.5028   24.6450 C.3       1 UNK         0.0000 
      3 H3          0.9535   50.0161   25.5429 H         1 UNK         0.0000 
      4 C4          1.0668   49.6569   23.4431 C.3       1 UNK         0.0000 
      5 C5          0.7665   50.3213   22.0810 C.3       1 UNK         0.0000 
      6 C6          1.3414   51.7537   22.0078 C.3       1 UNK         0.0000 
      7 C7          0.8921   52.6099   23.2101 C.3       1 UNK         0.0000 
      8 C8          1.2344   51.9101   24.5459 C.3       1 UNK         0.0000 
      9 H9          2.3129   51.7926   24.6048 H         1 UNK         0.0000 
     10 N10         0.7491   52.7892   25.6345 N.pl3     1 UNK         0.0000 
     11 S11         1.3593   52.7034   27.2917 S.o2      1 UNK         0.0000 
     12 O12         1.4993   51.2973   27.6818 O.2       1 UNK         0.0000 
     13 O13         0.5392   53.6107   28.1011 O.2       1 UNK         0.0000 
     14 C14         3.0133   53.3958   27.3208 C.ar      1 UNK         0.0000 
     15 C15         3.6211   53.8697   26.1531 C.ar      1 UNK         0.0000 
     16 C16         4.9425   54.3507   26.1665 C.ar      1 UNK         0.0000 
     17 C17         5.6036   54.4345   27.3967 C.ar      1 UNK         0.0000 
     18 C18         4.9861   53.9924   28.5616 C.ar      1 UNK         0.0000 
     19 C19         3.7058   53.4258   28.5363 C.ar      1 UNK         0.0000 
     20 O20         3.0882   52.9022   29.6566 O.3       1 UNK         0.0000 
     21 C21         3.8874   52.5008   30.7636 C.3       1 UNK         0.0000 
     22 C22         5.6604   54.7694   24.9008 C.2       1 UNK         0.0000 
     23 O23         6.6592   55.4910   24.9653 O.2       1 UNK         0.0000 
     24 N24         5.1367   54.2761   23.7550 N.am      1 UNK         0.0000 
     25 C25         5.5283   54.4978   22.4255 C.ar      1 UNK         0.0000 
     26 C26         4.6254   54.0825   21.4465 C.ar      1 UNK         0.0000 
     27 C27         4.9239   54.2905   20.1028 C.ar      1 UNK         0.0000 
     28 C28         6.1523   54.8994   19.7515 C.ar      1 UNK         0.0000 
     29 C29         6.5486   55.1014   18.4076 C.ar      1 UNK         0.0000 
     30 C30         7.7970   55.6521   18.1248 C.ar      1 UNK         0.0000 
     31 C31         8.6661   56.0051   19.1523 C.ar      1 UNK         0.0000 
     32 C32         8.2965   55.8293   20.4836 C.ar      1 UNK         0.0000 
     33 C33         7.0288   55.2967   20.8074 C.ar      1 UNK         0.0000 
     34 N34         6.7048   55.1100   22.1177 N.ar      1 UNK         0.0000 
     35 H35        -1.4506   50.9891   23.9129 H         1 UNK         0.0000 
     36 H36        -1.3564   49.4922   24.8305 H         1 UNK         0.0000 
     37 H37        -1.2956   51.0275   25.6663 H         1 UNK         0.0000 
     38 H38         2.1433   49.5031   23.5267 H         1 UNK         0.0000 
     39 H39         0.6159   48.6637   23.4746 H         1 UNK         0.0000 
     40 H40        -0.3111   50.3474   21.9099 H         1 UNK         0.0000 
     41 H41         1.1852   49.7155   21.2754 H         1 UNK         0.0000 
     42 H42         1.0427   52.2318   21.0747 H         1 UNK         0.0000 
     43 H43         2.4308   51.6992   21.9836 H         1 UNK         0.0000 
     44 H44        -0.1813   52.7946   23.1387 H         1 UNK         0.0000 
     45 H45         1.3656   53.5920   23.1593 H         1 UNK         0.0000 
     46 H46         0.3930   53.7022   25.3473 H         1 UNK         0.0000 
     47 H47         3.0657   53.8443   25.2296 H         1 UNK         0.0000 
     48 H48         6.6067   54.8326   27.4649 H         1 UNK         0.0000 
     49 H49         5.5193   54.0988   29.4867 H         1 UNK         0.0000 
     50 H50         3.2694   51.9577   31.4790 H         1 UNK         0.0000 
     51 H51         4.7000   51.8376   30.4582 H         1 UNK         0.0000 
     52 H52         4.3039   53.3631   31.2814 H         1 UNK         0.0000 
     53 H53         4.3209   53.6964   23.8551 H         1 UNK         0.0000 
     54 H54         3.6882   53.6151   21.7112 H         1 UNK         0.0000 
     55 H55         4.2370   53.9756   19.3292 H         1 UNK         0.0000 
     56 H56         5.8873   54.8060   17.6060 H         1 UNK         0.0000 
     57 H57         8.0989   55.7936   17.0970 H         1 UNK         0.0000 
     58 H58         9.6383   56.4128   18.9163 H         1 UNK         0.0000 
     59 H59         8.9801   56.0956   21.2781 H         1 UNK         0.0000 
@<TRIPOS>BOND
     1    1    2 1    
     2    1   35 1    
     3    1   36 1    
     4    1   37 1    
     5    2    3 1    
     6    2    8 1    
     7    2    4 1    
     8    4    5 1    
     9    4   38 1    
    10    4   39 1    
    11    5    6 1    
    12    5   40 1    
    13    5   41 1    
    14    6    7 1    
    15    6   42 1    
    16    6   43 1    
    17    7    8 1    
    18    7   44 1    
    19    7   45 1    
    20    8    9 1    
    21    8   10 1    
    22   10   11 1    
    23   10   46 1    
    24   11   12 2    
    25   11   13 2    
    26   11   14 1    
    27   14   19 ar   
    28   14   15 ar   
    29   15   16 ar   
    30   15   47 1    
    31   16   17 ar   
    32   16   22 1    
    33   17   18 ar   
    34   17   48 1    
    35   18   19 ar   
    36   18   49 1    
    37   19   20 1    
    38   20   21 1    
    39   21   50 1    
    40   21   51 1    
    41   21   52 1    
    42   22   23 2    
    43   22   24 am   BACKBONE|DICT|INTERRES
    44   24   25 1    
    45   24   53 1    
    46   25   34 ar   
    47   25   26 ar   
    48   26   27 ar   
    49   26   54 1    
    50   27   28 ar   
    51   27   55 1    
    52   28   33 ar   
    53   28   29 ar   
    54   29   30 ar   
    55   29   56 1    
    56   30   31 ar   
    57   30   57 1    
    58   31   32 ar   
    59   31   58 1    
    60   32   33 ar   
    61   32   59 1    
    62   33   34 ar   
@<TRIPOS>SUBSTRUCTURE
     1 UNK         1 GROUP             0       ****    0 ROOT    
