@<TRIPOS>MOLECULE
ZINC00903771_5763
65   69    1
SMALL
USER_CHARGES


@<TRIPOS>ATOM
      1 C1          5.0918   54.4784   27.6992 C.ar      1 UNK         0.0000 
      2 C2          4.2870   54.4917   28.8351 C.ar      1 UNK         0.0000 
      3 C3          2.9110   54.3038   28.7075 C.ar      1 UNK         0.0000 
      4 C4          2.3339   54.0939   27.4603 C.ar      1 UNK         0.0000 
      5 C5          3.1371   54.0932   26.3258 C.ar      1 UNK         0.0000 
      6 C6          4.5202   54.2907   26.4339 C.ar      1 UNK         0.0000 
      7 C7          5.3629   54.2972   25.1971 C.ar      1 UNK         0.0000 
      8 N8          6.6717   54.0965   25.2076 N.2       1 UNK         0.0000 
      9 N9          7.0596   54.0997   23.8845 N.2       1 UNK         0.0000 
     10 N10         5.9403   54.3869   23.2254 N.pl3     1 UNK         0.0000 
     11 N11         4.8561   54.4951   23.9972 N.2       1 UNK         0.0000 
     12 C12         5.9047   54.6000   21.7803 C.3       1 UNK         0.0000 
     13 C13         5.1015   53.5526   20.9652 C.2       1 UNK         0.0000 
     14 O14         4.8759   52.4739   21.5144 O.2       1 UNK         0.0000 
     15 N15         4.6783   53.8609   19.6891 N.am      1 UNK         0.0000 
     16 C16         5.3614   54.9122   19.0028 C.ar      1 UNK         0.0000 
     17 C17         4.6383   55.9922   18.4794 C.ar      1 UNK         0.0000 
     18 C18         5.2914   57.0098   17.7882 C.ar      1 UNK         0.0000 
     19 C19         6.6709   56.9484   17.6077 C.ar      1 UNK         0.0000 
     20 C20         7.4005   55.8678   18.0959 C.ar      1 UNK         0.0000 
     21 C21         6.7473   54.8468   18.7797 C.ar      1 UNK         0.0000 
     22 Cl22        7.4828   58.2155   16.7644 Cl        1 UNK         0.0000 
     23 C23         3.4568   53.2387   19.0281 C.3       1 UNK         0.0000 
     24 H24         2.7109   53.9843   19.2823 H         1 UNK         0.0000 
     25 C25         3.4763   53.2683   17.5030 C.ar      1 UNK         0.0000 
     26 C26         4.6114   52.8958   16.7735 C.ar      1 UNK         0.0000 
     27 C27         4.5997   52.9339   15.3825 C.ar      1 UNK         0.0000 
     28 C28         3.4510   53.3474   14.7142 C.ar      1 UNK         0.0000 
     29 C29         2.3125   53.7168   15.4259 C.ar      1 UNK         0.0000 
     30 C30         2.3244   53.6735   16.8176 C.ar      1 UNK         0.0000 
     31 F31         3.4390   53.3880   13.3631 F         1 UNK         0.0000 
     32 C32         2.7450   51.9844   19.6313 C.2       1 UNK         0.0000 
     33 O33         2.1616   52.0940   20.7116 O.2       1 UNK         0.0000 
     34 N34         2.7043   50.8610   18.8952 N.am      1 UNK         0.0000 
     35 C35         2.1627   49.5786   19.3379 C.3       1 UNK         0.0000 
     36 C36         0.6205   49.5295   19.3934 C.3       1 UNK         0.0000 
     37 H37         0.2315   50.3507   19.9995 H         1 UNK         0.0000 
     38 C38        -0.0939   49.2941   18.0609 C.3       1 UNK         0.0000 
     39 C39        -1.3536   48.5387   18.4249 C.3       1 UNK         0.0000 
     40 C40        -1.0435   47.9358   19.7944 C.3       1 UNK         0.0000 
     41 O41         0.2987   48.3211   20.0817 O.3       1 UNK         0.0000 
     42 Cl42        1.8993   54.3359   30.0981 Cl        1 UNK         0.0000 
     43 H43         6.1575   54.6302   27.8071 H         1 UNK         0.0000 
     44 H44         4.7321   54.6513   29.8056 H         1 UNK         0.0000 
     45 H45         1.2674   53.9424   27.3709 H         1 UNK         0.0000 
     46 H46         2.6767   53.9322   25.3615 H         1 UNK         0.0000 
     47 H47         6.9336   54.6306   21.4288 H         1 UNK         0.0000 
     48 H48         5.4798   55.5891   21.6194 H         1 UNK         0.0000 
     49 H49         3.5669   56.0488   18.6097 H         1 UNK         0.0000 
     50 H50         4.7307   57.8458   17.3940 H         1 UNK         0.0000 
     51 H51         8.4685   55.8174   17.9391 H         1 UNK         0.0000 
     52 H52         7.3240   54.0055   19.1317 H         1 UNK         0.0000 
     53 H53         5.4970   52.5467   17.2857 H         1 UNK         0.0000 
     54 H54         5.4749   52.6369   14.8243 H         1 UNK         0.0000 
     55 H55         1.4262   54.0343   14.8974 H         1 UNK         0.0000 
     56 H56         1.4382   53.9598   17.3659 H         1 UNK         0.0000 
     57 H57         3.2735   50.8238   18.0547 H         1 UNK         0.0000 
     58 H58         2.5949   49.3031   20.3022 H         1 UNK         0.0000 
     59 H59         2.5283   48.8375   18.6256 H         1 UNK         0.0000 
     60 H60         0.5343   48.6952   17.3978 H         1 UNK         0.0000 
     61 H61        -0.2635   50.2278   17.5227 H         1 UNK         0.0000 
     62 H62        -1.5918   47.7738   17.6836 H         1 UNK         0.0000 
     63 H63        -2.2068   49.2155   18.4907 H         1 UNK         0.0000 
     64 H64        -1.1315   46.8483   19.8002 H         1 UNK         0.0000 
     65 H65        -1.7083   48.3263   20.5657 H         1 UNK         0.0000 
@<TRIPOS>BOND
     1    1    6 ar   
     2    1    2 ar   
     3    1   43 1    
     4    2    3 ar   
     5    2   44 1    
     6    3    4 ar   
     7    3   42 1    
     8    4    5 ar   
     9    4   45 1    
    10    5    6 ar   
    11    5   46 1    
    12    6    7 1    
    13    7   11 ar   
    14    7    8 ar   
    15    8    9 ar   
    16    9   10 ar   
    17   10   11 ar   
    18   10   12 1    
    19   12   13 1    
    20   12   47 1    
    21   12   48 1    
    22   13   14 2    
    23   13   15 am   BACKBONE|DICT|INTERRES
    24   15   16 1    
    25   15   23 1    
    26   16   21 ar   
    27   16   17 ar   
    28   17   18 ar   
    29   17   49 1    
    30   18   19 ar   
    31   18   50 1    
    32   19   20 ar   
    33   19   22 1    
    34   20   21 ar   
    35   20   51 1    
    36   21   52 1    
    37   23   24 1    
    38   23   25 1    
    39   23   32 1    
    40   25   30 ar   
    41   25   26 ar   
    42   26   27 ar   
    43   26   53 1    
    44   27   28 ar   
    45   27   54 1    
    46   28   29 ar   
    47   28   31 1    
    48   29   30 ar   
    49   29   55 1    
    50   30   56 1    
    51   32   33 2    
    52   32   34 am   BACKBONE|DICT|INTERRES
    53   34   35 1    
    54   34   57 1    
    55   35   36 1    
    56   35   58 1    
    57   35   59 1    
    58   36   37 1    
    59   36   41 1    
    60   36   38 1    
    61   38   39 1    
    62   38   60 1    
    63   38   61 1    
    64   39   40 1    
    65   39   62 1    
    66   39   63 1    
    67   40   41 1    
    68   40   64 1    
    69   40   65 1    
@<TRIPOS>SUBSTRUCTURE
     1 UNK         1 GROUP             0       ****    0 ROOT    
