@<TRIPOS>MOLECULE
ZINC13917351_4226
44   47    1
SMALL
USER_CHARGES


@<TRIPOS>ATOM
      1 C1         -1.0262   47.7613   24.6720 C.ar      1 UNK         0.0000 
      2 C2         -0.2717   48.8003   25.2177 C.ar      1 UNK         0.0000 
      3 C3         -0.7190   50.1201   25.1259 C.ar      1 UNK         0.0000 
      4 C4         -1.9559   50.3857   24.5084 C.ar      1 UNK         0.0000 
      5 C5         -2.7053   49.3399   23.9719 C.ar      1 UNK         0.0000 
      6 C6         -2.2435   48.0176   24.0245 C.ar      1 UNK         0.0000 
      7 N7         -3.0212   46.9227   23.3957 N.pl3     1 UNK         0.0000 
      8 O8         -4.1563   47.1637   22.9957 O.co2     1 UNK         0.0000 
      9 O9         -2.4966   45.8193   23.2819 O.co2     1 UNK         0.0000 
     10 Cl10       -2.5589   52.0025   24.3407 Cl        1 UNK         0.0000 
     11 N11         0.0996   51.1717   25.6051 N.pl3     1 UNK         0.0000 
     12 C12         1.0073   51.7784   24.7109 C.2       1 UNK         0.0000 
     13 C13         1.6913   52.9066   25.0811 C.2       1 UNK         0.0000 
     14 C14         1.6717   53.4232   26.5490 C.3       1 UNK         0.0000 
     15 H15         1.5044   54.4966   26.5346 H         1 UNK         0.0000 
     16 C16         0.4942   52.8161   27.3163 C.2       1 UNK         0.0000 
     17 C17        -0.1628   51.7248   26.8693 C.2       1 UNK         0.0000 
     18 N18        -1.1423   51.1226   27.6297 N.pl3     1 UNK         0.0000 
     19 C19         0.1782   53.3504   28.6056 C.1       1 UNK         0.0000 
     20 N20        -0.0846   53.7255   29.6676 N.1       1 UNK         0.0000 
     21 C21         3.0142   53.3103   27.2810 C.2       1 UNK         0.0000 
     22 C22         4.2548   53.8513   26.9134 C.2       1 UNK         0.0000 
     23 C23         5.3046   53.5898   27.7872 C.2       1 UNK         0.0000 
     24 C24         4.8830   52.8701   28.8816 C.2       1 UNK         0.0000 
     25 S25         3.2046   52.4973   28.8220 S.3       1 UNK         0.0000 
     26 Br26        7.1043   54.1322   27.4884 Br        1 UNK         0.0000 
     27 C27         2.4159   53.7341   24.0788 C.2       1 UNK         0.0000 
     28 O28         2.7465   54.8964   24.2967 O.2       1 UNK         0.0000 
     29 C29         2.6195   53.1470   22.6797 C.3       1 UNK         0.0000 
     30 C30         1.3985   52.3387   22.2453 C.3       1 UNK         0.0000 
     31 C31         1.0834   51.2313   23.2591 C.3       1 UNK         0.0000 
     32 H32        -0.6507   46.7532   24.7641 H         1 UNK         0.0000 
     33 H33         0.6686   48.5732   25.7039 H         1 UNK         0.0000 
     34 H34        -3.6446   49.5688   23.4869 H         1 UNK         0.0000 
     35 H35        -1.3750   51.5198   28.5282 H         1 UNK         0.0000 
     36 H36        -1.2953   50.1195   27.5727 H         1 UNK         0.0000 
     37 H37         4.4144   54.4187   26.0118 H         1 UNK         0.0000 
     38 H38         5.4916   52.4967   29.6817 H         1 UNK         0.0000 
     39 H39         3.4950   52.4986   22.7278 H         1 UNK         0.0000 
     40 H40         2.8602   53.9477   21.9781 H         1 UNK         0.0000 
     41 H41         1.5666   51.9059   21.2572 H         1 UNK         0.0000 
     42 H42         0.5414   53.0066   22.1355 H         1 UNK         0.0000 
     43 H43         1.7547   50.3731   23.1965 H         1 UNK         0.0000 
     44 H44         0.1148   50.8858   22.8992 H         1 UNK         0.0000 
@<TRIPOS>BOND
     1    1    6 ar   
     2    1    2 ar   
     3    1   32 1    
     4    2    3 ar   
     5    2   33 1    
     6    3    4 ar   
     7    3   11 1    
     8    4    5 ar   
     9    4   10 1    
    10    5    6 ar   
    11    5   34 1    
    12    6    7 1    
    13    7    8 2    
    14    7    9 1    
    15   11   17 1    
    16   11   12 1    
    17   12   31 1    
    18   12   13 2    
    19   13   14 1    
    20   13   27 1    
    21   14   15 1    
    22   14   16 1    
    23   14   21 1    
    24   16   17 2    
    25   16   19 1    
    26   17   18 1    
    27   18   35 1    
    28   18   36 1    
    29   19   20 3    
    30   21   25 1    
    31   21   22 2    
    32   22   23 1    
    33   22   37 1    
    34   23   24 2    
    35   23   26 1    
    36   24   25 1    
    37   24   38 1    
    38   27   28 2    
    39   27   29 1    
    40   29   30 1    
    41   29   39 1    
    42   29   40 1    
    43   30   31 1    
    44   30   41 1    
    45   30   42 1    
    46   31   43 1    
    47   31   44 1    
@<TRIPOS>SUBSTRUCTURE
     1 UNK         1 GROUP             0       ****    0 ROOT    
