@<TRIPOS>MOLECULE
ZINC45549139_2779
46   49    1
SMALL
USER_CHARGES


@<TRIPOS>ATOM
      1 C1          5.8317   58.0997   17.6769 C.3       1 UNK         0.0000 
      2 C2          7.0376   57.3923   17.0947 C.2       1 UNK         0.0000 
      3 C3          7.7740   57.8322   15.9460 C.ar      1 UNK         0.0000 
      4 C4          7.6748   58.9004   15.0384 C.ar      1 UNK         0.0000 
      5 C5          8.6237   59.0053   14.0162 C.ar      1 UNK         0.0000 
      6 C6          9.6611   58.0790   13.8874 C.ar      1 UNK         0.0000 
      7 C7          9.7935   57.0117   14.7774 C.ar      1 UNK         0.0000 
      8 C8          8.8366   56.9147   15.7941 C.ar      1 UNK         0.0000 
      9 O9          8.7973   55.9609   16.7637 O.3       1 UNK         0.0000 
     10 C10         7.6881   56.2213   17.5191 C.2       1 UNK         0.0000 
     11 C11         7.4790   55.3878   18.6738 C.2       1 UNK         0.0000 
     12 O12         8.4296   54.8967   19.2822 O.2       1 UNK         0.0000 
     13 N13         6.1730   55.2158   18.9860 N.am      1 UNK         0.0000 
     14 N14         5.7484   54.5631   20.1618 N.am      1 UNK         0.0000 
     15 C15         5.9959   55.1045   21.3792 C.2       1 UNK         0.0000 
     16 O16         6.7050   56.0967   21.5602 O.2       1 UNK         0.0000 
     17 C17         5.2914   54.4967   22.4893 C.ar      1 UNK         0.0000 
     18 C18         4.0228   53.9038   22.4580 C.ar      1 UNK         0.0000 
     19 N19         3.5354   53.6930   23.6534 N.2       1 UNK         0.0000 
     20 N20         4.4797   54.0969   24.5243 N.pl3     1 UNK         0.0000 
     21 C21         5.5729   54.6343   23.8586 C.ar      1 UNK         0.0000 
     22 C22         6.7312   55.2979   24.5789 C.3       1 UNK         0.0000 
     23 C23         4.2500   53.9337   25.9252 C.ar      1 UNK         0.0000 
     24 C24         5.3181   53.6968   26.8045 C.ar      1 UNK         0.0000 
     25 C25         5.0874   53.4814   28.1578 C.ar      1 UNK         0.0000 
     26 C26         3.7852   53.4697   28.6437 C.ar      1 UNK         0.0000 
     27 C27         2.7106   53.7064   27.7906 C.ar      1 UNK         0.0000 
     28 C28         2.9418   53.9376   26.4366 C.ar      1 UNK         0.0000 
     29 Br29        3.4769   53.0809   30.4793 Br        1 UNK         0.0000 
     30 H30         6.0415   59.1555   17.8479 H         1 UNK         0.0000 
     31 H31         4.9780   58.0605   17.0002 H         1 UNK         0.0000 
     32 H32         5.5038   57.6989   18.6337 H         1 UNK         0.0000 
     33 H33         6.8814   59.6295   15.1356 H         1 UNK         0.0000 
     34 H34         8.5553   59.8228   13.3122 H         1 UNK         0.0000 
     35 H35        10.3760   58.1946   13.0848 H         1 UNK         0.0000 
     36 H36        10.5953   56.2932   14.6905 H         1 UNK         0.0000 
     37 H37         5.4345   55.7448   18.5454 H         1 UNK         0.0000 
     38 H38         5.3758   53.6382   20.0026 H         1 UNK         0.0000 
     39 H39         3.4307   53.6997   21.5758 H         1 UNK         0.0000 
     40 H40         7.2445   56.0351   23.9645 H         1 UNK         0.0000 
     41 H41         6.4144   55.8378   25.4712 H         1 UNK         0.0000 
     42 H42         7.4927   54.5745   24.8660 H         1 UNK         0.0000 
     43 H43         6.3356   53.6253   26.4595 H         1 UNK         0.0000 
     44 H44         5.9177   53.2949   28.8210 H         1 UNK         0.0000 
     45 H45         1.7004   53.6906   28.1727 H         1 UNK         0.0000 
     46 H46         2.0940   54.0959   25.7857 H         1 UNK         0.0000 
@<TRIPOS>BOND
     1    1    2 1    
     2    1   30 1    
     3    1   31 1    
     4    1   32 1    
     5    2   10 2    
     6    2    3 1    
     7    3    8 ar   
     8    3    4 ar   
     9    4    5 ar   
    10    4   33 1    
    11    5    6 ar   
    12    5   34 1    
    13    6    7 ar   
    14    6   35 1    
    15    7    8 ar   
    16    7   36 1    
    17    8    9 1    
    18    9   10 1    
    19   10   11 1    
    20   11   12 2    
    21   11   13 am   BACKBONE|DICT|INTERRES
    22   13   14 1    
    23   13   37 1    
    24   14   15 am   BACKBONE|DICT|INTERRES
    25   14   38 1    
    26   15   16 2    
    27   15   17 1    
    28   17   21 ar   
    29   17   18 ar   
    30   18   19 ar   
    31   18   39 1    
    32   19   20 ar   
    33   20   21 ar   
    34   20   23 1    
    35   21   22 1    
    36   22   40 1    
    37   22   41 1    
    38   22   42 1    
    39   23   28 ar   
    40   23   24 ar   
    41   24   25 ar   
    42   24   43 1    
    43   25   26 ar   
    44   25   44 1    
    45   26   27 ar   
    46   26   29 1    
    47   27   28 ar   
    48   27   45 1    
    49   28   46 1    
@<TRIPOS>SUBSTRUCTURE
     1 UNK         1 GROUP             0       ****    0 ROOT    
