@<TRIPOS>MOLECULE
ZINC50702236_1905
30   31    1
SMALL
USER_CHARGES


@<TRIPOS>ATOM
      1 C1          1.5301   56.1554   29.4583 C.3       1 UNK         0.0000 
      2 C2          2.2348   54.8006   29.2801 C.3       1 UNK         0.0000 
      3 H3          2.9298   54.6911   30.1149 H         1 UNK         0.0000 
      4 C4          1.2523   53.6371   29.3153 C.2       1 UNK         0.0000 
      5 C5          0.9325   52.6837   28.3384 C.2       1 UNK         0.0000 
      6 C6         -0.0419   51.7586   28.7175 C.2       1 UNK         0.0000 
      7 C7         -0.4956   51.9755   30.0021 C.2       1 UNK         0.0000 
      8 S8          0.3035   53.3172   30.7475 S.3       1 UNK         0.0000 
      9 N9          3.0251   54.8023   28.0515 N.am      1 UNK         0.0000 
     10 C10         4.1552   54.0967   27.8615 C.2       1 UNK         0.0000 
     11 O11         4.7042   53.4556   28.7603 O.2       1 UNK         0.0000 
     12 C12         4.7612   54.1886   26.4790 C.ar      1 UNK         0.0000 
     13 C13         3.9364   54.2552   25.3420 C.ar      1 UNK         0.0000 
     14 C14         4.4996   54.3540   24.0702 C.ar      1 UNK         0.0000 
     15 C15         5.8867   54.3854   23.9568 C.ar      1 UNK         0.0000 
     16 N16         6.7094   54.3039   25.0288 N.ar      1 UNK         0.0000 
     17 C17         6.1555   54.1995   26.2623 C.ar      1 UNK         0.0000 
     18 N18         7.0784   54.0967   27.3010 N.pl3     1 UNK         0.0000 
     19 Br19        3.3941   54.4606   22.5254 Br        1 UNK         0.0000 
     20 H20         0.9897   56.2154   30.4035 H         1 UNK         0.0000 
     21 H21         2.2500   56.9743   29.4505 H         1 UNK         0.0000 
     22 H22         0.8196   56.3386   28.6521 H         1 UNK         0.0000 
     23 H23         1.3997   52.6582   27.3642 H         1 UNK         0.0000 
     24 H24        -0.3999   50.9560   28.0846 H         1 UNK         0.0000 
     25 H25        -1.2285   51.3956   30.5435 H         1 UNK         0.0000 
     26 H26         2.5403   55.1266   27.2294 H         1 UNK         0.0000 
     27 H27         2.8591   54.2151   25.4268 H         1 UNK         0.0000 
     28 H28         6.3630   54.4728   22.9903 H         1 UNK         0.0000 
     29 H29         6.7000   53.9200   28.2223 H         1 UNK         0.0000 
     30 H30         8.0277   53.8501   27.0690 H         1 UNK         0.0000 
@<TRIPOS>BOND
     1    1    2 1    
     2    1   20 1    
     3    1   21 1    
     4    1   22 1    
     5    2    3 1    
     6    2    4 1    
     7    2    9 1    
     8    4    8 1    
     9    4    5 2    
    10    5    6 1    
    11    5   23 1    
    12    6    7 2    
    13    6   24 1    
    14    7    8 1    
    15    7   25 1    
    16    9   10 am   BACKBONE|DICT|INTERRES
    17    9   26 1    
    18   10   11 2    
    19   10   12 1    
    20   12   17 ar   
    21   12   13 ar   
    22   13   14 ar   
    23   13   27 1    
    24   14   15 ar   
    25   14   19 1    
    26   15   16 ar   
    27   15   28 1    
    28   16   17 ar   
    29   17   18 1    
    30   18   29 1    
    31   18   30 1    
@<TRIPOS>SUBSTRUCTURE
     1 UNK         1 GROUP             0       ****    0 ROOT    
