@<TRIPOS>MOLECULE
ZINC59960710_6025
43   45    1
SMALL
USER_CHARGES


@<TRIPOS>ATOM
      1 C1          3.9864   53.4067   17.6548 C.ar      1 UNK         0.0000 
      2 C2          3.0789   53.3137   16.6037 C.ar      1 UNK         0.0000 
      3 C3          2.5349   54.4658   16.0340 C.ar      1 UNK         0.0000 
      4 C4          2.9053   55.7360   16.5166 C.ar      1 UNK         0.0000 
      5 C5          3.8300   55.8166   17.5693 C.ar      1 UNK         0.0000 
      6 C6          4.3720   54.6555   18.1439 C.ar      1 UNK         0.0000 
      7 N7          5.2453   54.6593   19.2422 N.am      1 UNK         0.0000 
      8 C8          6.0623   55.6584   19.6618 C.2       1 UNK         0.0000 
      9 O9          6.2820   56.7016   19.0420 O.2       1 UNK         0.0000 
     10 C10         6.7301   55.4008   20.9568 C.2       1 UNK         0.0000 
     11 O11         7.9153   55.6967   21.1377 O.2       1 UNK         0.0000 
     12 N12         5.9070   54.8966   21.9029 N.am      1 UNK         0.0000 
     13 N13         6.3007   54.7047   23.1752 N.2       1 UNK         0.0000 
     14 C14         5.3275   54.3936   23.9287 C.2       1 UNK         0.0000 
     15 C15         5.5141   54.2261   25.3556 C.2       1 UNK         0.0000 
     16 C16         6.6069   54.2884   26.2043 C.2       1 UNK         0.0000 
     17 C17         6.1529   54.0122   27.4920 C.2       1 UNK         0.0000 
     18 C18         4.7881   53.7860   27.3835 C.2       1 UNK         0.0000 
     19 O19         4.4094   53.9381   26.0865 O.3       1 UNK         0.0000 
     20 C20         3.7300   53.4196   28.3559 C.ar      1 UNK         0.0000 
     21 C21         2.3863   53.7048   28.1003 C.ar      1 UNK         0.0000 
     22 C22         1.4091   53.3591   29.0327 C.ar      1 UNK         0.0000 
     23 C23         1.7639   52.7431   30.2319 C.ar      1 UNK         0.0000 
     24 C24         3.1036   52.4515   30.4826 C.ar      1 UNK         0.0000 
     25 C25         4.0774   52.7690   29.5398 C.ar      1 UNK         0.0000 
     26 Cl26        3.5643   51.6967   31.9595 Cl        1 UNK         0.0000 
     27 Cl27       -0.2398   53.6968   28.6943 Cl        1 UNK         0.0000 
     28 C28         2.3105   57.0163   15.9200 C.3       1 UNK         0.0000 
     29 F29         2.8054   58.1200   16.4808 F         1 UNK         0.0000 
     30 F30         0.9874   57.0214   16.0999 F         1 UNK         0.0000 
     31 F31         2.5660   57.0741   14.6133 F         1 UNK         0.0000 
     32 Cl32        1.3984   54.2726   14.7441 Cl        1 UNK         0.0000 
     33 H33         4.3874   52.4964   18.0800 H         1 UNK         0.0000 
     34 H34         2.7953   52.3371   16.2374 H         1 UNK         0.0000 
     35 H35         4.1038   56.7870   17.9568 H         1 UNK         0.0000 
     36 H36         5.2598   53.7927   19.7586 H         1 UNK         0.0000 
     37 H37         4.9292   54.7278   21.7141 H         1 UNK         0.0000 
     38 H38         4.2981   54.2435   23.6071 H         1 UNK         0.0000 
     39 H39         7.6163   54.4967   25.9012 H         1 UNK         0.0000 
     40 H40         6.7461   53.9751   28.3938 H         1 UNK         0.0000 
     41 H41         2.0985   54.1933   27.1806 H         1 UNK         0.0000 
     42 H42         1.0033   52.4888   30.9579 H         1 UNK         0.0000 
     43 H43         5.1045   52.4982   29.7202 H         1 UNK         0.0000 
@<TRIPOS>BOND
     1    1    6 ar   
     2    1    2 ar   
     3    1   33 1    
     4    2    3 ar   
     5    2   34 1    
     6    3    4 ar   
     7    3   32 1    
     8    4    5 ar   
     9    4   28 1    
    10    5    6 ar   
    11    5   35 1    
    12    6    7 1    
    13    7    8 am   BACKBONE|DICT|INTERRES
    14    7   36 1    
    15    8    9 2    
    16    8   10 1    
    17   10   11 2    
    18   10   12 am   BACKBONE|DICT|INTERRES
    19   12   13 1    
    20   12   37 1    
    21   13   14 2    
    22   14   15 1    
    23   14   38 1    
    24   15   19 1    
    25   15   16 2    
    26   16   17 1    
    27   16   39 1    
    28   17   18 2    
    29   17   40 1    
    30   18   19 1    
    31   18   20 1    
    32   20   25 ar   
    33   20   21 ar   
    34   21   22 ar   
    35   21   41 1    
    36   22   23 ar   
    37   22   27 1    
    38   23   24 ar   
    39   23   42 1    
    40   24   25 ar   
    41   24   26 1    
    42   25   43 1    
    43   28   29 1    
    44   28   30 1    
    45   28   31 1    
@<TRIPOS>SUBSTRUCTURE
     1 UNK         1 GROUP             0       ****    0 ROOT    
