@<TRIPOS>MOLECULE
ZINC09427854_923
53   57    1
SMALL
USER_CHARGES


@<TRIPOS>ATOM
      1 C1          4.0647   53.5694   15.8934 C.ar      1 UNK         0.0000 
      2 C2          4.4726   54.8550   15.5543 C.ar      1 UNK         0.0000 
      3 C3          5.0404   55.7051   16.5005 C.ar      1 UNK         0.0000 
      4 C4          5.1872   55.2314   17.8127 C.ar      1 UNK         0.0000 
      5 C5          4.7611   53.9203   18.1899 C.ar      1 UNK         0.0000 
      6 C6          4.2029   53.0946   17.1971 C.ar      1 UNK         0.0000 
      7 C7          4.9922   53.6658   19.5759 C.2       1 UNK         0.0000 
      8 C8          5.5383   54.7634   20.2390 C.2       1 UNK         0.0000 
      9 S9          5.9037   56.0951   19.1601 S.3       1 UNK         0.0000 
     10 C10         5.9039   54.8967   21.6247 C.2       1 UNK         0.0000 
     11 O11         6.9186   55.5069   21.9634 O.2       1 UNK         0.0000 
     12 N12         4.9841   54.3540   22.4519 N.am      1 UNK         0.0000 
     13 C13         4.9464   54.3141   23.8481 C.2       1 UNK         0.0000 
     14 C14         3.8652   53.8376   24.6345 C.2       1 UNK         0.0000 
     15 C15         4.1799   53.9151   26.0334 C.2       1 UNK         0.0000 
     16 C16         5.4635   54.4432   26.2577 C.2       1 UNK         0.0000 
     17 S17         6.2907   54.8574   24.8097 S.3       1 UNK         0.0000 
     18 C18         6.1408   54.5798   27.6073 C.3       1 UNK         0.0000 
     19 C19         5.0735   54.4972   28.7087 C.3       1 UNK         0.0000 
     20 C20         4.1634   53.2868   28.5112 C.3       1 UNK         0.0000 
     21 C21         3.3202   53.4403   27.2270 C.3       1 UNK         0.0000 
     22 C22         2.6345   53.2969   24.0331 C.2       1 UNK         0.0000 
     23 O23         2.5095   53.1915   22.8111 O.2       1 UNK         0.0000 
     24 N24         1.6760   52.8854   24.8884 N.am      1 UNK         0.0000 
     25 C25         0.4071   52.2026   24.6074 C.3       1 UNK         0.0000 
     26 H26        -0.1078   52.0117   25.5516 H         1 UNK         0.0000 
     27 C27         0.5980   50.8193   23.9301 C.3       1 UNK         0.0000 
     28 C28        -0.7785   50.2848   23.4962 C.3       1 UNK         0.0000 
     29 S29        -1.7387   51.8060   22.9490 S.o2      1 UNK         0.0000 
     30 O30        -3.0128   51.8604   23.6715 O.2       1 UNK         0.0000 
     31 O31        -1.7031   51.9611   21.4897 O.2       1 UNK         0.0000 
     32 C32        -0.5359   53.0144   23.7094 C.3       1 UNK         0.0000 
     33 Cl33        4.6085   52.1344   20.2851 Cl        1 UNK         0.0000 
     34 H34         3.6429   52.9279   15.1334 H         1 UNK         0.0000 
     35 H35         4.3582   55.1927   14.5323 H         1 UNK         0.0000 
     36 H36         5.3646   56.6998   16.2242 H         1 UNK         0.0000 
     37 H37         3.9014   52.0824   17.4350 H         1 UNK         0.0000 
     38 H38         4.1676   53.9482   22.0079 H         1 UNK         0.0000 
     39 H39         6.8722   53.7836   27.7486 H         1 UNK         0.0000 
     40 H40         6.6847   55.5214   27.6817 H         1 UNK         0.0000 
     41 H41         5.5544   54.4964   29.6818 H         1 UNK         0.0000 
     42 H42         4.4420   55.3797   28.7036 H         1 UNK         0.0000 
     43 H43         4.7649   52.3772   28.4621 H         1 UNK         0.0000 
     44 H44         3.5060   53.1672   29.3741 H         1 UNK         0.0000 
     45 H45         2.5140   54.1534   27.4034 H         1 UNK         0.0000 
     46 H46         2.8527   52.4760   27.0505 H         1 UNK         0.0000 
     47 H47         1.8654   53.0439   25.8661 H         1 UNK         0.0000 
     48 H48         1.1062   50.1205   24.5979 H         1 UNK         0.0000 
     49 H49         1.2507   50.9085   23.0587 H         1 UNK         0.0000 
     50 H50        -1.2906   49.8953   24.3796 H         1 UNK         0.0000 
     51 H51        -0.8066   49.5140   22.7236 H         1 UNK         0.0000 
     52 H52         0.0627   53.2965   22.8486 H         1 UNK         0.0000 
     53 H53        -0.9751   53.9404   24.0771 H         1 UNK         0.0000 
@<TRIPOS>BOND
     1    1    6 ar   
     2    1    2 ar   
     3    1   34 1    
     4    2    3 ar   
     5    2   35 1    
     6    3    4 ar   
     7    3   36 1    
     8    4    9 1    
     9    4    5 ar   
    10    5    6 ar   
    11    5    7 1    
    12    6   37 1    
    13    7    8 2    
    14    7   33 1    
    15    8    9 1    
    16    8   10 1    
    17   10   11 2    
    18   10   12 am   BACKBONE|DICT|INTERRES
    19   12   13 am   BACKBONE|DICT|INTERRES
    20   12   38 1    
    21   13   17 1    
    22   13   14 2    
    23   14   15 1    
    24   14   22 1    
    25   15   21 1    
    26   15   16 2    
    27   16   17 1    
    28   16   18 1    
    29   18   19 1    
    30   18   39 1    
    31   18   40 1    
    32   19   20 1    
    33   19   41 1    
    34   19   42 1    
    35   20   21 1    
    36   20   43 1    
    37   20   44 1    
    38   21   45 1    
    39   21   46 1    
    40   22   23 2    
    41   22   24 am   BACKBONE|DICT|INTERRES
    42   24   25 1    
    43   24   47 1    
    44   25   26 1    
    45   25   32 1    
    46   25   27 1    
    47   27   28 1    
    48   27   48 1    
    49   27   49 1    
    50   28   29 1    
    51   28   50 1    
    52   28   51 1    
    53   29   30 2    
    54   29   31 2    
    55   29   32 1    
    56   32   52 1    
    57   32   53 1    
@<TRIPOS>SUBSTRUCTURE
     1 UNK         1 GROUP             0       ****    0 ROOT    
