ZINC43743110_1903
                    3D
 Schrodinger Suite 2024-2.
 57 59  0  0  1  0            999 V2000
    1.8674   51.8828   30.7244 C   0  0  0  0  0  0
    1.0548   52.9299   29.9487 C   0  0  2  0  0  0
    1.1682   53.8160   30.5774 H   0  0  0  0  0  0
   -0.4652   52.6152   29.9434 C   0  0  0  0  0  0
   -1.1017   51.9128   28.7108 C   0  0  0  0  0  0
   -0.5127   52.3161   27.3232 C   0  0  1  0  0  0
   -0.7572   53.3699   27.2817 H   0  0  0  0  0  0
    1.0634   52.3174   27.3644 C   0  0  2  0  0  0
    1.5495   53.3108   28.5108 C   0  0  1  0  0  0
    1.2561   54.8070   28.3095 C   0  0  0  0  0  0
    2.4827   55.4960   28.8561 C   0  0  0  0  0  0
    3.6276   54.5499   28.4698 C   0  0  2  0  0  0
    2.9904   53.2687   28.5062 O   0  0  0  0  0  0
    4.7159   54.4959   29.5507 C   0  0  0  0  0  0
    4.2107   54.7674   27.0432 C   0  0  0  0  0  0
    5.1150   53.7404   26.6695 O   0  0  0  0  0  0
    1.6204   52.7236   25.9579 C   0  0  0  0  0  0
    1.0583   51.9310   24.7619 C   0  0  0  0  0  0
   -0.4775   52.0343   24.6949 C   0  0  1  0  0  0
   -0.8187   51.3677   23.9006 H   0  0  0  0  0  0
   -1.2056   51.6319   26.0426 C   0  0  2  0  0  0
   -2.6698   52.1690   25.9705 C   0  0  0  0  0  0
   -1.1078   50.0567   26.0666 C   0  0  0  0  0  0
   -2.3389   49.3669   26.0815 O   0  0  0  0  0  0
   -0.8163   53.2968   24.1557 O   0  0  0  0  0  0
    1.5689   50.8971   27.6809 C   0  0  0  0  0  0
    1.9028   50.9485   30.1845 H   0  0  0  0  0  0
    2.8970   52.2072   30.8714 H   0  0  0  0  0  0
    1.4439   51.6992   31.7133 H   0  0  0  0  0  0
   -0.8968   53.6096   29.9682 H   0  0  0  0  0  0
   -0.7994   52.1731   30.8818 H   0  0  0  0  0  0
   -2.1718   52.0961   28.7269 H   0  0  0  0  0  0
   -1.0557   50.8394   28.8551 H   0  0  0  0  0  0
    0.3466   55.1224   28.8099 H   0  0  0  0  0  0
    1.1051   55.0728   27.2818 H   0  0  0  0  0  0
    2.4114   55.6016   29.9397 H   0  0  0  0  0  0
    2.5851   56.5056   28.4821 H   0  0  0  0  0  0
    5.2105   55.4573   29.6808 H   0  0  0  0  0  0
    4.3052   54.1911   30.5115 H   0  0  0  0  0  0
    5.4832   53.7689   29.2806 H   0  0  0  0  0  0
    4.7712   55.6949   26.9846 H   0  0  0  0  0  0
    3.4214   54.8423   26.2966 H   0  0  0  0  0  0
    4.6810   52.8894   26.7870 H   0  0  0  0  0  0
    1.4227   53.7675   25.7336 H   0  0  0  0  0  0
    2.7052   52.6364   25.9550 H   0  0  0  0  0  0
    1.3447   50.8910   24.8815 H   0  0  0  0  0  0
    1.5217   52.2785   23.8359 H   0  0  0  0  0  0
   -3.1555   51.8568   25.0457 H   0  0  0  0  0  0
   -3.2830   51.7916   26.7882 H   0  0  0  0  0  0
   -2.7140   53.2589   26.0066 H   0  0  0  0  0  0
   -0.5508   49.6347   25.2303 H   0  0  0  0  0  0
   -0.5667   49.6983   26.9289 H   0  0  0  0  0  0
   -2.3483   48.8974   26.9369 H   0  0  0  0  0  0
   -0.2632   53.4471   23.3859 H   0  0  0  0  0  0
    1.5039   50.1720   26.8809 H   0  0  0  0  0  0
    2.5913   50.8964   28.0510 H   0  0  0  0  0  0
    0.9627   50.4973   28.4671 H   0  0  0  0  0  0
  1  2  1  0  0  0
  1 27  1  0  0  0
  1 28  1  0  0  0
  1 29  1  0  0  0
  2  3  1  0  0  0
  2  9  1  0  0  0
  2  4  1  0  0  0
  4  5  1  0  0  0
  4 30  1  0  0  0
  4 31  1  0  0  0
  5  6  1  0  0  0
  5 32  1  0  0  0
  5 33  1  0  0  0
  6  7  1  0  0  0
  6 21  1  0  0  0
  6  8  1  0  0  0
  8  9  1  0  0  0
  8 17  1  0  0  0
  8 26  1  0  0  0
  9 13  1  0  0  0
  9 10  1  0  0  0
 10 11  1  0  0  0
 10 34  1  0  0  0
 10 35  1  0  0  0
 11 12  1  0  0  0
 11 36  1  0  0  0
 11 37  1  0  0  0
 12 13  1  0  0  0
 12 14  1  0  0  0
 12 15  1  0  0  0
 14 38  1  0  0  0
 14 39  1  0  0  0
 14 40  1  0  0  0
 15 16  1  0  0  0
 15 41  1  0  0  0
 15 42  1  0  0  0
 16 43  1  0  0  0
 17 18  1  0  0  0
 17 44  1  0  0  0
 17 45  1  0  0  0
 18 19  1  0  0  0
 18 46  1  0  0  0
 18 47  1  0  0  0
 19 20  1  0  0  0
 19 21  1  0  0  0
 19 25  1  0  0  0
 21 22  1  0  0  0
 21 23  1  0  0  0
 22 48  1  0  0  0
 22 49  1  0  0  0
 22 50  1  0  0  0
 23 24  1  0  0  0
 23 51  1  0  0  0
 23 52  1  0  0  0
 24 53  1  0  0  0
 25 54  1  0  0  0
 26 55  1  0  0  0
 26 56  1  0  0  0
 26 57  1  0  0  0
M  END
> <i_i_glide_confnum>
2

> <i_i_glide_lignum>
1904

> <i_i_glide_posenum>
212

> <i_i_glide_rotatable_bonds>
5

> <i_m_Source_File_Index>
1713

> <b_m_subgroup_collapsed>
0

> <r_i_docking_score>
-4.0944

> <r_i_glide_ecoul>
-3.84871

> <r_i_glide_eff_state_penalty>
0

> <r_i_glide_einternal>
2.64229

> <r_i_glide_emodel>
-16.7641

> <r_i_glide_energy>
-16.4852

> <r_i_glide_erotb>
0.351935

> <r_i_glide_esite>
0

> <r_i_glide_evdw>
-12.6365

> <r_i_glide_gscore>
-4.0944

> <r_i_glide_hbond>
-0.159083

> <r_i_glide_ligand_efficiency>
-0.178017

> <r_i_glide_ligand_efficiency_ln>
-0.990062

> <r_i_glide_ligand_efficiency_sa>
-0.506257

> <r_i_glide_lipo>
-1.89497

> <r_i_glide_metal>
0

> <r_i_glide_rewards>
-1.18315

> <s_i_glide_gridfile>
wee1_glide-grid

> <s_m_Source_File>
wee1_decoys_glide_SP.sdf

> <s_m_Source_Path>
/Users/zhangxujun/Desktop

> <s_m_entry_id>
1988

> <s_m_entry_name>
wee1_decoys_glide_SP.1713

> <s_m_subgroup_title>
wee1_decoys_glide_SP

> <s_m_subgroupid>
wee1_decoys_glide_SP


$$$$
