ZINC39686751_1296
                    3D
 Schrodinger Suite 2024-2.
 72 75  0  0  1  0            999 V2000
    2.9200   51.6959   16.2297 C   0  0  0  0  0  0
    1.6684   51.3882   17.0322 C   0  0  0  0  0  0
    1.0775   52.3939   17.7960 C   0  0  0  0  0  0
   -0.0829   52.1225   18.5109 C   0  0  0  0  0  0
   -0.6610   50.8525   18.4694 C   0  0  0  0  0  0
   -0.0596   49.8423   17.7133 C   0  0  0  0  0  0
    1.1044   50.1102   16.9967 C   0  0  0  0  0  0
   -1.9556   50.5971   19.2369 C   0  0  0  0  0  0
   -1.8064   49.5837   20.3839 C   0  0  0  0  0  0
   -2.1171   48.4102   20.1697 O   0  0  0  0  0  0
   -1.4072   50.0136   21.6046 N   0  0  0  0  0  0
   -0.7707   51.3044   21.8732 C   0  0  0  0  0  0
    0.0390   51.0249   23.1594 C   0  0  2  0  0  0
    0.9952   50.5674   22.8947 H   0  0  0  0  0  0
   -0.8271   49.9731   23.9276 C   0  0  0  0  0  0
   -1.3142   49.1071   22.7475 C   0  0  0  0  0  0
   -0.1031   49.0617   24.9403 C   0  0  0  0  0  0
    0.3842   49.8295   26.1722 C   0  0  0  0  0  0
   -0.8183   50.4967   26.8820 N   0  3  0  0  0  0
   -1.8363   51.2495   25.9947 C   0  0  0  0  0  0
   -2.1030   50.4829   24.6752 C   0  0  0  0  0  0
    0.3385   52.3646   23.8729 C   0  0  0  0  0  0
   -0.4772   53.2892   23.8755 O   0  0  0  0  0  0
    1.5600   52.4868   24.4238 N   0  0  0  0  0  0
    1.9997   53.6061   25.2593 C   0  0  1  0  0  0
    1.5632   54.5181   24.8586 H   0  0  0  0  0  0
    1.5042   53.4249   26.7085 C   0  0  0  0  0  0
    3.5358   53.7853   25.2671 C   0  0  0  0  0  0
    4.2661   54.0831   23.9504 C   0  0  0  0  0  0
    3.5954   54.1787   22.7218 C   0  0  0  0  0  0
    4.3044   54.4135   21.5443 C   0  0  0  0  0  0
    5.6865   54.5754   21.5795 C   0  0  0  0  0  0
    6.3648   54.4919   22.7943 C   0  0  0  0  0  0
    5.6640   54.2395   23.9741 C   0  0  0  0  0  0
    6.3725   54.1062   25.1427 O   0  0  0  0  0  0
    6.5849   55.3276   25.8315 C   0  0  0  0  0  0
    3.7911   51.7179   16.8839 H   0  0  0  0  0  0
    3.0916   50.9422   15.4573 H   0  0  0  0  0  0
    2.8343   52.6619   15.7327 H   0  0  0  0  0  0
    1.5150   53.3814   17.8358 H   0  0  0  0  0  0
   -0.5368   52.8971   19.1040 H   0  0  0  0  0  0
   -0.4943   48.8529   17.6801 H   0  0  0  0  0  0
    1.5742   49.3260   16.4191 H   0  0  0  0  0  0
   -2.3548   51.5285   19.6390 H   0  0  0  0  0  0
   -2.7138   50.2371   18.5409 H   0  0  0  0  0  0
   -0.0875   51.6499   21.0991 H   0  0  0  0  0  0
   -1.5699   52.0130   22.0932 H   0  0  0  0  0  0
   -2.1952   48.4999   22.9590 H   0  0  0  0  0  0
   -0.5299   48.3881   22.5040 H   0  0  0  0  0  0
   -0.7448   48.2359   25.2551 H   0  0  0  0  0  0
    0.7516   48.5785   24.4633 H   0  0  0  0  0  0
    0.8347   49.1395   26.8817 H   0  0  0  0  0  0
    1.1032   50.6087   25.9576 H   0  0  0  0  0  0
   -1.2959   49.7382   27.3753 H   0  0  0  0  0  0
   -2.7413   51.3418   26.5984 H   0  0  0  0  0  0
   -1.4415   52.2520   25.8589 H   0  0  0  0  0  0
   -2.7107   51.1003   24.0105 H   0  0  0  0  0  0
   -2.7460   49.6352   24.9193 H   0  0  0  0  0  0
    2.2519   51.7766   24.2366 H   0  0  0  0  0  0
    1.7609   54.2924   27.3180 H   0  0  0  0  0  0
    0.4253   53.2967   26.7684 H   0  0  0  0  0  0
    1.9766   52.5660   27.1859 H   0  0  0  0  0  0
    3.7680   54.5991   25.9525 H   0  0  0  0  0  0
    3.9919   52.8970   25.7061 H   0  0  0  0  0  0
    2.5237   54.0788   22.6522 H   0  0  0  0  0  0
    3.7760   54.4803   20.6030 H   0  0  0  0  0  0
    6.2307   54.7655   20.6652 H   0  0  0  0  0  0
    7.4395   54.6079   22.8251 H   0  0  0  0  0  0
    7.1047   55.1301   26.7682 H   0  0  0  0  0  0
    7.1908   56.0181   25.2422 H   0  0  0  0  0  0
    5.6434   55.8158   26.0777 H   0  0  0  0  0  0
   -0.4926   51.1031   27.6218 H   0  0  0  0  0  0
  1  2  1  0  0  0
  1 37  1  0  0  0
  1 38  1  0  0  0
  1 39  1  0  0  0
  2  7  2  0  0  0
  2  3  1  0  0  0
  3  4  2  0  0  0
  3 40  1  0  0  0
  4  5  1  0  0  0
  4 41  1  0  0  0
  5  6  2  0  0  0
  5  8  1  0  0  0
  6  7  1  0  0  0
  6 42  1  0  0  0
  7 43  1  0  0  0
  8  9  1  0  0  0
  8 44  1  0  0  0
  8 45  1  0  0  0
  9 10  2  0  0  0
  9 11  1  0  0  0
 11 16  1  0  0  0
 11 12  1  0  0  0
 12 13  1  0  0  0
 12 46  1  0  0  0
 12 47  1  0  0  0
 13 14  1  0  0  0
 13 15  1  0  0  0
 13 22  1  0  0  0
 15 21  1  0  0  0
 15 16  1  0  0  0
 15 17  1  0  0  0
 16 48  1  0  0  0
 16 49  1  0  0  0
 17 18  1  0  0  0
 17 50  1  0  0  0
 17 51  1  0  0  0
 18 19  1  0  0  0
 18 52  1  0  0  0
 18 53  1  0  0  0
 19 20  1  0  0  0
 19 54  1  0  0  0
 19 72  1  0  0  0
 20 21  1  0  0  0
 20 55  1  0  0  0
 20 56  1  0  0  0
 21 57  1  0  0  0
 21 58  1  0  0  0
 22 23  2  0  0  0
 22 24  1  0  0  0
 24 25  1  0  0  0
 24 59  1  0  0  0
 25 26  1  0  0  0
 25 27  1  0  0  0
 25 28  1  0  0  0
 27 60  1  0  0  0
 27 61  1  0  0  0
 27 62  1  0  0  0
 28 29  1  0  0  0
 28 63  1  0  0  0
 28 64  1  0  0  0
 29 34  2  0  0  0
 29 30  1  0  0  0
 30 31  2  0  0  0
 30 65  1  0  0  0
 31 32  1  0  0  0
 31 66  1  0  0  0
 32 33  2  0  0  0
 32 67  1  0  0  0
 33 34  1  0  0  0
 33 68  1  0  0  0
 34 35  1  0  0  0
 35 36  1  0  0  0
 36 69  1  0  0  0
 36 70  1  0  0  0
 36 71  1  0  0  0
M  CHG  1  19   1
M  END
> <i_i_glide_confnum>
305

> <i_i_glide_lignum>
1297

> <i_i_glide_posenum>
337

> <i_i_glide_rotatable_bonds>
9

> <i_m_Source_File_Index>
1211

> <b_m_subgroup_collapsed>
0

> <r_i_docking_score>
-4.19212

> <r_i_glide_ecoul>
-4.27157

> <r_i_glide_eff_state_penalty>
0

> <r_i_glide_einternal>
12.344

> <r_i_glide_emodel>
-41.2064

> <r_i_glide_energy>
-36.3704

> <r_i_glide_erotb>
0.747141

> <r_i_glide_esite>
-0.1

> <r_i_glide_evdw>
-32.0988

> <r_i_glide_gscore>
-4.19212

> <r_i_glide_hbond>
-0.2

> <r_i_glide_ligand_efficiency>
-0.123298

> <r_i_glide_ligand_efficiency_ln>
-0.926157

> <r_i_glide_ligand_efficiency_sa>
-0.399437

> <r_i_glide_lipo>
-2.01814

> <r_i_glide_metal>
0

> <r_i_glide_rewards>
-0.375443

> <s_i_glide_gridfile>
wee1_glide-grid

> <s_m_Source_File>
wee1_decoys_glide_SP.sdf

> <s_m_Source_Path>
/Users/zhangxujun/Desktop

> <s_m_entry_id>
1486

> <s_m_entry_name>
wee1_decoys_glide_SP.1211

> <s_m_subgroup_title>
wee1_decoys_glide_SP

> <s_m_subgroupid>
wee1_decoys_glide_SP


$$$$
