ZINC39675251_390
                    3D
 Schrodinger Suite 2024-2.
 77 80  0  0  1  0            999 V2000
   -0.6980   52.3511   29.2271 C   0  0  0  0  0  0
    0.2150   51.3698   28.4763 C   0  0  2  0  0  0
    0.3002   50.5054   29.1324 H   0  0  0  0  0  0
    1.6694   51.8729   28.2744 C   0  0  0  0  0  0
    1.8235   53.3888   28.0195 C   0  0  0  0  0  0
    3.1773   53.7992   27.4640 C   0  0  0  0  0  0
    4.2635   54.0243   28.3152 C   0  0  0  0  0  0
    5.4726   54.4738   27.7911 C   0  0  0  0  0  0
    5.6103   54.7059   26.4230 C   0  0  0  0  0  0
    4.5240   54.4489   25.5719 C   0  0  0  0  0  0
    3.3159   53.9971   26.0916 C   0  0  0  0  0  0
    6.8219   55.2103   25.9965 O   0  0  0  0  0  0
    6.9673   55.5689   24.6268 C   0  0  0  0  0  0
   -0.4221   50.7989   27.2843 N   0  0  0  0  0  0
   -0.6268   51.3286   26.0643 C   0  0  0  0  0  0
   -0.3549   52.4964   25.8003 O   0  0  0  0  0  0
   -1.2688   50.4630   24.9361 C   0  0  2  0  0  0
   -2.2237   50.9260   24.6843 H   0  0  0  0  0  0
   -1.6126   49.0475   25.4579 C   0  0  0  0  0  0
   -1.6148   48.2153   24.2513 N   0  0  0  0  0  0
   -0.9558   48.8909   23.1310 C   0  0  0  0  0  0
   -0.3692   50.2132   23.6850 C   0  0  0  0  0  0
   -0.4080   51.3902   22.6756 C   0  0  0  0  0  0
    0.3383   51.0474   21.3652 C   0  0  0  0  0  0
    1.8168   50.7404   21.7047 N   0  3  0  0  0  0
    2.0186   49.6903   22.8201 C   0  0  0  0  0  0
    1.1423   50.0572   24.0390 C   0  0  0  0  0  0
   -2.3547   47.0884   24.0572 C   0  0  0  0  0  0
   -2.3442   46.4823   22.9824 O   0  0  0  0  0  0
   -3.2709   46.5889   25.1598 C   0  0  0  0  0  0
   -2.8172   46.4962   26.4811 C   0  0  0  0  0  0
   -3.6706   46.0939   27.5039 C   0  0  0  0  0  0
   -4.9770   45.6977   27.2346 C   0  0  0  0  0  0
   -5.4206   45.7271   25.9056 C   0  0  0  0  0  0
   -4.5923   46.1851   24.8778 C   0  0  0  0  0  0
   -5.1270   46.2116   23.6112 O   0  0  0  0  0  0
   -5.5973   47.4880   23.1980 C   0  0  0  0  0  0
   -5.7445   45.2968   28.3117 O   0  0  0  0  0  0
   -7.0892   44.8807   28.0842 C   0  0  0  0  0  0
   -0.2229   52.7024   30.1463 H   0  0  0  0  0  0
   -0.8898   53.2308   28.6172 H   0  0  0  0  0  0
   -1.6381   51.8790   29.5110 H   0  0  0  0  0  0
    2.1218   51.3041   27.4642 H   0  0  0  0  0  0
    2.2595   51.6189   29.1550 H   0  0  0  0  0  0
    1.6360   53.9513   28.9376 H   0  0  0  0  0  0
    1.0606   53.7362   27.3252 H   0  0  0  0  0  0
    4.1646   53.8735   29.3794 H   0  0  0  0  0  0
    6.3035   54.6688   28.4526 H   0  0  0  0  0  0
    4.5929   54.6069   24.5050 H   0  0  0  0  0  0
    2.4813   53.8163   25.4314 H   0  0  0  0  0  0
    7.9040   56.0959   24.4828 H   0  0  0  0  0  0
    6.1818   56.2545   24.3089 H   0  0  0  0  0  0
    6.9737   54.6947   23.9768 H   0  0  0  0  0  0
   -0.8133   49.8744   27.4568 H   0  0  0  0  0  0
   -0.7808   48.6708   26.0569 H   0  0  0  0  0  0
   -2.5564   49.0755   26.0032 H   0  0  0  0  0  0
   -1.7691   49.1746   22.4610 H   0  0  0  0  0  0
   -0.2884   48.2808   22.5278 H   0  0  0  0  0  0
   -1.4465   51.5964   22.4117 H   0  0  0  0  0  0
   -0.0401   52.3171   23.1187 H   0  0  0  0  0  0
   -0.0576   50.1675   20.8562 H   0  0  0  0  0  0
    0.3558   51.8841   20.6632 H   0  0  0  0  0  0
    2.3034   50.4475   20.8665 H   0  0  0  0  0  0
    1.7824   48.7203   22.3872 H   0  0  0  0  0  0
    3.0815   49.6950   23.0680 H   0  0  0  0  0  0
    1.5155   50.9690   24.5074 H   0  0  0  0  0  0
    1.2641   49.2737   24.7889 H   0  0  0  0  0  0
   -1.8035   46.7572   26.7504 H   0  0  0  0  0  0
   -3.2952   46.0593   28.5171 H   0  0  0  0  0  0
   -6.4220   45.4224   25.6470 H   0  0  0  0  0  0
   -6.0258   47.4072   22.2001 H   0  0  0  0  0  0
   -6.3790   47.8569   23.8631 H   0  0  0  0  0  0
   -4.8018   48.2309   23.1550 H   0  0  0  0  0  0
   -7.5482   44.5976   29.0321 H   0  0  0  0  0  0
   -7.6902   45.6854   27.6572 H   0  0  0  0  0  0
   -7.1371   44.0114   27.4254 H   0  0  0  0  0  0
    2.2583   51.6017   21.9926 H   0  0  0  0  0  0
  1  2  1  0  0  0
  1 40  1  0  0  0
  1 41  1  0  0  0
  1 42  1  0  0  0
  2  3  1  0  0  0
  2  4  1  0  0  0
  2 14  1  0  0  0
  4  5  1  0  0  0
  4 43  1  0  0  0
  4 44  1  0  0  0
  5  6  1  0  0  0
  5 45  1  0  0  0
  5 46  1  0  0  0
  6 11  2  0  0  0
  6  7  1  0  0  0
  7  8  2  0  0  0
  7 47  1  0  0  0
  8  9  1  0  0  0
  8 48  1  0  0  0
  9 10  2  0  0  0
  9 12  1  0  0  0
 10 11  1  0  0  0
 10 49  1  0  0  0
 11 50  1  0  0  0
 12 13  1  0  0  0
 13 51  1  0  0  0
 13 52  1  0  0  0
 13 53  1  0  0  0
 14 15  1  0  0  0
 14 54  1  0  0  0
 15 16  2  0  0  0
 15 17  1  0  0  0
 17 18  1  0  0  0
 17 22  1  0  0  0
 17 19  1  0  0  0
 19 20  1  0  0  0
 19 55  1  0  0  0
 19 56  1  0  0  0
 20 21  1  0  0  0
 20 28  1  0  0  0
 21 22  1  0  0  0
 21 57  1  0  0  0
 21 58  1  0  0  0
 22 27  1  0  0  0
 22 23  1  0  0  0
 23 24  1  0  0  0
 23 59  1  0  0  0
 23 60  1  0  0  0
 24 25  1  0  0  0
 24 61  1  0  0  0
 24 62  1  0  0  0
 25 26  1  0  0  0
 25 63  1  0  0  0
 25 77  1  0  0  0
 26 27  1  0  0  0
 26 64  1  0  0  0
 26 65  1  0  0  0
 27 66  1  0  0  0
 27 67  1  0  0  0
 28 29  2  0  0  0
 28 30  1  0  0  0
 30 35  2  0  0  0
 30 31  1  0  0  0
 31 32  2  0  0  0
 31 68  1  0  0  0
 32 33  1  0  0  0
 32 69  1  0  0  0
 33 34  2  0  0  0
 33 38  1  0  0  0
 34 35  1  0  0  0
 34 70  1  0  0  0
 35 36  1  0  0  0
 36 37  1  0  0  0
 37 71  1  0  0  0
 37 72  1  0  0  0
 37 73  1  0  0  0
 38 39  1  0  0  0
 39 74  1  0  0  0
 39 75  1  0  0  0
 39 76  1  0  0  0
M  CHG  1  25   1
M  END
> <i_i_glide_confnum>
463

> <i_i_glide_lignum>
391

> <i_i_glide_posenum>
357

> <i_i_glide_rotatable_bonds>
11

> <i_m_Source_File_Index>
4273

> <b_m_subgroup_collapsed>
0

> <r_i_docking_score>
-5.63921

> <r_i_glide_ecoul>
-9.81704

> <r_i_glide_eff_state_penalty>
0

> <r_i_glide_einternal>
17.8438

> <r_i_glide_emodel>
-58.5627

> <r_i_glide_energy>
-47.8659

> <r_i_glide_erotb>
0.628562

> <r_i_glide_esite>
-0.181018

> <r_i_glide_evdw>
-38.0489

> <r_i_glide_gscore>
-5.63921

> <r_i_glide_hbond>
-0.608

> <r_i_glide_ligand_efficiency>
-0.152411

> <r_i_glide_ligand_efficiency_ln>
-1.22301

> <r_i_glide_ligand_efficiency_sa>
-0.507867

> <r_i_glide_lipo>
-2.10801

> <r_i_glide_metal>
0

> <r_i_glide_rewards>
0.00425835

> <s_i_glide_gridfile>
wee1_glide-grid

> <s_m_Source_File>
wee1_decoys_glide_SP.sdf

> <s_m_Source_Path>
/Users/zhangxujun/Desktop

> <s_m_entry_id>
4548

> <s_m_entry_name>
wee1_decoys_glide_SP.4273

> <s_m_subgroup_title>
wee1_decoys_glide_SP

> <s_m_subgroupid>
wee1_decoys_glide_SP


$$$$
