@<TRIPOS>MOLECULE
ZINC49512352_1602
39   40    1
SMALL
USER_CHARGES


@<TRIPOS>ATOM
      1 C1          5.5042   54.0635   21.6893 C.3       1 UNK         0.0000 
      2 C2          5.4797   54.0929   23.1978 C.2       1 UNK         0.0000 
      3 C3          4.3912   54.0974   24.0416 C.2       1 UNK         0.0000 
      4 C4          4.6610   54.1542   25.4263 C.2       1 UNK         0.0000 
      5 C5          6.0413   54.1384   25.6624 C.2       1 UNK         0.0000 
      6 S6          6.9111   54.0968   24.1575 S.3       1 UNK         0.0000 
      7 C7          6.7940   54.1332   26.9770 C.3       1 UNK         0.0000 
      8 C8          3.5897   54.2587   26.5154 C.3       1 UNK         0.0000 
      9 H9          3.6507   55.2625   26.9382 H         1 UNK         0.0000 
     10 C10         2.1689   54.0297   25.9694 C.3       1 UNK         0.0000 
     11 N11         3.8610   53.2981   27.6212 N.pl3     1 UNK         0.0000 
     12 S12         2.8608   53.2510   29.0809 S.o2      1 UNK         0.0000 
     13 O13         3.4942   52.3143   30.0161 O.2       1 UNK         0.0000 
     14 O14         2.5571   54.6295   29.4817 O.2       1 UNK         0.0000 
     15 C15         1.3517   52.4873   28.5214 C.ar      1 UNK         0.0000 
     16 C16         1.4064   51.2097   27.9849 C.ar      1 UNK         0.0000 
     17 C17         0.3194   50.7001   27.2759 C.ar      1 UNK         0.0000 
     18 C18        -0.8226   51.4871   27.1433 C.ar      1 UNK         0.0000 
     19 N19        -0.8948   52.7253   27.6816 N.ar      1 UNK         0.0000 
     20 C20         0.1576   53.1951   28.4026 C.ar      1 UNK         0.0000 
     21 N21        -1.9478   51.0896   26.4138 N.pl3     1 UNK         0.0000 
     22 N22        -2.1983   49.6967   26.0817 N.3       1 UNK         0.0000 
     23 H23         4.6237   54.5475   21.2659 H         1 UNK         0.0000 
     24 H24         5.5046   53.0409   21.3114 H         1 UNK         0.0000 
     25 H25         6.3735   54.5760   21.2782 H         1 UNK         0.0000 
     26 H26         3.4021   54.0800   23.6141 H         1 UNK         0.0000 
     27 H27         6.8668   53.1236   27.3839 H         1 UNK         0.0000 
     28 H28         7.8145   54.4964   26.8818 H         1 UNK         0.0000 
     29 H29         6.3090   54.7536   27.7323 H         1 UNK         0.0000 
     30 H30         1.9543   54.4967   25.0152 H         1 UNK         0.0000 
     31 H31         1.9472   52.9710   25.8378 H         1 UNK         0.0000 
     32 H32         1.4667   54.4644   26.6671 H         1 UNK         0.0000 
     33 H33         4.8286   52.9856   27.7287 H         1 UNK         0.0000 
     34 H34         2.3044   50.6308   28.0818 H         1 UNK         0.0000 
     35 H35         0.3676   49.7147   26.8372 H         1 UNK         0.0000 
     36 H36         0.0734   54.2037   28.7766 H         1 UNK         0.0000 
     37 H37        -2.8061   51.6176   26.4931 H         1 UNK         0.0000 
     38 H38        -1.5981   49.4240   25.3161 H         1 UNK         0.0000 
     39 H39        -2.0154   49.1339   26.9263 H         1 UNK         0.0000 
@<TRIPOS>BOND
     1    1    2 1    
     2    1   23 1    
     3    1   24 1    
     4    1   25 1    
     5    2    6 1    
     6    2    3 2    
     7    3    4 1    
     8    3   26 1    
     9    4    5 2    
    10    4    8 1    
    11    5    6 1    
    12    5    7 1    
    13    7   27 1    
    14    7   28 1    
    15    7   29 1    
    16    8    9 1    
    17    8   10 1    
    18    8   11 1    
    19   10   30 1    
    20   10   31 1    
    21   10   32 1    
    22   11   12 1    
    23   11   33 1    
    24   12   13 2    
    25   12   14 2    
    26   12   15 1    
    27   15   20 ar   
    28   15   16 ar   
    29   16   17 ar   
    30   16   34 1    
    31   17   18 ar   
    32   17   35 1    
    33   18   19 ar   
    34   18   21 1    
    35   19   20 ar   
    36   20   36 1    
    37   21   22 1    
    38   21   37 1    
    39   22   38 1    
    40   22   39 1    
@<TRIPOS>SUBSTRUCTURE
     1 UNK         1 GROUP             0       ****    0 ROOT    
