@<TRIPOS>MOLECULE
ZINC36612846_5661
42   46    1
SMALL
USER_CHARGES


@<TRIPOS>ATOM
      1 C1          5.6160   54.9407   19.1937 C.3       1 UNK         0.0000 
      2 C2          5.6440   54.7447   20.7180 C.3       1 UNK         0.0000 
      3 C3          6.8962   55.3586   21.3765 C.3       1 UNK         0.0000 
      4 N4          7.0980   55.0872   22.7993 N.pl3     1 UNK         0.0000 
      5 C5          6.1918   54.7765   23.7877 C.2       1 UNK         0.0000 
      6 N6          4.9461   54.3920   23.6288 N.2       1 UNK         0.0000 
      7 C7          4.3589   54.1680   24.7883 C.ar      1 UNK         0.0000 
      8 C8          3.0043   53.6942   25.0070 C.ar      1 UNK         0.0000 
      9 C9          2.6095   53.4477   26.3275 C.ar      1 UNK         0.0000 
     10 C10         1.2793   52.8999   26.3876 C.ar      1 UNK         0.0000 
     11 C11         0.4512   52.4815   27.4636 C.ar      1 UNK         0.0000 
     12 C12        -0.8404   52.0337   27.1676 C.ar      1 UNK         0.0000 
     13 C13        -1.2882   52.0137   25.8455 C.ar      1 UNK         0.0000 
     14 N14        -0.5205   52.3916   24.7910 N.ar      1 UNK         0.0000 
     15 C15         0.7112   52.8137   25.0715 C.ar      1 UNK         0.0000 
     16 S16         1.7952   53.3572   23.8031 S.3       1 UNK         0.0000 
     17 C17        -2.7082   51.5702   25.4913 C.3       1 UNK         0.0000 
     18 F18        -3.4317   51.2860   26.5781 F         1 UNK         0.0000 
     19 F19        -3.3362   52.5423   24.8244 F         1 UNK         0.0000 
     20 F20        -2.6648   50.4816   24.7204 F         1 UNK         0.0000 
     21 C21         0.8543   52.5013   28.8992 C.2       1 UNK         0.0000 
     22 C22         1.9891   52.0989   29.5897 C.2       1 UNK         0.0000 
     23 C23         1.7725   52.3762   30.9397 C.2       1 UNK         0.0000 
     24 C24         0.5070   52.9336   31.0164 C.2       1 UNK         0.0000 
     25 O25        -0.0491   53.0052   29.7823 O.3       1 UNK         0.0000 
     26 N26         3.4281   53.6976   27.3938 N.2       1 UNK         0.0000 
     27 C27         4.6786   54.1456   27.3063 C.ar      1 UNK         0.0000 
     28 O28         5.4107   54.3595   28.2712 O.2       1 UNK         0.0000 
     29 C29         5.1275   54.3714   25.9384 C.ar      1 UNK         0.0000 
     30 S30         6.7044   54.8973   25.4452 S.3       1 UNK         0.0000 
     31 H31         4.7276   54.4818   18.7544 H         1 UNK         0.0000 
     32 H32         6.4902   54.4888   18.7215 H         1 UNK         0.0000 
     33 H33         5.6000   55.9989   18.9264 H         1 UNK         0.0000 
     34 H34         4.7427   55.1899   21.1441 H         1 UNK         0.0000 
     35 H35         5.5756   53.6776   20.9458 H         1 UNK         0.0000 
     36 H36         7.7724   54.9829   20.8474 H         1 UNK         0.0000 
     37 H37         6.9082   56.4346   21.2074 H         1 UNK         0.0000 
     38 H38         8.0523   55.2956   23.0863 H         1 UNK         0.0000 
     39 H39        -1.4871   51.6980   27.9682 H         1 UNK         0.0000 
     40 H40         2.8747   51.6603   29.1531 H         1 UNK         0.0000 
     41 H41         2.4432   52.1766   31.7599 H         1 UNK         0.0000 
     42 H42        -0.0990   53.2949   31.8372 H         1 UNK         0.0000 
@<TRIPOS>BOND
     1    1    2 1    
     2    1   31 1    
     3    1   32 1    
     4    1   33 1    
     5    2    3 1    
     6    2   34 1    
     7    2   35 1    
     8    3    4 1    
     9    3   36 1    
    10    3   37 1    
    11    4    5 1    
    12    4   38 1    
    13    5   30 1    
    14    5    6 2    
    15    6    7 1    
    16    7   29 ar   
    17    7    8 ar   
    18    8   16 1    
    19    8    9 ar   
    20    9   10 1    
    21    9   26 ar   
    22   10   15 ar   
    23   10   11 ar   
    24   11   12 ar   
    25   11   21 1    
    26   12   13 ar   
    27   12   39 1    
    28   13   14 ar   
    29   13   17 1    
    30   14   15 ar   
    31   15   16 1    
    32   17   18 1    
    33   17   19 1    
    34   17   20 1    
    35   21   25 1    
    36   21   22 2    
    37   22   23 1    
    38   22   40 1    
    39   23   24 2    
    40   23   41 1    
    41   24   25 1    
    42   24   42 1    
    43   26   27 ar   
    44   27   28 2    
    45   27   29 ar   
    46   29   30 1    
@<TRIPOS>SUBSTRUCTURE
     1 UNK         1 GROUP             0       ****    0 ROOT    
