@<TRIPOS>MOLECULE
ZINC37063573_1628
27   28    1
SMALL
USER_CHARGES


@<TRIPOS>ATOM
      1 C1          6.3266   54.8966   26.7069 C.3       1 UNK         0.0000 
      2 C2          5.3720   54.1130   27.5706 C.2       1 UNK         0.0000 
      3 C3          3.9851   54.1165   27.5676 C.2       1 UNK         0.0000 
      4 C4          3.5761   53.1447   28.4597 C.2       1 UNK         0.0000 
      5 O5          4.7107   52.6586   29.0236 O.3       1 UNK         0.0000 
      6 N6          5.8315   53.2955   28.4814 N.2       1 UNK         0.0000 
      7 N7          2.4052   52.6256   28.8544 N.2       1 UNK         0.0000 
      8 S8          1.0208   53.1890   28.3994 S.o2      1 UNK         0.0000 
      9 O9         -0.0845   52.7337   29.2481 O.2       1 UNK         0.0000 
     10 O10         1.0605   54.6200   28.0818 O.2       1 UNK         0.0000 
     11 C11         0.7884   52.3050   26.8331 C.ar      1 UNK         0.0000 
     12 C12         0.1932   51.0330   26.8523 C.ar      1 UNK         0.0000 
     13 C13        -0.0098   50.3214   25.6655 C.ar      1 UNK         0.0000 
     14 C14         0.3933   50.8692   24.4507 C.ar      1 UNK         0.0000 
     15 C15         0.9738   52.1350   24.4140 C.ar      1 UNK         0.0000 
     16 C16         1.1645   52.8563   25.5963 C.ar      1 UNK         0.0000 
     17 F17         1.6986   54.0925   25.5111 F         1 UNK         0.0000 
     18 Cl18        1.4439   52.8070   22.8923 Cl        1 UNK         0.0000 
     19 N19        -0.6173   49.0674   25.6818 N.pl3     1 UNK         0.0000 
     20 H20         5.8095   55.4090   25.8960 H         1 UNK         0.0000 
     21 H21         7.0801   54.2540   26.2509 H         1 UNK         0.0000 
     22 H22         6.8517   55.6573   27.2818 H         1 UNK         0.0000 
     23 H23         3.3570   54.7386   26.9560 H         1 UNK         0.0000 
     24 H24        -0.1178   50.5959   27.7916 H         1 UNK         0.0000 
     25 H25         0.2439   50.3220   23.5317 H         1 UNK         0.0000 
     26 H26        -0.8893   48.7060   26.6016 H         1 UNK         0.0000 
     27 H27        -0.3289   48.4058   24.9792 H         1 UNK         0.0000 
@<TRIPOS>BOND
     1    1    2 1    
     2    1   20 1    
     3    1   21 1    
     4    1   22 1    
     5    2    6 2    
     6    2    3 1    
     7    3    4 2    
     8    3   23 1    
     9    4    5 1    
    10    4    7 1    
    11    5    6 1    
    12    7    8 1    
    13    8    9 2    
    14    8   10 2    
    15    8   11 1    
    16   11   16 ar   
    17   11   12 ar   
    18   12   13 ar   
    19   12   24 1    
    20   13   14 ar   
    21   13   19 1    
    22   14   15 ar   
    23   14   25 1    
    24   15   16 ar   
    25   15   18 1    
    26   16   17 1    
    27   19   26 1    
    28   19   27 1    
@<TRIPOS>SUBSTRUCTURE
     1 UNK         1 GROUP             0       ****    0 ROOT    
