@<TRIPOS>MOLECULE
ZINC40399605_2514
48   51    1
SMALL
USER_CHARGES


@<TRIPOS>ATOM
      1 C1          4.8843   54.4914   27.1901 C.3       1 UNK         0.0000 
      2 C2          5.0650   54.4941   25.6833 C.ar      1 UNK         0.0000 
      3 C3          4.0092   54.1034   24.8560 C.ar      1 UNK         0.0000 
      4 C4          4.1770   54.0966   23.4729 C.ar      1 UNK         0.0000 
      5 C5          5.3936   54.4912   22.9158 C.ar      1 UNK         0.0000 
      6 C6          6.4546   54.8746   23.7469 C.ar      1 UNK         0.0000 
      7 C7          6.2864   54.8798   25.1300 C.ar      1 UNK         0.0000 
      8 N8          5.5043   54.4450   21.5170 N.am      1 UNK         0.0000 
      9 C9          6.1798   55.3064   20.7225 C.2       1 UNK         0.0000 
     10 O10         6.7047   56.3355   21.1520 O.2       1 UNK         0.0000 
     11 C11         6.2928   54.9983   19.1952 C.3       1 UNK         0.0000 
     12 H12         7.3782   54.9708   19.0605 H         1 UNK         0.0000 
     13 C13         5.6916   53.5937   18.7957 C.3       1 UNK         0.0000 
     14 C14         4.1397   53.5956   18.6956 C.2       1 UNK         0.0000 
     15 O15         3.4206   52.6925   19.1092 O.2       1 UNK         0.0000 
     16 N16         3.6556   54.6974   18.0870 N.am      1 UNK         0.0000 
     17 C17         4.3564   55.8271   17.8592 C.ar      1 UNK         0.0000 
     18 C18         5.6156   56.0567   18.3009 C.ar      1 UNK         0.0000 
     19 C19         6.2334   57.3424   18.0013 C.ar      1 UNK         0.0000 
     20 O20         7.3524   57.6958   18.3565 O.2       1 UNK         0.0000 
     21 N21         5.4339   58.1610   17.2825 N.pl3     1 UNK         0.0000 
     22 H22         5.8271   59.0725   17.1095 H         1 UNK         0.0000 
     23 C23         4.1651   57.8825   16.8663 C.ar      1 UNK         0.0000 
     24 N24         3.6485   56.7384   17.1442 N.2       1 UNK         0.0000 
     25 N25         3.4668   58.8968   16.1568 N.pl3     1 UNK         0.0000 
     26 C26         2.1821   58.9466   15.5818 C.ar      1 UNK         0.0000 
     27 C27         1.7216   60.2004   15.1629 C.ar      1 UNK         0.0000 
     28 C28         0.4505   60.3464   14.6136 C.ar      1 UNK         0.0000 
     29 C29        -0.3734   59.2331   14.4738 C.ar      1 UNK         0.0000 
     30 C30         0.0733   57.9746   14.8667 C.ar      1 UNK         0.0000 
     31 C31         1.3464   57.8297   15.4148 C.ar      1 UNK         0.0000 
     32 F32        -1.6135   59.3742   13.9532 F         1 UNK         0.0000 
     33 H33         4.9958   53.4800   27.5865 H         1 UNK         0.0000 
     34 H34         3.8885   54.8538   27.4558 H         1 UNK         0.0000 
     35 H35         5.6022   55.1511   27.6840 H         1 UNK         0.0000 
     36 H36         3.0630   53.8019   25.2822 H         1 UNK         0.0000 
     37 H37         3.3547   53.7884   22.8414 H         1 UNK         0.0000 
     38 H38         7.4110   55.1627   23.3310 H         1 UNK         0.0000 
     39 H39         7.1049   55.1742   25.7676 H         1 UNK         0.0000 
     40 H40         4.9410   53.7444   21.0582 H         1 UNK         0.0000 
     41 H41         6.0303   53.3373   17.7908 H         1 UNK         0.0000 
     42 H42         6.0246   52.7740   19.4317 H         1 UNK         0.0000 
     43 H43         2.6720   54.7023   17.8780 H         1 UNK         0.0000 
     44 H44         3.9048   59.8146   16.1940 H         1 UNK         0.0000 
     45 H45         2.3448   61.0773   15.2826 H         1 UNK         0.0000 
     46 H46         0.1042   61.3207   14.3002 H         1 UNK         0.0000 
     47 H47        -0.5690   57.1148   14.7506 H         1 UNK         0.0000 
     48 H48         1.6614   56.8399   15.7082 H         1 UNK         0.0000 
@<TRIPOS>BOND
     1    1    2 1    
     2    1   33 1    
     3    1   34 1    
     4    1   35 1    
     5    2    7 ar   
     6    2    3 ar   
     7    3    4 ar   
     8    3   36 1    
     9    4    5 ar   
    10    4   37 1    
    11    5    6 ar   
    12    5    8 1    
    13    6    7 ar   
    14    6   38 1    
    15    7   39 1    
    16    8    9 am   BACKBONE|DICT|INTERRES
    17    8   40 1    
    18    9   10 2    
    19    9   11 1    
    20   11   12 1    
    21   11   18 1    
    22   11   13 1    
    23   13   14 1    
    24   13   41 1    
    25   13   42 1    
    26   14   15 2    
    27   14   16 am   BACKBONE|DICT|INTERRES
    28   16   17 1    
    29   16   43 1    
    30   17   24 ar   
    31   17   18 ar   
    32   18   19 ar   
    33   19   20 2    
    34   19   21 ar   
    35   21   22 1    
    36   21   23 ar   
    37   23   24 ar   
    38   23   25 1    
    39   25   26 1    
    40   25   44 1    
    41   26   31 ar   
    42   26   27 ar   
    43   27   28 ar   
    44   27   45 1    
    45   28   29 ar   
    46   28   46 1    
    47   29   30 ar   
    48   29   32 1    
    49   30   31 ar   
    50   30   47 1    
    51   31   48 1    
@<TRIPOS>SUBSTRUCTURE
     1 UNK         1 GROUP             0       ****    0 ROOT    
