ZINC66770989_1560
                    3D
 Schrodinger Suite 2024-2.
 44 47  0  0  1  0            999 V2000
    4.5243   52.1528   29.5019 C   0  0  0  0  0  0
    4.9522   52.8936   28.4010 C   0  0  0  0  0  0
    4.2090   53.9750   27.9230 C   0  0  0  0  0  0
    3.0780   54.3745   28.6571 C   0  0  0  0  0  0
    2.6391   53.5974   29.7443 C   0  0  0  0  0  0
    3.3638   52.4971   30.1763 C   0  0  0  0  0  0
    1.5327   53.9141   30.4912 O   0  0  0  0  0  0
    0.7045   54.9188   29.9267 C   0  0  0  0  0  0
    1.5383   56.0515   29.2915 C   0  0  0  0  0  0
    2.3692   55.4954   28.2634 O   0  0  0  0  0  0
    4.6689   54.7089   26.6529 C   0  0  1  0  0  0
    4.2192   55.6965   26.7140 H   0  0  0  0  0  0
    6.1801   54.9234   26.4859 C   0  0  0  0  0  0
    6.3179   55.2993   25.0307 C   0  0  0  0  0  0
    5.3165   54.3842   24.3327 C   0  0  0  0  0  0
    4.2529   54.1637   25.3342 N   0  0  0  0  0  0
    2.9765   53.7441   25.0519 C   0  0  0  0  0  0
    2.0888   53.6970   25.9024 O   0  0  0  0  0  0
    2.6208   53.2975   23.7146 C   0  0  0  0  0  0
    1.3960   52.8395   23.2277 C   0  0  0  0  0  0
    1.5790   52.4967   21.8873 C   0  0  0  0  0  0
    2.9068   52.7578   21.6076 C   0  0  0  0  0  0
    3.5325   53.2399   22.7074 O   0  0  0  0  0  0
    3.8784   52.5637   20.1074 S   0  0  0  0  0  0
    2.9672   52.1050   19.0552 O   0  0  0  0  0  0
    5.1032   51.8506   20.4817 O   0  0  0  0  0  0
    4.3048   54.2190   19.7842 N   0  0  0  0  0  0
    5.1040   51.3041   29.8253 H   0  0  0  0  0  0
    5.8357   52.5528   27.8855 H   0  0  0  0  0  0
    3.0290   51.9341   31.0355 H   0  0  0  0  0  0
    0.0730   54.4743   29.1542 H   0  0  0  0  0  0
    0.0472   55.3082   30.7045 H   0  0  0  0  0  0
    0.9028   56.8338   28.8811 H   0  0  0  0  0  0
    2.1693   56.5134   30.0566 H   0  0  0  0  0  0
    6.7668   54.0376   26.7206 H   0  0  0  0  0  0
    6.5468   55.6970   27.1589 H   0  0  0  0  0  0
    7.3309   55.1872   24.6417 H   0  0  0  0  0  0
    6.0317   56.3427   24.8836 H   0  0  0  0  0  0
    5.8202   53.4424   24.1082 H   0  0  0  0  0  0
    4.9712   54.8966   23.4343 H   0  0  0  0  0  0
    0.4798   52.7536   23.7921 H   0  0  0  0  0  0
    0.8409   52.1104   21.2004 H   0  0  0  0  0  0
    5.1844   54.2887   19.2696 H   0  0  0  0  0  0
    3.5548   54.6914   19.2752 H   0  0  0  0  0  0
  1  6  2  0  0  0
  1  2  1  0  0  0
  1 28  1  0  0  0
  2  3  2  0  0  0
  2 29  1  0  0  0
  3  4  1  0  0  0
  3 11  1  0  0  0
  4 10  1  0  0  0
  4  5  2  0  0  0
  5  6  1  0  0  0
  5  7  1  0  0  0
  6 30  1  0  0  0
  7  8  1  0  0  0
  8  9  1  0  0  0
  8 31  1  0  0  0
  8 32  1  0  0  0
  9 10  1  0  0  0
  9 33  1  0  0  0
  9 34  1  0  0  0
 11 12  1  0  0  0
 11 16  1  0  0  0
 11 13  1  0  0  0
 13 14  1  0  0  0
 13 35  1  0  0  0
 13 36  1  0  0  0
 14 15  1  0  0  0
 14 37  1  0  0  0
 14 38  1  0  0  0
 15 16  1  0  0  0
 15 39  1  0  0  0
 15 40  1  0  0  0
 16 17  1  0  0  0
 17 18  2  0  0  0
 17 19  1  0  0  0
 19 23  1  0  0  0
 19 20  2  0  0  0
 20 21  1  0  0  0
 20 41  1  0  0  0
 21 22  2  0  0  0
 21 42  1  0  0  0
 22 23  1  0  0  0
 22 24  1  0  0  0
 24 25  2  0  0  0
 24 26  2  0  0  0
 24 27  1  0  0  0
 27 43  1  0  0  0
 27 44  1  0  0  0
M  END
> <i_i_glide_confnum>
2

> <i_i_glide_lignum>
1561

> <i_i_glide_posenum>
99

> <i_i_glide_rotatable_bonds>
4

> <i_m_Source_File_Index>
4315

> <b_m_subgroup_collapsed>
0

> <r_i_docking_score>
-6.46111

> <r_i_glide_ecoul>
-1.74867

> <r_i_glide_eff_state_penalty>
0

> <r_i_glide_einternal>
2.82487

> <r_i_glide_emodel>
-53.1637

> <r_i_glide_energy>
-42.4284

> <r_i_glide_erotb>
0.406017

> <r_i_glide_esite>
-0.164917

> <r_i_glide_evdw>
-40.6797

> <r_i_glide_gscore>
-6.46111

> <r_i_glide_hbond>
-0.22062

> <r_i_glide_ligand_efficiency>
-0.248504

> <r_i_glide_ligand_efficiency_ln>
-1.51737

> <r_i_glide_ligand_efficiency_sa>
-0.736193

> <r_i_glide_lipo>
-3.2521

> <r_i_glide_metal>
0

> <r_i_glide_rewards>
-0.933208

> <s_i_glide_gridfile>
wee1_glide-grid

> <s_m_Source_File>
wee1_decoys_glide_SP.sdf

> <s_m_Source_Path>
/Users/zhangxujun/Desktop

> <s_m_entry_id>
4590

> <s_m_entry_name>
wee1_decoys_glide_SP.4315

> <s_m_subgroup_title>
wee1_decoys_glide_SP

> <s_m_subgroupid>
wee1_decoys_glide_SP


$$$$
