@<TRIPOS>MOLECULE
ZINC27550409_687
51   54    1
SMALL
USER_CHARGES


@<TRIPOS>ATOM
      1 C1          4.3753   54.3424   28.2170 C.3       1 UNK         0.0000 
      2 C2          2.8509   54.1689   28.2665 C.3       1 UNK         0.0000 
      3 S3          2.3102   52.5368   27.6828 S.3       1 UNK         0.0000 
      4 C4          1.7376   52.8967   26.0502 C.2       1 UNK         0.0000 
      5 C5          0.6411   52.2935   25.4081 C.2       1 UNK         0.0000 
      6 C6          0.4348   52.8919   24.1469 C.2       1 UNK         0.0000 
      7 C7          1.4090   53.8057   23.7782 C.2       1 UNK         0.0000 
      8 S8          2.6056   53.9887   25.0023 S.3       1 UNK         0.0000 
      9 C9         -0.1360   51.0712   25.9379 C.3       1 UNK         0.0000 
     10 H10         0.6307   50.4435   26.3977 H         1 UNK         0.0000 
     11 C11        -1.1529   51.3421   27.0592 C.2       1 UNK         0.0000 
     12 C12        -2.4794   51.2030   26.8525 C.2       1 UNK         0.0000 
     13 N13        -2.9898   50.7764   25.6209 N.pl3     1 UNK         0.0000 
     14 C14        -2.1565   50.1292   24.6926 C.2       1 UNK         0.0000 
     15 C15        -0.7949   50.1988   24.8287 C.2       1 UNK         0.0000 
     16 C16         0.1189   49.5335   23.8657 C.2       1 UNK         0.0000 
     17 O17         1.3337   49.7149   23.8716 O.2       1 UNK         0.0000 
     18 C18        -0.5178   48.6455   22.7914 C.3       1 UNK         0.0000 
     19 C19        -1.8561   49.2297   22.3248 C.3       1 UNK         0.0000 
     20 C20        -2.8205   49.3880   23.5106 C.3       1 UNK         0.0000 
     21 C21        -4.3664   50.9679   25.3429 C.ar      1 UNK         0.0000 
     22 C22        -5.2360   49.8989   25.5990 C.ar      1 UNK         0.0000 
     23 C23        -6.6124   50.0476   25.4528 C.ar      1 UNK         0.0000 
     24 C24        -7.1380   51.2738   25.0590 C.ar      1 UNK         0.0000 
     25 C25        -6.2854   52.3452   24.8034 C.ar      1 UNK         0.0000 
     26 C26        -4.8931   52.2153   24.9311 C.ar      1 UNK         0.0000 
     27 N27        -4.0325   53.3676   24.5662 N.pl3     1 UNK         0.0000 
     28 O28        -2.9254   53.1599   24.0814 O.co2     1 UNK         0.0000 
     29 O29        -4.4961   54.4960   24.7020 O.co2     1 UNK         0.0000 
     30 Cl30       -8.8433   51.4665   24.8824 Cl        1 UNK         0.0000 
     31 N31        -3.3932   51.2962   27.8823 N.pl3     1 UNK         0.0000 
     32 C32        -0.6986   51.7324   28.3590 C.1       1 UNK         0.0000 
     33 N33        -0.4228   52.0922   29.4254 N.1       1 UNK         0.0000 
     34 H34         4.6823   55.2961   28.6411 H         1 UNK         0.0000 
     35 H35         4.8759   53.5613   28.7903 H         1 UNK         0.0000 
     36 H36         4.7494   54.2956   27.1930 H         1 UNK         0.0000 
     37 H37         2.3512   54.9595   27.7056 H         1 UNK         0.0000 
     38 H38         2.5098   54.2751   29.2968 H         1 UNK         0.0000 
     39 H39        -0.3705   52.6055   23.4869 H         1 UNK         0.0000 
     40 H40         1.5020   54.3452   22.8477 H         1 UNK         0.0000 
     41 H41         0.1855   48.5033   21.9707 H         1 UNK         0.0000 
     42 H42        -0.6833   47.6702   23.2490 H         1 UNK         0.0000 
     43 H43        -1.6866   50.1972   21.8461 H         1 UNK         0.0000 
     44 H44        -2.3010   48.5898   21.5616 H         1 UNK         0.0000 
     45 H45        -3.6341   49.9834   23.0951 H         1 UNK         0.0000 
     46 H46        -3.2718   48.4500   23.8365 H         1 UNK         0.0000 
     47 H47        -4.8385   48.9513   25.9368 H         1 UNK         0.0000 
     48 H48        -7.2712   49.2163   25.6575 H         1 UNK         0.0000 
     49 H49        -6.7166   53.2837   24.4828 H         1 UNK         0.0000 
     50 H50        -3.0476   51.4958   28.8108 H         1 UNK         0.0000 
     51 H51        -4.2412   50.7507   27.8413 H         1 UNK         0.0000 
@<TRIPOS>BOND
     1    1    2 1    
     2    1   34 1    
     3    1   35 1    
     4    1   36 1    
     5    2    3 1    
     6    2   37 1    
     7    2   38 1    
     8    3    4 1    
     9    4    8 1    
    10    4    5 2    
    11    5    6 1    
    12    5    9 1    
    13    6    7 2    
    14    6   39 1    
    15    7    8 1    
    16    7   40 1    
    17    9   10 1    
    18    9   15 1    
    19    9   11 1    
    20   11   12 2    
    21   11   32 1    
    22   12   13 1    
    23   12   31 1    
    24   13   14 1    
    25   13   21 1    
    26   14   20 1    
    27   14   15 2    
    28   15   16 1    
    29   16   17 2    
    30   16   18 1    
    31   18   19 1    
    32   18   41 1    
    33   18   42 1    
    34   19   20 1    
    35   19   43 1    
    36   19   44 1    
    37   20   45 1    
    38   20   46 1    
    39   21   26 ar   
    40   21   22 ar   
    41   22   23 ar   
    42   22   47 1    
    43   23   24 ar   
    44   23   48 1    
    45   24   25 ar   
    46   24   30 1    
    47   25   26 ar   
    48   25   49 1    
    49   26   27 1    
    50   27   28 2    
    51   27   29 1    
    52   31   50 1    
    53   31   51 1    
    54   32   33 3    
@<TRIPOS>SUBSTRUCTURE
     1 UNK         1 GROUP             0       ****    0 ROOT    
