@<TRIPOS>MOLECULE
ZINC39596545_625
69   72    1
SMALL
USER_CHARGES


@<TRIPOS>ATOM
      1 C1          6.3247   58.1342   16.1509 C.3       1 UNK         0.0000 
      2 C2          6.0961   56.9471   17.0696 C.ar      1 UNK         0.0000 
      3 C3          6.0826   55.6476   16.5576 C.ar      1 UNK         0.0000 
      4 C4          5.8642   54.5669   17.4099 C.ar      1 UNK         0.0000 
      5 C5          5.6656   54.7823   18.7774 C.ar      1 UNK         0.0000 
      6 C6          5.6840   56.0836   19.2837 C.ar      1 UNK         0.0000 
      7 C7          5.9033   57.1639   18.4336 C.ar      1 UNK         0.0000 
      8 C8          5.3937   53.6034   19.7107 C.3       1 UNK         0.0000 
      9 C9          3.9152   53.1594   19.7032 C.2       1 UNK         0.0000 
     10 O10         3.3764   52.9366   18.6173 O.2       1 UNK         0.0000 
     11 N11         3.2429   53.0046   20.8715 N.am      1 UNK         0.0000 
     12 C12         3.7930   53.1796   22.2202 C.3       1 UNK         0.0000 
     13 C13         2.6687   52.6695   23.1487 C.3       1 UNK         0.0000 
     14 H14         3.1003   52.0970   23.9436 H         1 UNK         0.0000 
     15 C15         1.7869   51.7443   22.2626 C.3       1 UNK         0.0000 
     16 C16         1.8790   52.4664   20.8989 C.3       1 UNK         0.0000 
     17 C17         0.3414   51.4515   22.7500 C.3       1 UNK         0.0000 
     18 C18        -0.4349   50.6147   21.7106 C.3       1 UNK         0.0000 
     19 N19         0.3084   49.2755   21.4925 N.4       1 UNK         0.0000 
     20 C20         1.8125   49.4106   21.1568 C.3       1 UNK         0.0000 
     21 C21         2.4569   50.3344   22.2078 C.3       1 UNK         0.0000 
     22 C22         1.9454   53.8307   23.8685 C.2       1 UNK         0.0000 
     23 O23         1.1051   54.4965   23.2817 O.2       1 UNK         0.0000 
     24 N24         2.1585   54.0956   25.1645 N.am      1 UNK         0.0000 
     25 C25         3.0382   53.4832   26.1632 C.3       1 UNK         0.0000 
     26 C26         2.2684   52.6481   27.2260 C.3       1 UNK         0.0000 
     27 H27         1.9049   51.7503   26.7228 H         1 UNK         0.0000 
     28 C28         3.1834   52.2237   28.4058 C.3       1 UNK         0.0000 
     29 O29         1.0360   53.2368   27.6683 O.3       1 UNK         0.0000 
     30 C30         1.0867   54.2010   28.6430 C.ar      1 UNK         0.0000 
     31 C31         1.8041   55.3828   28.4601 C.ar      1 UNK         0.0000 
     32 C32         1.8971   56.3136   29.4704 C.ar      1 UNK         0.0000 
     33 C33         1.2825   56.0475   30.6753 C.ar      1 UNK         0.0000 
     34 C34         0.5399   54.8854   30.8815 C.ar      1 UNK         0.0000 
     35 C35         0.4311   53.9598   29.8492 C.ar      1 UNK         0.0000 
     36 F36         1.5044   56.8967   31.6818 F         1 UNK         0.0000 
     37 H37         5.3918   58.6770   15.9871 H         1 UNK         0.0000 
     38 H38         7.0328   58.8309   16.6030 H         1 UNK         0.0000 
     39 H39         6.7388   57.8320   15.1878 H         1 UNK         0.0000 
     40 H40         6.2311   55.4719   15.5024 H         1 UNK         0.0000 
     41 H41         5.8372   53.5633   17.0089 H         1 UNK         0.0000 
     42 H42         5.5128   56.2598   20.3357 H         1 UNK         0.0000 
     43 H43         5.9058   58.1697   18.8289 H         1 UNK         0.0000 
     44 H44         5.9824   52.7475   19.3759 H         1 UNK         0.0000 
     45 H45         5.7424   53.8525   20.7117 H         1 UNK         0.0000 
     46 H46         4.6574   52.5268   22.3512 H         1 UNK         0.0000 
     47 H47         4.1002   54.2000   22.4592 H         1 UNK         0.0000 
     48 H48         1.1742   53.2967   20.9277 H         1 UNK         0.0000 
     49 H49         1.6047   51.8436   20.0487 H         1 UNK         0.0000 
     50 H50         0.3390   50.9829   23.7363 H         1 UNK         0.0000 
     51 H51        -0.2133   52.3813   22.8736 H         1 UNK         0.0000 
     52 H52        -1.4381   50.3556   22.0527 H         1 UNK         0.0000 
     53 H53        -0.5088   51.0994   20.7355 H         1 UNK         0.0000 
     54 H54         0.2254   48.7367   22.3438 H         1 UNK         0.0000 
     55 H55         2.2360   48.4053   21.1865 H         1 UNK         0.0000 
     56 H56         1.8910   49.7774   20.1321 H         1 UNK         0.0000 
     57 H57         3.5021   50.4412   21.9128 H         1 UNK         0.0000 
     58 H58         2.4883   49.8605   23.1915 H         1 UNK         0.0000 
     59 H59         1.5903   54.8520   25.5154 H         1 UNK         0.0000 
     60 H60         3.8399   52.8967   25.7228 H         1 UNK         0.0000 
     61 H61         3.5969   54.2817   26.6466 H         1 UNK         0.0000 
     62 H62         4.2149   52.0967   28.0818 H         1 UNK         0.0000 
     63 H63         3.2383   52.9702   29.1967 H         1 UNK         0.0000 
     64 H64         2.8361   51.2964   28.8624 H         1 UNK         0.0000 
     65 H65         2.3050   55.6061   27.5424 H         1 UNK         0.0000 
     66 H66         2.4652   57.2206   29.3390 H         1 UNK         0.0000 
     67 H67         0.0833   54.6896   31.8408 H         1 UNK         0.0000 
     68 H68        -0.1199   53.0416   29.9956 H         1 UNK         0.0000 
     69 H69        -0.1542   48.7420   20.7682 H         1 UNK         0.0000 
@<TRIPOS>BOND
     1    1    2 1    
     2    1   37 1    
     3    1   38 1    
     4    1   39 1    
     5    2    7 ar   
     6    2    3 ar   
     7    3    4 ar   
     8    3   40 1    
     9    4    5 ar   
    10    4   41 1    
    11    5    6 ar   
    12    5    8 1    
    13    6    7 ar   
    14    6   42 1    
    15    7   43 1    
    16    8    9 1    
    17    8   44 1    
    18    8   45 1    
    19    9   10 2    
    20    9   11 am   BACKBONE|DICT|INTERRES
    21   11   16 1    
    22   11   12 1    
    23   12   13 1    
    24   12   46 1    
    25   12   47 1    
    26   13   14 1    
    27   13   15 1    
    28   13   22 1    
    29   15   21 1    
    30   15   16 1    
    31   15   17 1    
    32   16   48 1    
    33   16   49 1    
    34   17   18 1    
    35   17   50 1    
    36   17   51 1    
    37   18   19 1    
    38   18   52 1    
    39   18   53 1    
    40   19   20 1    
    41   19   54 1    
    42   19   69 1    
    43   20   21 1    
    44   20   55 1    
    45   20   56 1    
    46   21   57 1    
    47   21   58 1    
    48   22   23 2    
    49   22   24 am   BACKBONE|DICT|INTERRES
    50   24   25 1    
    51   24   59 1    
    52   25   26 1    
    53   25   60 1    
    54   25   61 1    
    55   26   27 1    
    56   26   28 1    
    57   26   29 1    
    58   28   62 1    
    59   28   63 1    
    60   28   64 1    
    61   29   30 1    
    62   30   35 ar   
    63   30   31 ar   
    64   31   32 ar   
    65   31   65 1    
    66   32   33 ar   
    67   32   66 1    
    68   33   34 ar   
    69   33   36 1    
    70   34   35 ar   
    71   34   67 1    
    72   35   68 1    
@<TRIPOS>SUBSTRUCTURE
     1 UNK         1 GROUP             0       ****    0 ROOT    
