@<TRIPOS>MOLECULE
ZINC40877627_5562
76   81    1
SMALL
USER_CHARGES


@<TRIPOS>ATOM
      1 C1          6.4485   54.5361   22.9842 C.ar      1 UNK         0.0000 
      2 C2          6.2843   54.4975   24.3666 C.ar      1 UNK         0.0000 
      3 C3          5.0087   54.4215   24.9570 C.ar      1 UNK         0.0000 
      4 C4          3.8987   54.4135   24.0835 C.ar      1 UNK         0.0000 
      5 C5          4.0675   54.4149   22.6989 C.ar      1 UNK         0.0000 
      6 C6          5.3423   54.4965   22.1315 C.ar      1 UNK         0.0000 
      7 C7          5.5046   54.6088   20.6485 C.2       1 UNK         0.0000 
      8 N8          4.6152   54.1164   19.8069 N.2       1 UNK         0.0000 
      9 C9          5.1126   54.4596   18.6491 C.2       1 UNK         0.0000 
     10 O10         6.2791   55.1423   18.7397 O.3       1 UNK         0.0000 
     11 N11         6.5301   55.2366   20.1059 N.2       1 UNK         0.0000 
     12 C12         4.5411   54.2043   17.2693 C.3       1 UNK         0.0000 
     13 C13         3.8519   52.8966   16.9582 C.3       1 UNK         0.0000 
     14 C14         3.0439   54.1758   17.0568 C.3       1 UNK         0.0000 
     15 F15         2.6298   54.4399   24.5511 F         1 UNK         0.0000 
     16 N16         4.8496   54.3771   26.3520 N.pl3     1 UNK         0.0000 
     17 C17         6.0397   54.4287   27.2333 C.3       1 UNK         0.0000 
     18 C18         5.7518   54.5004   28.7500 C.3       1 UNK         0.0000 
     19 C19         4.7044   53.5248   29.2814 C.3       1 UNK         0.0000 
     20 C20         3.5114   53.5151   28.3367 C.3       1 UNK         0.0000 
     21 H21         2.9891   54.4675   28.4320 H         1 UNK         0.0000 
     22 C22         4.0057   53.2967   26.8863 C.3       1 UNK         0.0000 
     23 C23         2.4568   52.4619   28.7785 C.2       1 UNK         0.0000 
     24 O24         2.7385   51.6969   29.7050 O.2       1 UNK         0.0000 
     25 N25         1.2814   52.3434   28.1180 N.am      1 UNK         0.0000 
     26 C26         0.3153   51.2959   28.4315 C.3       1 UNK         0.0000 
     27 C27         0.1701   50.5027   27.0963 C.3       1 UNK         0.0000 
     28 C28        -0.4955   51.3545   25.9819 C.3       1 UNK         0.0000 
     29 C29         0.4685   52.5585   25.8136 C.3       1 UNK         0.0000 
     30 C30         0.7821   53.2967   27.1448 C.3       1 UNK         0.0000 
     31 C31        -1.9675   51.7337   26.3879 C.2       1 UNK         0.0000 
     32 O32        -2.4820   52.7773   25.9930 O.2       1 UNK         0.0000 
     33 N33        -2.6711   50.8969   27.1655 N.am      1 UNK         0.0000 
     34 N34        -0.5843   50.5573   24.6217 N.4       1 UNK         0.0000 
     35 C35        -0.9453   51.4907   23.4208 C.3       1 UNK         0.0000 
     36 C36        -1.2202   50.6477   22.1683 C.3       1 UNK         0.0000 
     37 C37         0.0182   49.8353   21.7818 C.3       1 UNK         0.0000 
     38 C38         0.4850   48.9721   22.9586 C.3       1 UNK         0.0000 
     39 C39         0.7041   49.7627   24.2545 C.3       1 UNK         0.0000 
     40 H40         7.4485   54.6068   22.5797 H         1 UNK         0.0000 
     41 H41         7.1817   54.5204   24.9639 H         1 UNK         0.0000 
     42 H42         3.1920   54.4171   22.0641 H         1 UNK         0.0000 
     43 H43         5.1401   54.6314   16.4645 H         1 UNK         0.0000 
     44 H44         4.0224   52.4377   15.9835 H         1 UNK         0.0000 
     45 H45         3.7777   52.1456   17.7468 H         1 UNK         0.0000 
     46 H46         2.3878   54.3257   17.9158 H         1 UNK         0.0000 
     47 H47         2.6431   54.6237   16.1471 H         1 UNK         0.0000 
     48 H48         6.6034   55.3256   26.9731 H         1 UNK         0.0000 
     49 H49         6.6911   53.5770   27.0257 H         1 UNK         0.0000 
     50 H50         5.5043   55.5199   29.0331 H         1 UNK         0.0000 
     51 H51         6.6902   54.3097   29.2695 H         1 UNK         0.0000 
     52 H52         4.4123   53.8486   30.2819 H         1 UNK         0.0000 
     53 H53         5.1966   52.5500   29.2890 H         1 UNK         0.0000 
     54 H54         4.6672   52.4395   26.8823 H         1 UNK         0.0000 
     55 H55         3.1949   53.0200   26.2251 H         1 UNK         0.0000 
     56 H56        -0.6254   51.7564   28.7366 H         1 UNK         0.0000 
     57 H57         0.6077   50.6769   29.2809 H         1 UNK         0.0000 
     58 H58        -0.4818   49.6807   27.2817 H         1 UNK         0.0000 
     59 H59         1.1490   50.1058   26.8437 H         1 UNK         0.0000 
     60 H60         1.4036   52.2599   25.3475 H         1 UNK         0.0000 
     61 H61         0.0234   53.2968   25.1531 H         1 UNK         0.0000 
     62 H62        -0.1384   53.6938   27.5786 H         1 UNK         0.0000 
     63 H63         1.4306   54.1579   26.9830 H         1 UNK         0.0000 
     64 H64        -2.2708   50.0305   27.5249 H         1 UNK         0.0000 
     65 H65        -3.6185   51.1340   27.4154 H         1 UNK         0.0000 
     66 H66        -0.1258   52.1915   23.2531 H         1 UNK         0.0000 
     67 H67        -1.8540   52.0374   23.6699 H         1 UNK         0.0000 
     68 H68        -1.5068   51.2994   21.3416 H         1 UNK         0.0000 
     69 H69        -2.0692   49.9849   22.3420 H         1 UNK         0.0000 
     70 H70        -0.1986   49.2065   20.9171 H         1 UNK         0.0000 
     71 H71         0.8230   50.5052   21.4722 H         1 UNK         0.0000 
     72 H72        -0.2307   48.1687   23.1404 H         1 UNK         0.0000 
     73 H73         1.4297   48.4967   22.6937 H         1 UNK         0.0000 
     74 H74         1.5424   50.4522   24.1698 H         1 UNK         0.0000 
     75 H75         0.8914   49.0303   25.0399 H         1 UNK         0.0000 
     76 H76        -1.3449   49.9003   24.7314 H         1 UNK         0.0000 
@<TRIPOS>BOND
     1    1    6 ar   
     2    1    2 ar   
     3    1   40 1    
     4    2    3 ar   
     5    2   41 1    
     6    3    4 ar   
     7    3   16 1    
     8    4    5 ar   
     9    4   15 1    
    10    5    6 ar   
    11    5   42 1    
    12    6    7 1    
    13    7   11 2    
    14    7    8 1    
    15    8    9 2    
    16    9   10 1    
    17    9   12 1    
    18   10   11 1    
    19   12   14 1    
    20   12   13 1    
    21   12   43 1    
    22   13   14 1    
    23   13   44 1    
    24   13   45 1    
    25   14   46 1    
    26   14   47 1    
    27   16   22 1    
    28   16   17 1    
    29   17   18 1    
    30   17   48 1    
    31   17   49 1    
    32   18   19 1    
    33   18   50 1    
    34   18   51 1    
    35   19   20 1    
    36   19   52 1    
    37   19   53 1    
    38   20   21 1    
    39   20   22 1    
    40   20   23 1    
    41   22   54 1    
    42   22   55 1    
    43   23   24 2    
    44   23   25 am   BACKBONE|DICT|INTERRES
    45   25   30 1    
    46   25   26 1    
    47   26   27 1    
    48   26   56 1    
    49   26   57 1    
    50   27   28 1    
    51   27   58 1    
    52   27   59 1    
    53   28   29 1    
    54   28   31 1    
    55   28   34 1    
    56   29   30 1    
    57   29   60 1    
    58   29   61 1    
    59   30   62 1    
    60   30   63 1    
    61   31   32 2    
    62   31   33 am   BACKBONE|DICT|INTERRES
    63   33   64 1    
    64   33   65 1    
    65   34   39 1    
    66   34   35 1    
    67   34   76 1    
    68   35   36 1    
    69   35   66 1    
    70   35   67 1    
    71   36   37 1    
    72   36   68 1    
    73   36   69 1    
    74   37   38 1    
    75   37   70 1    
    76   37   71 1    
    77   38   39 1    
    78   38   72 1    
    79   38   73 1    
    80   39   74 1    
    81   39   75 1    
@<TRIPOS>SUBSTRUCTURE
     1 UNK         1 GROUP             0       ****    0 ROOT    
