@<TRIPOS>MOLECULE
ZINC08682302_2894
54   56    1
SMALL
USER_CHARGES


@<TRIPOS>ATOM
      1 C1         -4.3026   46.8014   28.2606 C.3       1 UNK         0.0000 
      2 C2         -4.6952   47.6037   27.0103 C.3       1 UNK         0.0000 
      3 O3         -3.5522   48.0309   26.2753 O.3       1 UNK         0.0000 
      4 C4         -2.9439   47.2249   25.3809 C.2       1 UNK         0.0000 
      5 O5         -3.3112   46.0966   25.0529 O.2       1 UNK         0.0000 
      6 C6         -1.7319   47.8633   24.7066 C.3       1 UNK         0.0000 
      7 C7         -0.5352   50.1009   25.4598 C.3       1 UNK         0.0000 
      8 H8          0.0415   50.2867   26.3687 H         1 UNK         0.0000 
      9 C9         -1.8314   50.9141   25.5726 C.ar      1 UNK         0.0000 
     10 C10        -2.3740   51.5865   24.4685 C.ar      1 UNK         0.0000 
     11 C11        -3.5578   52.3082   24.5988 C.ar      1 UNK         0.0000 
     12 C12        -4.2054   52.3553   25.8306 C.ar      1 UNK         0.0000 
     13 C13        -3.6722   51.6969   26.9353 C.ar      1 UNK         0.0000 
     14 C14        -2.4788   50.9941   26.8106 C.ar      1 UNK         0.0000 
     15 C15         0.3899   50.4951   24.2817 C.ar      1 UNK         0.0000 
     16 C16         0.5285   49.6561   23.1629 C.ar      1 UNK         0.0000 
     17 C17         1.3232   50.0186   22.0789 C.ar      1 UNK         0.0000 
     18 C18         1.9821   51.2411   22.0792 C.ar      1 UNK         0.0000 
     19 C19         1.8798   52.0802   23.1838 C.ar      1 UNK         0.0000 
     20 C20         1.1236   51.7049   24.3099 C.ar      1 UNK         0.0000 
     21 N21         1.0923   52.4968   25.4815 N.am      1 UNK         0.0000 
     22 C22         2.0728   53.2932   25.9708 C.2       1 UNK         0.0000 
     23 O23         3.1059   53.5617   25.3554 O.2       1 UNK         0.0000 
     24 C24         1.8600   53.8751   27.3532 C.ar      1 UNK         0.0000 
     25 C25         0.8243   53.4515   28.2065 C.ar      1 UNK         0.0000 
     26 C26         0.6105   54.0970   29.4252 C.ar      1 UNK         0.0000 
     27 C27         1.4187   55.1745   29.7869 C.ar      1 UNK         0.0000 
     28 C28         2.4819   55.5558   28.9861 C.ar      1 UNK         0.0000 
     29 C29         2.7142   54.8967   27.7877 C.ar      1 UNK         0.0000 
     30 Cl30        1.1044   56.0907   31.2112 Cl        1 UNK         0.0000 
     31 Br31        1.4997   48.8448   20.5908 Br        1 UNK         0.0000 
     32 H32        -5.1885   46.4897   28.8122 H         1 UNK         0.0000 
     33 H33        -3.6955   47.4064   28.9352 H         1 UNK         0.0000 
     34 H34        -3.7306   45.9077   28.0073 H         1 UNK         0.0000 
     35 H35        -5.3735   47.0274   26.3783 H         1 UNK         0.0000 
     36 H36        -5.2442   48.4946   27.3168 H         1 UNK         0.0000 
     37 H37        -1.1268   47.1079   24.2064 H         1 UNK         0.0000 
     38 H38        -2.0632   48.6167   23.9918 H         1 UNK         0.0000 
     39 H39        -1.8913   51.5491   23.5031 H         1 UNK         0.0000 
     40 H40        -3.9772   52.8210   23.7458 H         1 UNK         0.0000 
     41 H41        -5.1304   52.9046   25.9296 H         1 UNK         0.0000 
     42 H42        -4.1786   51.7319   27.8887 H         1 UNK         0.0000 
     43 H43        -2.0742   50.4967   27.6801 H         1 UNK         0.0000 
     44 H44         0.0261   48.7076   23.0994 H         1 UNK         0.0000 
     45 H45         2.5822   51.5337   21.2293 H         1 UNK         0.0000 
     46 H46         2.4082   53.0204   23.1458 H         1 UNK         0.0000 
     47 H47         0.2980   52.3414   26.0806 H         1 UNK         0.0000 
     48 H48         0.1580   52.6459   27.9339 H         1 UNK         0.0000 
     49 H49        -0.2047   53.7915   30.0651 H         1 UNK         0.0000 
     50 H50         3.1044   56.3865   29.2817 H         1 UNK         0.0000 
     51 H51         3.5345   55.2354   27.1695 H         1 UNK         0.0000 
     52 N52        -0.7784   48.5896   25.6817 N.4       1 UNK         0.0000 
     53 H53        -1.1642   48.4958   26.6280 H         1 UNK         0.0000 
     54 H54         0.1126   48.1095   25.7188 H         1 UNK         0.0000 
@<TRIPOS>BOND
     1    1    2 1    
     2    1   32 1    
     3    1   33 1    
     4    1   34 1    
     5    2    3 1    
     6    2   35 1    
     7    2   36 1    
     8    3    4 1    
     9    4    5 2    
    10    4    6 1    
    11    6   37 1    
    12    6   38 1    
    13    6   52 1    
    14    7    8 1    
    15    7    9 1    
    16    7   15 1    
    17    7   52 1    
    18    9   14 ar   
    19    9   10 ar   
    20   10   11 ar   
    21   10   39 1    
    22   11   12 ar   
    23   11   40 1    
    24   12   13 ar   
    25   12   41 1    
    26   13   14 ar   
    27   13   42 1    
    28   14   43 1    
    29   15   20 ar   
    30   15   16 ar   
    31   16   17 ar   
    32   16   44 1    
    33   17   18 ar   
    34   17   31 1    
    35   18   19 ar   
    36   18   45 1    
    37   19   20 ar   
    38   19   46 1    
    39   20   21 1    
    40   21   22 am   BACKBONE|DICT|INTERRES
    41   21   47 1    
    42   22   23 2    
    43   22   24 1    
    44   24   29 ar   
    45   24   25 ar   
    46   25   26 ar   
    47   25   48 1    
    48   26   27 ar   
    49   26   49 1    
    50   27   28 ar   
    51   27   30 1    
    52   28   29 ar   
    53   28   50 1    
    54   29   51 1    
    55   52   53 1    
    56   52   54 1    
@<TRIPOS>SUBSTRUCTURE
     1 UNK         1 GROUP             0       ****    0 ROOT    
