@<TRIPOS>MOLECULE
ZINC39992669_5415
67   71    1
SMALL
USER_CHARGES


@<TRIPOS>ATOM
      1 C1          5.9521   54.5565   26.1600 C.ar      1 UNK         0.0000 
      2 C2          6.3004   54.4973   27.5087 C.ar      1 UNK         0.0000 
      3 C3          5.3002   54.4362   28.4752 C.ar      1 UNK         0.0000 
      4 C4          3.9560   54.3789   28.1031 C.ar      1 UNK         0.0000 
      5 C5          3.6189   54.4946   26.7493 C.ar      1 UNK         0.0000 
      6 C6          4.6140   54.5715   25.7776 C.ar      1 UNK         0.0000 
      7 O7          3.0103   54.2711   29.1049 O.3       1 UNK         0.0000 
      8 C8          1.9231   53.4102   29.0514 C.ar      1 UNK         0.0000 
      9 C9          1.0154   53.4780   30.1121 C.ar      1 UNK         0.0000 
     10 C10        -0.0949   52.6359   30.1594 C.ar      1 UNK         0.0000 
     11 C11        -0.3442   51.7522   29.1132 C.ar      1 UNK         0.0000 
     12 C12         0.5278   51.6752   28.0265 C.ar      1 UNK         0.0000 
     13 C13         1.6827   52.4709   28.0311 C.ar      1 UNK         0.0000 
     14 C14         0.1957   50.7779   26.8965 C.2       1 UNK         0.0000 
     15 C15         0.3413   51.0713   25.5805 C.2       1 UNK         0.0000 
     16 C16         0.8114   52.3468   25.1249 C.1       1 UNK         0.0000 
     17 N17         1.1832   53.3370   24.6572 N.1       1 UNK         0.0000 
     18 C18         0.0136   50.0901   24.5567 C.2       1 UNK         0.0000 
     19 O19        -0.6974   49.1061   24.7731 O.2       1 UNK         0.0000 
     20 N20         0.5654   50.3831   23.3559 N.am      1 UNK         0.0000 
     21 C21         0.4451   49.7457   22.1291 C.2       1 UNK         0.0000 
     22 C22         1.3083   49.9293   21.0278 C.2       1 UNK         0.0000 
     23 C23         1.0149   49.0039   19.9843 C.2       1 UNK         0.0000 
     24 C24        -0.1511   48.2603   20.2429 C.2       1 UNK         0.0000 
     25 S25        -0.8402   48.6189   21.7857 S.3       1 UNK         0.0000 
     26 C26        -0.7292   47.1816   19.3380 C.3       1 UNK         0.0000 
     27 C27        -0.1472   47.3456   17.9218 C.3       1 UNK         0.0000 
     28 C28         1.3796   47.5098   17.9554 C.3       1 UNK         0.0000 
     29 C29         1.8227   48.7937   18.6906 C.3       1 UNK         0.0000 
     30 C30         2.4641   50.8206   21.0189 C.2       1 UNK         0.0000 
     31 O31         3.5137   50.4966   20.4819 O.2       1 UNK         0.0000 
     32 N32         2.3364   51.9968   21.6673 N.am      1 UNK         0.0000 
     33 C33         3.4388   52.9448   21.8860 C.3       1 UNK         0.0000 
     34 C34         3.9456   53.6842   20.6225 C.3       1 UNK         0.0000 
     35 H35         3.1099   54.0964   20.0573 H         1 UNK         0.0000 
     36 C36         5.0245   53.0044   19.7762 C.3       1 UNK         0.0000 
     37 C37         5.9029   54.1185   19.2564 C.3       1 UNK         0.0000 
     38 C38         5.5980   55.2922   20.1801 C.3       1 UNK         0.0000 
     39 O39         4.7034   54.7714   21.1598 O.3       1 UNK         0.0000 
     40 H40         6.7208   54.6044   25.4043 H         1 UNK         0.0000 
     41 H41         7.3381   54.5188   27.8061 H         1 UNK         0.0000 
     42 H42         5.5622   54.4449   29.5230 H         1 UNK         0.0000 
     43 H43         2.5846   54.5018   26.4555 H         1 UNK         0.0000 
     44 H44         4.3467   54.6358   24.7333 H         1 UNK         0.0000 
     45 H45         1.1783   54.1815   30.9139 H         1 UNK         0.0000 
     46 H46        -0.7640   52.6731   31.0073 H         1 UNK         0.0000 
     47 H47        -1.2217   51.1191   29.1510 H         1 UNK         0.0000 
     48 H48         2.3904   52.3528   27.2277 H         1 UNK         0.0000 
     49 H49        -0.1718   49.8009   27.1884 H         1 UNK         0.0000 
     50 H50         1.2604   51.1161   23.3684 H         1 UNK         0.0000 
     51 H51        -0.4669   46.1965   19.7262 H         1 UNK         0.0000 
     52 H52        -1.8175   47.2279   19.3064 H         1 UNK         0.0000 
     53 H53        -0.4181   46.4819   17.3118 H         1 UNK         0.0000 
     54 H54        -0.5979   48.2133   17.4328 H         1 UNK         0.0000 
     55 H55         1.8258   46.6406   18.4405 H         1 UNK         0.0000 
     56 H56         1.7806   47.5211   16.9403 H         1 UNK         0.0000 
     57 H57         1.7001   49.6551   18.0341 H         1 UNK         0.0000 
     58 H58         2.8937   48.7134   18.8823 H         1 UNK         0.0000 
     59 H59         1.4081   52.3405   21.8603 H         1 UNK         0.0000 
     60 H60         3.1028   53.6737   22.6239 H         1 UNK         0.0000 
     61 H61         4.2726   52.4219   22.3533 H         1 UNK         0.0000 
     62 H62         5.5955   52.3025   20.3813 H         1 UNK         0.0000 
     63 H63         4.5810   52.4072   18.9807 H         1 UNK         0.0000 
     64 H64         6.9596   53.8450   19.2737 H         1 UNK         0.0000 
     65 H65         5.6439   54.3697   18.2257 H         1 UNK         0.0000 
     66 H66         6.4908   55.6894   20.6638 H         1 UNK         0.0000 
     67 H67         5.1240   56.1125   19.6385 H         1 UNK         0.0000 
@<TRIPOS>BOND
     1    1    6 ar   
     2    1    2 ar   
     3    1   40 1    
     4    2    3 ar   
     5    2   41 1    
     6    3    4 ar   
     7    3   42 1    
     8    4    5 ar   
     9    4    7 1    
    10    5    6 ar   
    11    5   43 1    
    12    6   44 1    
    13    7    8 1    
    14    8   13 ar   
    15    8    9 ar   
    16    9   10 ar   
    17    9   45 1    
    18   10   11 ar   
    19   10   46 1    
    20   11   12 ar   
    21   11   47 1    
    22   12   13 ar   
    23   12   14 1    
    24   13   48 1    
    25   14   15 2    
    26   14   49 1    
    27   15   16 1    
    28   15   18 1    
    29   16   17 3    
    30   18   19 2    
    31   18   20 am   BACKBONE|DICT|INTERRES
    32   20   21 am   BACKBONE|DICT|INTERRES
    33   20   50 1    
    34   21   25 1    
    35   21   22 2    
    36   22   23 1    
    37   22   30 1    
    38   23   29 1    
    39   23   24 2    
    40   24   25 1    
    41   24   26 1    
    42   26   27 1    
    43   26   51 1    
    44   26   52 1    
    45   27   28 1    
    46   27   53 1    
    47   27   54 1    
    48   28   29 1    
    49   28   55 1    
    50   28   56 1    
    51   29   57 1    
    52   29   58 1    
    53   30   31 2    
    54   30   32 am   BACKBONE|DICT|INTERRES
    55   32   33 1    
    56   32   59 1    
    57   33   34 1    
    58   33   60 1    
    59   33   61 1    
    60   34   35 1    
    61   34   39 1    
    62   34   36 1    
    63   36   37 1    
    64   36   62 1    
    65   36   63 1    
    66   37   38 1    
    67   37   64 1    
    68   37   65 1    
    69   38   39 1    
    70   38   66 1    
    71   38   67 1    
@<TRIPOS>SUBSTRUCTURE
     1 UNK         1 GROUP             0       ****    0 ROOT    
