@<TRIPOS>MOLECULE
ZINC04565435_1719
39   41    1
SMALL
USER_CHARGES


@<TRIPOS>ATOM
      1 C1          2.3092   54.8228   28.8105 C.3       1 UNK         0.0000 
      2 C2          3.7218   54.6099   28.3130 C.ar      1 UNK         0.0000 
      3 C3          4.1950   54.4862   26.9838 C.ar      1 UNK         0.0000 
      4 C4          5.5621   54.3921   27.1479 C.ar      1 UNK         0.0000 
      5 N5          5.8285   54.4460   28.4794 N.pl3     1 UNK         0.0000 
      6 H6          6.7496   54.4508   28.8962 H         1 UNK         0.0000 
      7 N7          4.7047   54.5584   29.1962 N.2       1 UNK         0.0000 
      8 O8          6.5360   54.2978   26.1870 O.3       1 UNK         0.0000 
      9 C9          6.0349   54.1864   24.9225 C.2       1 UNK         0.0000 
     10 C10         4.7214   54.1977   24.5628 C.2       1 UNK         0.0000 
     11 C11         3.5697   54.4211   25.5782 C.3       1 UNK         0.0000 
     12 H12         3.1978   55.4140   25.3454 H         1 UNK         0.0000 
     13 C13         2.3045   53.5522   25.4095 C.ar      1 UNK         0.0000 
     14 C14         1.5047   53.6967   24.2711 C.ar      1 UNK         0.0000 
     15 C15         0.3341   52.9548   24.1237 C.ar      1 UNK         0.0000 
     16 C16        -0.0926   52.0608   25.1191 C.ar      1 UNK         0.0000 
     17 C17         0.7089   51.9311   26.2618 C.ar      1 UNK         0.0000 
     18 C18         1.8916   52.6532   26.3978 C.ar      1 UNK         0.0000 
     19 N19        -1.3006   51.3195   24.9836 N.pl3     1 UNK         0.0000 
     20 C20        -1.6093   50.2418   25.9302 C.3       1 UNK         0.0000 
     21 C21        -1.9751   51.2555   23.6869 C.3       1 UNK         0.0000 
     22 C22         4.3993   54.0966   23.1757 C.1       1 UNK         0.0000 
     23 N23         4.1815   54.0255   22.0426 N.1       1 UNK         0.0000 
     24 N24         7.1002   54.0965   24.0632 N.pl3     1 UNK         0.0000 
     25 H25         1.6075   54.9924   27.9942 H         1 UNK         0.0000 
     26 H26         1.9449   53.9641   29.3736 H         1 UNK         0.0000 
     27 H27         2.2391   55.6928   29.4639 H         1 UNK         0.0000 
     28 H28         1.7784   54.3946   23.4933 H         1 UNK         0.0000 
     29 H29        -0.2387   53.1029   23.2240 H         1 UNK         0.0000 
     30 H30         0.4450   51.2554   27.0603 H         1 UNK         0.0000 
     31 H31         2.4854   52.4902   27.2832 H         1 UNK         0.0000 
     32 H32        -1.6043   50.5991   26.9604 H         1 UNK         0.0000 
     33 H33        -0.8660   49.4461   25.8602 H         1 UNK         0.0000 
     34 H34        -2.5879   49.7979   25.7455 H         1 UNK         0.0000 
     35 H35        -2.2140   52.2514   23.3136 H         1 UNK         0.0000 
     36 H36        -1.3308   50.7714   22.9520 H         1 UNK         0.0000 
     37 H37        -2.9064   50.6903   23.7388 H         1 UNK         0.0000 
     38 H38         6.9326   53.9125   23.0849 H         1 UNK         0.0000 
     39 H39         8.0040   54.4929   24.2926 H         1 UNK         0.0000 
@<TRIPOS>BOND
     1    1    2 1    
     2    1   25 1    
     3    1   26 1    
     4    1   27 1    
     5    2    7 ar   
     6    2    3 ar   
     7    3   11 1    
     8    3    4 ar   
     9    4    5 ar   
    10    4    8 1    
    11    5    6 1    
    12    5    7 ar   
    13    8    9 1    
    14    9   10 2    
    15    9   24 1    
    16   10   11 1    
    17   10   22 1    
    18   11   12 1    
    19   11   13 1    
    20   13   18 ar   
    21   13   14 ar   
    22   14   15 ar   
    23   14   28 1    
    24   15   16 ar   
    25   15   29 1    
    26   16   17 ar   
    27   16   19 1    
    28   17   18 ar   
    29   17   30 1    
    30   18   31 1    
    31   19   20 1    
    32   19   21 1    
    33   20   32 1    
    34   20   33 1    
    35   20   34 1    
    36   21   35 1    
    37   21   36 1    
    38   21   37 1    
    39   22   23 3    
    40   24   38 1    
    41   24   39 1    
@<TRIPOS>SUBSTRUCTURE
     1 UNK         1 GROUP             0       ****    0 ROOT    
