@<TRIPOS>MOLECULE
ZINC16567120_4023
66   70    1
SMALL
USER_CHARGES


@<TRIPOS>ATOM
      1 C1         -0.0949   52.6848   31.2254 C.3       1 UNK         0.0000 
      2 C2          0.6761   52.9491   29.9561 C.ar      1 UNK         0.0000 
      3 C3          0.9314   51.8900   29.0873 C.ar      1 UNK         0.0000 
      4 C4          1.6533   52.1010   27.9267 C.ar      1 UNK         0.0000 
      5 C5          2.0550   53.3934   27.5952 C.ar      1 UNK         0.0000 
      6 C6          1.7817   54.4669   28.4523 C.ar      1 UNK         0.0000 
      7 C7          1.1004   54.2405   29.6432 C.ar      1 UNK         0.0000 
      8 N8          2.7457   53.6351   26.3929 N.pl3     1 UNK         0.0000 
      9 C9          4.0383   54.1507   26.3404 C.ar      1 UNK         0.0000 
     10 C10         4.3951   54.3159   24.9997 C.ar      1 UNK         0.0000 
     11 C11         3.2292   54.0212   24.2814 C.ar      1 UNK         0.0000 
     12 C12         2.2925   53.4049   25.0951 C.ar      1 UNK         0.0000 
     13 C13         1.0486   52.6819   24.6204 C.ar      1 UNK         0.0000 
     14 C14        -0.1188   52.4968   25.3753 C.ar      1 UNK         0.0000 
     15 C15        -1.2182   51.8284   24.8461 C.ar      1 UNK         0.0000 
     16 C16        -1.1615   51.3230   23.5529 C.ar      1 UNK         0.0000 
     17 C17        -0.0104   51.4782   22.7899 C.ar      1 UNK         0.0000 
     18 C18         1.0870   52.1478   23.3231 C.ar      1 UNK         0.0000 
     19 F19        -2.2317   50.6839   23.0305 F         1 UNK         0.0000 
     20 C20         5.6308   54.8862   24.4816 C.2       1 UNK         0.0000 
     21 O21         6.2935   55.6413   25.2014 O.2       1 UNK         0.0000 
     22 N22         5.9956   54.6023   23.1945 N.am      1 UNK         0.0000 
     23 C23         5.4769   53.5167   22.3411 C.3       1 UNK         0.0000 
     24 C24         4.9680   54.1301   21.0108 C.3       1 UNK         0.0000 
     25 N25         6.0728   54.9009   20.3885 N.am      1 UNK         0.0000 
     26 C26         6.6676   55.9424   21.2530 C.3       1 UNK         0.0000 
     27 C27         7.1328   55.2996   22.5788 C.3       1 UNK         0.0000 
     28 C28         6.4728   54.7961   19.0874 C.2       1 UNK         0.0000 
     29 O29         7.3501   55.5231   18.6161 O.2       1 UNK         0.0000 
     30 N30         5.8613   53.8334   18.3594 N.am      1 UNK         0.0000 
     31 C31         6.1007   53.4695   17.0227 C.ar      1 UNK         0.0000 
     32 C32         5.0343   52.8967   16.3230 C.ar      1 UNK         0.0000 
     33 C33         5.1949   52.4879   14.9990 C.ar      1 UNK         0.0000 
     34 C34         6.4288   52.6397   14.3674 C.ar      1 UNK         0.0000 
     35 C35         7.5026   53.1966   15.0602 C.ar      1 UNK         0.0000 
     36 C36         7.3433   53.6082   16.3830 C.ar      1 UNK         0.0000 
     37 F37         8.7018   53.3321   14.4505 F         1 UNK         0.0000 
     38 C38         4.8496   54.3873   27.6114 C.3       1 UNK         0.0000 
     39 H39        -0.9368   52.0370   30.9820 H         1 UNK         0.0000 
     40 H40         0.5223   52.1659   31.9587 H         1 UNK         0.0000 
     41 H41        -0.4949   53.5936   31.6742 H         1 UNK         0.0000 
     42 H42         0.5641   50.8967   29.2830 H         1 UNK         0.0000 
     43 H43         1.8583   51.2633   27.2809 H         1 UNK         0.0000 
     44 H44         2.0927   55.4710   28.1996 H         1 UNK         0.0000 
     45 H45         0.8921   55.0668   30.3081 H         1 UNK         0.0000 
     46 H46         3.1029   54.1509   23.2166 H         1 UNK         0.0000 
     47 H47        -0.2093   52.8966   26.3718 H         1 UNK         0.0000 
     48 H48        -2.1150   51.7036   25.4360 H         1 UNK         0.0000 
     49 H49         0.0322   51.0769   21.7884 H         1 UNK         0.0000 
     50 H50         1.9710   52.2404   22.7095 H         1 UNK         0.0000 
     51 H51         6.3006   52.8345   22.1481 H         1 UNK         0.0000 
     52 H52         4.7427   52.8763   22.8183 H         1 UNK         0.0000 
     53 H53         4.1455   54.8168   21.2165 H         1 UNK         0.0000 
     54 H54         4.5810   53.3338   20.3748 H         1 UNK         0.0000 
     55 H55         5.9047   56.6944   21.4484 H         1 UNK         0.0000 
     56 H56         7.5192   56.4421   20.7888 H         1 UNK         0.0000 
     57 H57         7.5736   56.0555   23.2308 H         1 UNK         0.0000 
     58 H58         7.9056   54.5596   22.3831 H         1 UNK         0.0000 
     59 H59         5.1060   53.3325   18.7988 H         1 UNK         0.0000 
     60 H60         4.0776   52.7493   16.8055 H         1 UNK         0.0000 
     61 H61         4.3677   52.0362   14.4719 H         1 UNK         0.0000 
     62 H62         6.5579   52.3153   13.3448 H         1 UNK         0.0000 
     63 H63         8.1995   54.0158   16.8980 H         1 UNK         0.0000 
     64 H64         5.9191   54.4722   27.4226 H         1 UNK         0.0000 
     65 H65         4.5447   55.2965   28.1266 H         1 UNK         0.0000 
     66 H66         4.7421   53.5667   28.3212 H         1 UNK         0.0000 
@<TRIPOS>BOND
     1    1    2 1    
     2    1   39 1    
     3    1   40 1    
     4    1   41 1    
     5    2    7 ar   
     6    2    3 ar   
     7    3    4 ar   
     8    3   42 1    
     9    4    5 ar   
    10    4   43 1    
    11    5    6 ar   
    12    5    8 1    
    13    6    7 ar   
    14    6   44 1    
    15    7   45 1    
    16    8   12 ar   
    17    8    9 ar   
    18    9   10 ar   
    19    9   38 1    
    20   10   11 ar   
    21   10   20 1    
    22   11   12 ar   
    23   11   46 1    
    24   12   13 1    
    25   13   18 ar   
    26   13   14 ar   
    27   14   15 ar   
    28   14   47 1    
    29   15   16 ar   
    30   15   48 1    
    31   16   17 ar   
    32   16   19 1    
    33   17   18 ar   
    34   17   49 1    
    35   18   50 1    
    36   20   21 2    
    37   20   22 am   BACKBONE|DICT|INTERRES
    38   22   27 1    
    39   22   23 1    
    40   23   24 1    
    41   23   51 1    
    42   23   52 1    
    43   24   25 1    
    44   24   53 1    
    45   24   54 1    
    46   25   26 1    
    47   25   28 am   BACKBONE|DICT|INTERRES
    48   26   27 1    
    49   26   55 1    
    50   26   56 1    
    51   27   57 1    
    52   27   58 1    
    53   28   29 2    
    54   28   30 am   BACKBONE|DICT|INTERRES
    55   30   31 1    
    56   30   59 1    
    57   31   36 ar   
    58   31   32 ar   
    59   32   33 ar   
    60   32   60 1    
    61   33   34 ar   
    62   33   61 1    
    63   34   35 ar   
    64   34   62 1    
    65   35   36 ar   
    66   35   37 1    
    67   36   63 1    
    68   38   64 1    
    69   38   65 1    
    70   38   66 1    
@<TRIPOS>SUBSTRUCTURE
     1 UNK         1 GROUP             0       ****    0 ROOT    
