ZINC33255654_4035
                    3D
 Schrodinger Suite 2024-2.
 70 74  0  0  1  0            999 V2000
    3.9223   54.2092   26.6855 C   0  0  0  0  0  0
    4.2730   54.2285   25.2044 C   0  0  0  0  0  0
    3.2678   53.9737   24.2673 C   0  0  0  0  0  0
    3.5580   53.9744   22.9039 C   0  0  0  0  0  0
    4.8522   54.2500   22.4613 C   0  0  0  0  0  0
    5.8665   54.4963   23.3953 C   0  0  0  0  0  0
    5.5825   54.4936   24.7666 C   0  0  0  0  0  0
    6.7032   54.7583   25.7619 C   0  0  0  0  0  0
    5.0708   54.2226   21.0783 N   0  0  0  0  0  0
    5.9052   54.9735   20.3323 C   0  0  0  0  0  0
    6.5884   55.8935   20.7903 O   0  0  0  0  0  0
    5.9739   54.6532   18.8098 C   0  0  2  0  0  0
    7.0520   54.6127   18.6412 H   0  0  0  0  0  0
    5.3904   55.8115   17.9696 C   0  0  0  0  0  0
    3.8550   55.7758   17.9299 C   0  0  0  0  0  0
    3.3024   54.3730   17.5941 C   0  0  0  0  0  0
    3.8224   53.3506   18.5255 N   0  0  0  0  0  0
    5.2981   53.3033   18.4071 C   0  0  0  0  0  0
    3.0312   52.4254   19.2199 C   0  0  0  0  0  0
    3.5883   51.5511   20.1673 C   0  0  0  0  0  0
    2.7733   50.7205   20.9265 C   0  0  0  0  0  0
    1.3768   50.7781   20.7495 C   0  0  0  0  0  0
    0.4875   49.9740   21.4987 C   0  0  0  0  0  0
   -0.8890   50.1019   21.3224 C   0  0  0  0  0  0
   -1.3933   50.9837   20.3663 C   0  0  0  0  0  0
   -0.5372   51.7675   19.5947 C   0  0  0  0  0  0
    0.8632   51.6907   19.7811 C   0  0  0  0  0  0
    1.6826   52.4928   19.0424 N   0  0  0  0  0  0
   -1.9983   49.1258   22.3383 S   0  0  0  0  0  0
   -3.2892   49.1063   21.6384 O   0  0  0  0  0  0
   -1.2977   47.8731   22.6508 O   0  0  0  0  0  0
   -2.2187   50.0288   23.8537 N   0  0  0  0  0  0
   -1.1570   49.9715   24.8932 C   0  0  0  0  0  0
   -0.1745   51.1594   24.7835 C   0  0  0  0  0  0
   -0.9113   52.5135   24.7004 C   0  0  0  0  0  0
   -2.0407   52.5204   23.6442 C   0  0  0  0  0  0
   -2.9789   51.3051   23.8224 C   0  0  0  0  0  0
    2.8588   54.0320   26.8608 H   0  0  0  0  0  0
    4.4872   53.4281   27.1981 H   0  0  0  0  0  0
    4.1850   55.1613   27.1529 H   0  0  0  0  0  0
    2.2588   53.7610   24.5931 H   0  0  0  0  0  0
    2.7652   53.7733   22.1963 H   0  0  0  0  0  0
    6.8752   54.6893   23.0602 H   0  0  0  0  0  0
    7.6615   54.8992   25.2597 H   0  0  0  0  0  0
    6.8040   53.9183   26.4518 H   0  0  0  0  0  0
    6.4839   55.6488   26.3529 H   0  0  0  0  0  0
    4.4280   53.6524   20.5433 H   0  0  0  0  0  0
    5.7901   56.7761   18.2858 H   0  0  0  0  0  0
    5.8157   55.7490   16.9686 H   0  0  0  0  0  0
    3.4434   56.0960   18.8802 H   0  0  0  0  0  0
    3.4922   56.4965   17.1967 H   0  0  0  0  0  0
    2.2140   54.4239   17.6191 H   0  0  0  0  0  0
    3.5688   54.0891   16.5734 H   0  0  0  0  0  0
    5.5224   53.0819   17.3606 H   0  0  0  0  0  0
    5.7487   52.4967   18.9800 H   0  0  0  0  0  0
    4.6533   51.4961   20.3313 H   0  0  0  0  0  0
    3.1951   50.0413   21.6539 H   0  0  0  0  0  0
    0.8855   49.2905   22.2342 H   0  0  0  0  0  0
   -2.4593   51.0637   20.2203 H   0  0  0  0  0  0
   -0.9325   52.4479   18.8544 H   0  0  0  0  0  0
   -1.6481   50.0005   25.8689 H   0  0  0  0  0  0
   -0.6408   49.0116   24.8395 H   0  0  0  0  0  0
    0.4960   51.1568   25.6430 H   0  0  0  0  0  0
    0.4689   51.0364   23.9154 H   0  0  0  0  0  0
   -0.1937   53.3043   24.4842 H   0  0  0  0  0  0
   -1.3401   52.7447   25.6786 H   0  0  0  0  0  0
   -1.6107   52.5199   22.6426 H   0  0  0  0  0  0
   -2.6161   53.4438   23.7232 H   0  0  0  0  0  0
   -3.7436   51.2527   23.0445 H   0  0  0  0  0  0
   -3.5030   51.3971   24.7761 H   0  0  0  0  0  0
  1  2  1  0  0  0
  1 38  1  0  0  0
  1 39  1  0  0  0
  1 40  1  0  0  0
  2  7  2  0  0  0
  2  3  1  0  0  0
  3  4  2  0  0  0
  3 41  1  0  0  0
  4  5  1  0  0  0
  4 42  1  0  0  0
  5  6  2  0  0  0
  5  9  1  0  0  0
  6  7  1  0  0  0
  6 43  1  0  0  0
  7  8  1  0  0  0
  8 44  1  0  0  0
  8 45  1  0  0  0
  8 46  1  0  0  0
  9 10  1  0  0  0
  9 47  1  0  0  0
 10 11  2  0  0  0
 10 12  1  0  0  0
 12 13  1  0  0  0
 12 18  1  0  0  0
 12 14  1  0  0  0
 14 15  1  0  0  0
 14 48  1  0  0  0
 14 49  1  0  0  0
 15 16  1  0  0  0
 15 50  1  0  0  0
 15 51  1  0  0  0
 16 17  1  0  0  0
 16 52  1  0  0  0
 16 53  1  0  0  0
 17 18  1  0  0  0
 17 19  1  0  0  0
 18 54  1  0  0  0
 18 55  1  0  0  0
 19 28  2  0  0  0
 19 20  1  0  0  0
 20 21  2  0  0  0
 20 56  1  0  0  0
 21 22  1  0  0  0
 21 57  1  0  0  0
 22 27  2  0  0  0
 22 23  1  0  0  0
 23 24  2  0  0  0
 23 58  1  0  0  0
 24 25  1  0  0  0
 24 29  1  0  0  0
 25 26  2  0  0  0
 25 59  1  0  0  0
 26 27  1  0  0  0
 26 60  1  0  0  0
 27 28  1  0  0  0
 29 30  2  0  0  0
 29 31  2  0  0  0
 29 32  1  0  0  0
 32 37  1  0  0  0
 32 33  1  0  0  0
 33 34  1  0  0  0
 33 61  1  0  0  0
 33 62  1  0  0  0
 34 35  1  0  0  0
 34 63  1  0  0  0
 34 64  1  0  0  0
 35 36  1  0  0  0
 35 65  1  0  0  0
 35 66  1  0  0  0
 36 37  1  0  0  0
 36 67  1  0  0  0
 36 68  1  0  0  0
 37 69  1  0  0  0
 37 70  1  0  0  0
M  END
> <i_i_glide_confnum>
93

> <i_i_glide_lignum>
4036

> <i_i_glide_posenum>
214

> <i_i_glide_rotatable_bonds>
6

> <i_m_Source_File_Index>
1796

> <b_m_subgroup_collapsed>
0

> <r_i_docking_score>
-4.05639

> <r_i_glide_ecoul>
-0.695639

> <r_i_glide_eff_state_penalty>
0

> <r_i_glide_einternal>
7.5866

> <r_i_glide_emodel>
-49.9296

> <r_i_glide_energy>
-41.1894

> <r_i_glide_erotb>
0.478249

> <r_i_glide_esite>
-0.0427256

> <r_i_glide_evdw>
-40.4937

> <r_i_glide_gscore>
-4.05639

> <r_i_glide_hbond>
0

> <r_i_glide_ligand_efficiency>
-0.112677

> <r_i_glide_ligand_efficiency_ln>
-0.884994

> <r_i_glide_ligand_efficiency_sa>
-0.372053

> <r_i_glide_lipo>
-2.221

> <r_i_glide_metal>
0

> <r_i_glide_rewards>
-0.14188

> <s_i_glide_gridfile>
wee1_glide-grid

> <s_m_Source_File>
wee1_decoys_glide_SP.sdf

> <s_m_Source_Path>
/Users/zhangxujun/Desktop

> <s_m_entry_id>
2071

> <s_m_entry_name>
wee1_decoys_glide_SP.1796

> <s_m_subgroup_title>
wee1_decoys_glide_SP

> <s_m_subgroupid>
wee1_decoys_glide_SP


$$$$
