@<TRIPOS>MOLECULE
ZINC08455851_6126
56   60    1
SMALL
USER_CHARGES


@<TRIPOS>ATOM
      1 C1          3.9008   53.6652   30.0221 C.3       1 UNK         0.0000 
      2 C2          3.5747   53.9803   28.5580 C.3       1 UNK         0.0000 
      3 H3          3.0941   54.9605   28.5434 H         1 UNK         0.0000 
      4 C4          2.6244   52.9076   27.9924 C.3       1 UNK         0.0000 
      5 C5          2.0953   53.2966   26.6029 C.3       1 UNK         0.0000 
      6 C6          3.2603   53.7374   25.7094 C.2       1 UNK         0.0000 
      7 C7          4.5119   54.0968   26.2400 C.2       1 UNK         0.0000 
      8 S8          5.6564   54.5000   24.9996 S.3       1 UNK         0.0000 
      9 C9          4.4939   54.1311   23.7688 C.2       1 UNK         0.0000 
     10 C10         3.2439   53.7730   24.3002 C.2       1 UNK         0.0000 
     11 C11         2.0504   53.4847   23.5154 C.1       1 UNK         0.0000 
     12 N12         1.1044   53.2540   22.8943 N.1       1 UNK         0.0000 
     13 N13         4.8996   54.2888   22.4522 N.am      1 UNK         0.0000 
     14 C14         4.7126   53.3665   21.4861 C.2       1 UNK         0.0000 
     15 O15         4.2386   52.2434   21.6800 O.2       1 UNK         0.0000 
     16 C16         5.0950   53.7929   20.1588 C.ar      1 UNK         0.0000 
     17 C17         6.1318   54.6859   19.7895 C.ar      1 UNK         0.0000 
     18 C18         6.1511   54.6565   18.4034 C.ar      1 UNK         0.0000 
     19 N19         5.1125   53.8302   18.0152 N.pl3     1 UNK         0.0000 
     20 N20         4.5166   53.2948   19.0873 N.2       1 UNK         0.0000 
     21 C21         4.8274   53.3553   16.6487 C.3       1 UNK         0.0000 
     22 H22         5.2662   52.3592   16.5640 H         1 UNK         0.0000 
     23 C23         5.5717   54.3066   15.6739 C.3       1 UNK         0.0000 
     24 C24         7.0091   54.6743   16.1171 C.3       1 UNK         0.0000 
     25 H25         7.3571   55.4607   15.4440 H         1 UNK         0.0000 
     26 N26         6.9569   55.2711   17.4597 N.pl3     1 UNK         0.0000 
     27 C27         7.9979   53.5105   15.9419 C.ar      1 UNK         0.0000 
     28 C28         8.8010   53.4775   14.7952 C.ar      1 UNK         0.0000 
     29 C29         9.7097   52.4397   14.5991 C.ar      1 UNK         0.0000 
     30 C30         9.8191   51.4291   15.5505 C.ar      1 UNK         0.0000 
     31 C31         9.0219   51.4449   16.6925 C.ar      1 UNK         0.0000 
     32 C32         8.1070   52.4769   16.8818 C.ar      1 UNK         0.0000 
     33 C33         3.3186   53.2026   16.3212 C.3       1 UNK         0.0000 
     34 F34         3.1444   52.8474   15.0476 F         1 UNK         0.0000 
     35 F35         2.7171   52.2773   17.0704 F         1 UNK         0.0000 
     36 F36         2.6605   54.3514   16.4937 F         1 UNK         0.0000 
     37 Cl37        7.2095   55.5858   20.7960 Cl        1 UNK         0.0000 
     38 C38         4.8774   54.0535   27.7211 C.3       1 UNK         0.0000 
     39 H39         4.4552   52.7301   30.1131 H         1 UNK         0.0000 
     40 H40         4.4901   54.4618   30.4810 H         1 UNK         0.0000 
     41 H41         2.9841   53.5512   30.5988 H         1 UNK         0.0000 
     42 H42         1.7714   52.7803   28.6608 H         1 UNK         0.0000 
     43 H43         3.1055   51.9290   27.9906 H         1 UNK         0.0000 
     44 H44         1.5535   52.4535   26.1737 H         1 UNK         0.0000 
     45 H45         1.3731   54.1028   26.6978 H         1 UNK         0.0000 
     46 H46         5.5446   55.0381   22.2487 H         1 UNK         0.0000 
     47 H47         5.5819   53.8720   14.6725 H         1 UNK         0.0000 
     48 H48         4.9900   55.2235   15.5557 H         1 UNK         0.0000 
     49 H49         7.8269   55.7025   17.7394 H         1 UNK         0.0000 
     50 H50         8.7271   54.2562   14.0501 H         1 UNK         0.0000 
     51 H51        10.3288   52.4181   13.7136 H         1 UNK         0.0000 
     52 H52        10.5262   50.6255   15.3994 H         1 UNK         0.0000 
     53 H53         9.1100   50.6563   17.4262 H         1 UNK         0.0000 
     54 H54         7.4815   52.4593   17.7601 H         1 UNK         0.0000 
     55 H55         5.4722   54.9222   28.0072 H         1 UNK         0.0000 
     56 H56         5.4890   53.1688   27.9058 H         1 UNK         0.0000 
@<TRIPOS>BOND
     1    1    2 1    
     2    1   39 1    
     3    1   40 1    
     4    1   41 1    
     5    2    3 1    
     6    2   38 1    
     7    2    4 1    
     8    4    5 1    
     9    4   42 1    
    10    4   43 1    
    11    5    6 1    
    12    5   44 1    
    13    5   45 1    
    14    6   10 1    
    15    6    7 2    
    16    7    8 1    
    17    7   38 1    
    18    8    9 1    
    19    9   10 2    
    20    9   13 am   BACKBONE|DICT|INTERRES
    21   10   11 1    
    22   11   12 3    
    23   13   14 am   BACKBONE|DICT|INTERRES
    24   13   46 1    
    25   14   15 2    
    26   14   16 1    
    27   16   20 ar   
    28   16   17 ar   
    29   17   18 ar   
    30   17   37 1    
    31   18   26 1    
    32   18   19 ar   
    33   19   20 ar   
    34   19   21 1    
    35   21   22 1    
    36   21   23 1    
    37   21   33 1    
    38   23   24 1    
    39   23   47 1    
    40   23   48 1    
    41   24   25 1    
    42   24   26 1    
    43   24   27 1    
    44   26   49 1    
    45   27   32 ar   
    46   27   28 ar   
    47   28   29 ar   
    48   28   50 1    
    49   29   30 ar   
    50   29   51 1    
    51   30   31 ar   
    52   30   52 1    
    53   31   32 ar   
    54   31   53 1    
    55   32   54 1    
    56   33   34 1    
    57   33   35 1    
    58   33   36 1    
    59   38   55 1    
    60   38   56 1    
@<TRIPOS>SUBSTRUCTURE
     1 UNK         1 GROUP             0       ****    0 ROOT    
