ZINC63581925_5723
                    3D
 Schrodinger Suite 2024-2.
 74 79  0  0  1  0            999 V2000
    5.6239   60.0624   14.0576 C   0  0  0  0  0  0
    6.5148   59.4340   15.1198 C   0  0  0  0  0  0
    7.8913   59.6574   15.0528 C   0  0  0  0  0  0
    8.7424   59.1114   16.0081 C   0  0  0  0  0  0
    8.2232   58.3290   17.0347 C   0  0  0  0  0  0
    6.8441   58.0757   17.1149 C   0  0  0  0  0  0
    5.9844   58.6391   16.1547 C   0  0  0  0  0  0
    4.4754   58.4058   16.2576 C   0  0  0  0  0  0
    6.2757   57.2910   18.1001 O   0  0  0  0  0  0
    7.1039   56.4416   18.8845 C   0  0  0  0  0  0
    6.2533   55.3014   19.4181 C   0  0  0  0  0  0
    6.0191   55.1962   20.7921 C   0  0  0  0  0  0
    5.3086   54.1092   21.3190 C   0  0  0  0  0  0
    4.7884   53.1592   20.4378 C   0  0  0  0  0  0
    4.9928   53.2783   19.0675 C   0  0  0  0  0  0
    5.7444   54.3361   18.5371 C   0  0  0  0  0  0
    6.0256   54.4720   17.1897 O   0  0  0  0  0  0
    5.5698   53.4802   16.2766 C   0  0  0  0  0  0
    5.1046   53.9214   22.8208 C   0  0  2  0  0  0
    5.2694   52.8593   22.9974 H   0  0  0  0  0  0
    3.6557   54.2950   23.2391 C   0  0  2  0  0  0
    3.4256   55.2981   22.9042 H   0  0  0  0  0  0
    3.4926   54.1483   24.7325 C   0  0  0  0  0  0
    2.4205   53.3876   24.9805 C   0  0  0  0  0  0
    1.8705   52.9226   26.2467 C   0  0  0  0  0  0
    0.7925   52.1012   26.3077 C   0  0  0  0  0  0
    0.2229   51.7106   25.0186 C   0  0  0  0  0  0
    0.7254   52.1301   23.8227 C   0  0  0  0  0  0
    1.8507   52.9649   23.7836 C   0  0  0  0  0  0
    2.5363   53.4434   22.7630 N   0  3  0  0  0  0
    0.2874   51.5514   27.4558 O   0  0  0  0  0  0
    0.1045   52.3422   28.6470 C   0  0  0  0  0  0
    1.3936   52.9237   29.2213 C   0  0  0  0  0  0
    2.5019   52.0980   29.4269 C   0  0  0  0  0  0
    3.7421   52.6602   29.7223 C   0  0  0  0  0  0
    3.8657   54.0459   29.8120 C   0  0  0  0  0  0
    2.7508   54.8699   29.6685 C   0  0  0  0  0  0
    1.5120   54.3088   29.3835 C   0  0  0  0  0  0
    4.5658   54.7459   25.6290 C   0  0  0  0  0  0
    5.9514   54.3531   25.0744 C   0  0  0  0  0  0
    6.0803   54.6481   23.6477 N   0  0  0  0  0  0
    5.0750   60.9053   14.4819 H   0  0  0  0  0  0
    6.1909   60.4096   13.1919 H   0  0  0  0  0  0
    4.8936   59.3427   13.6891 H   0  0  0  0  0  0
    8.3068   60.2691   14.2631 H   0  0  0  0  0  0
    9.8061   59.2960   15.9525 H   0  0  0  0  0  0
    8.9097   57.9321   17.7655 H   0  0  0  0  0  0
    4.1687   57.5895   15.6046 H   0  0  0  0  0  0
    4.1614   58.1785   17.2767 H   0  0  0  0  0  0
    3.9152   59.2966   15.9772 H   0  0  0  0  0  0
    7.9143   55.9944   18.3050 H   0  0  0  0  0  0
    7.5617   57.0157   19.6906 H   0  0  0  0  0  0
    6.4142   55.9539   21.4540 H   0  0  0  0  0  0
    4.2411   52.3048   20.8077 H   0  0  0  0  0  0
    4.5885   52.5025   18.4318 H   0  0  0  0  0  0
    5.9710   52.4958   16.5209 H   0  0  0  0  0  0
    4.4811   53.4305   16.2488 H   0  0  0  0  0  0
    5.9144   53.7312   15.2721 H   0  0  0  0  0  0
    2.4034   53.2091   27.1234 H   0  0  0  0  0  0
   -0.6416   51.0585   25.0255 H   0  0  0  0  0  0
    0.2457   51.7987   22.9112 H   0  0  0  0  0  0
   -0.6092   53.1358   28.4294 H   0  0  0  0  0  0
   -0.3612   51.7156   29.4076 H   0  0  0  0  0  0
    2.4103   51.0297   29.2759 H   0  0  0  0  0  0
    4.6096   52.0294   29.8386 H   0  0  0  0  0  0
    4.8303   54.4947   30.0031 H   0  0  0  0  0  0
    2.8505   55.9465   29.7185 H   0  0  0  0  0  0
    0.6739   54.9627   29.2085 H   0  0  0  0  0  0
    4.4852   55.8289   25.6816 H   0  0  0  0  0  0
    4.4754   54.3984   26.6562 H   0  0  0  0  0  0
    6.7467   54.8646   25.6177 H   0  0  0  0  0  0
    6.1357   53.2971   25.2550 H   0  0  0  0  0  0
    7.0144   54.4541   23.3088 H   0  0  0  0  0  0
    2.3251   53.2902   21.7801 H   0  0  0  0  0  0
  1  2  1  0  0  0
  1 42  1  0  0  0
  1 43  1  0  0  0
  1 44  1  0  0  0
  2  7  2  0  0  0
  2  3  1  0  0  0
  3  4  2  0  0  0
  3 45  1  0  0  0
  4  5  1  0  0  0
  4 46  1  0  0  0
  5  6  2  0  0  0
  5 47  1  0  0  0
  6  7  1  0  0  0
  6  9  1  0  0  0
  7  8  1  0  0  0
  8 48  1  0  0  0
  8 49  1  0  0  0
  8 50  1  0  0  0
  9 10  1  0  0  0
 10 11  1  0  0  0
 10 51  1  0  0  0
 10 52  1  0  0  0
 11 16  2  0  0  0
 11 12  1  0  0  0
 12 13  2  0  0  0
 12 53  1  0  0  0
 13 14  1  0  0  0
 13 19  1  0  0  0
 14 15  2  0  0  0
 14 54  1  0  0  0
 15 16  1  0  0  0
 15 55  1  0  0  0
 16 17  1  0  0  0
 17 18  1  0  0  0
 18 56  1  0  0  0
 18 57  1  0  0  0
 18 58  1  0  0  0
 19 20  1  0  0  0
 19 41  1  0  0  0
 19 21  1  0  0  0
 21 22  1  0  0  0
 21 30  1  0  0  0
 21 23  1  0  0  0
 23 24  2  0  0  0
 23 39  1  0  0  0
 24 29  1  0  0  0
 24 25  1  0  0  0
 25 26  2  0  0  0
 25 59  1  0  0  0
 26 27  1  0  0  0
 26 31  1  0  0  0
 27 28  2  0  0  0
 27 60  1  0  0  0
 28 29  1  0  0  0
 28 61  1  0  0  0
 29 30  2  0  0  0
 30 74  1  0  0  0
 31 32  1  0  0  0
 32 33  1  0  0  0
 32 62  1  0  0  0
 32 63  1  0  0  0
 33 38  2  0  0  0
 33 34  1  0  0  0
 34 35  2  0  0  0
 34 64  1  0  0  0
 35 36  1  0  0  0
 35 65  1  0  0  0
 36 37  2  0  0  0
 36 66  1  0  0  0
 37 38  1  0  0  0
 37 67  1  0  0  0
 38 68  1  0  0  0
 39 40  1  0  0  0
 39 69  1  0  0  0
 39 70  1  0  0  0
 40 41  1  0  0  0
 40 71  1  0  0  0
 40 72  1  0  0  0
 41 73  1  0  0  0
M  CHG  1  30   1
M  END
> <i_i_glide_confnum>
208

> <i_i_glide_lignum>
5724

> <i_i_glide_posenum>
66

> <i_i_glide_rotatable_bonds>
8

> <i_m_Source_File_Index>
427

> <b_m_subgroup_collapsed>
0

> <r_i_docking_score>
-4.98199

> <r_i_glide_ecoul>
-0.488035

> <r_i_glide_eff_state_penalty>
0

> <r_i_glide_einternal>
4.45383

> <r_i_glide_emodel>
-60.04

> <r_i_glide_energy>
-45.6321

> <r_i_glide_erotb>
0.532601

> <r_i_glide_esite>
0

> <r_i_glide_evdw>
-45.144

> <r_i_glide_gscore>
-4.98199

> <r_i_glide_hbond>
0

> <r_i_glide_ligand_efficiency>
-0.127743

> <r_i_glide_ligand_efficiency_ln>
-1.06828

> <r_i_glide_ligand_efficiency_sa>
-0.433204

> <r_i_glide_lipo>
-3.18418

> <r_i_glide_metal>
0

> <r_i_glide_rewards>
0

> <s_i_glide_gridfile>
wee1_glide-grid

> <s_m_Source_File>
wee1_decoys_glide_SP.sdf

> <s_m_Source_Path>
/Users/zhangxujun/Desktop

> <s_m_entry_id>
702

> <s_m_entry_name>
wee1_decoys_glide_SP.427

> <s_m_subgroup_title>
wee1_decoys_glide_SP

> <s_m_subgroupid>
wee1_decoys_glide_SP


$$$$
