ZINC12706206_3113
                    3D
 Schrodinger Suite 2024-2.
 62 65  0  0  1  0            999 V2000
    1.9275   52.5012   31.2048 C   0  0  0  0  0  0
    1.7583   52.6788   29.7067 C   0  0  0  0  0  0
    1.6699   51.5624   28.8802 C   0  0  0  0  0  0
    1.5041   51.7108   27.5116 C   0  0  0  0  0  0
    1.4230   52.9798   26.9334 C   0  0  0  0  0  0
    1.5043   54.0968   27.7754 C   0  0  0  0  0  0
    1.6667   53.9544   29.1521 C   0  0  0  0  0  0
    1.2521   53.1688   25.4232 C   0  0  1  0  0  0
    0.7044   54.0927   25.2756 H   0  0  0  0  0  0
    2.5793   53.6090   24.7341 C   0  0  0  0  0  0
    3.6243   53.6969   25.3815 O   0  0  0  0  0  0
    2.5036   53.9301   23.4331 N   0  0  0  0  0  0
    3.6224   54.4595   22.6524 C   0  0  0  0  0  0
    4.3134   53.4276   21.7345 C   0  0  2  0  0  0
    4.8675   52.7143   22.3490 H   0  0  0  0  0  0
    5.1192   54.0362   20.5828 C   0  0  0  0  0  0
    5.0412   53.0180   19.4645 C   0  0  0  0  0  0
    3.8925   52.0966   19.8720 C   0  0  0  0  0  0
    3.3102   52.7072   21.0207 O   0  0  0  0  0  0
    0.3598   52.1061   24.8143 N   0  0  0  0  0  0
   -1.0017   52.1190   25.2263 C   0  0  0  0  0  0
   -1.9098   52.8963   24.4979 C   0  0  0  0  0  0
   -3.2584   52.8969   24.8445 C   0  0  0  0  0  0
   -3.6978   52.1367   25.9253 C   0  0  0  0  0  0
   -2.8024   51.3599   26.6558 C   0  0  0  0  0  0
   -1.4557   51.3472   26.3069 C   0  0  0  0  0  0
   -5.0048   52.1555   26.2684 F   0  0  0  0  0  0
    0.7760   51.1228   23.9358 C   0  0  0  0  0  0
    1.9044   51.0380   23.4592 O   0  0  0  0  0  0
   -0.1547   50.0638   23.6051 C   0  0  0  0  0  0
   -0.4399   48.9108   24.3210 C   0  0  0  0  0  0
   -1.5888   48.2653   23.8258 C   0  0  0  0  0  0
   -2.1400   48.7878   22.7442 N   0  0  0  0  0  0
   -1.2972   50.2178   22.3138 S   0  0  0  0  0  0
   -2.2028   47.0751   24.3707 C   0  0  0  0  0  0
   -2.4964   46.0970   23.6845 O   0  0  0  0  0  0
   -2.4603   47.1236   25.6818 N   0  0  0  0  0  0
    0.3055   48.4970   25.3876 N   0  0  0  0  0  0
    1.4127   53.2970   31.7420 H   0  0  0  0  0  0
    1.4819   51.5771   31.5598 H   0  0  0  0  0  0
    2.9823   52.4979   31.4792 H   0  0  0  0  0  0
    1.7267   50.5665   29.2814 H   0  0  0  0  0  0
    1.4463   50.8242   26.9010 H   0  0  0  0  0  0
    1.4355   55.0876   27.3649 H   0  0  0  0  0  0
    1.7228   54.8331   29.7785 H   0  0  0  0  0  0
    1.6335   53.7951   22.9395 H   0  0  0  0  0  0
    4.3840   54.8960   23.3010 H   0  0  0  0  0  0
    3.2390   55.2936   22.0692 H   0  0  0  0  0  0
    6.1309   54.3158   20.8842 H   0  0  0  0  0  0
    4.6590   54.9693   20.2544 H   0  0  0  0  0  0
    5.9690   52.4559   19.3636 H   0  0  0  0  0  0
    4.8460   53.4964   18.5027 H   0  0  0  0  0  0
    4.2427   51.0963   20.1320 H   0  0  0  0  0  0
    3.1473   51.9760   19.0854 H   0  0  0  0  0  0
   -1.5745   53.4897   23.6604 H   0  0  0  0  0  0
   -3.9630   53.4934   24.2856 H   0  0  0  0  0  0
   -3.1470   50.7581   27.4856 H   0  0  0  0  0  0
   -0.7922   50.7048   26.8649 H   0  0  0  0  0  0
   -2.0963   47.8728   26.2622 H   0  0  0  0  0  0
   -2.9430   46.3642   26.1350 H   0  0  0  0  0  0
    0.1121   47.6458   25.9148 H   0  0  0  0  0  0
    1.2267   48.8778   25.5487 H   0  0  0  0  0  0
  1  2  1  0  0  0
  1 39  1  0  0  0
  1 40  1  0  0  0
  1 41  1  0  0  0
  2  7  2  0  0  0
  2  3  1  0  0  0
  3  4  2  0  0  0
  3 42  1  0  0  0
  4  5  1  0  0  0
  4 43  1  0  0  0
  5  6  2  0  0  0
  5  8  1  0  0  0
  6  7  1  0  0  0
  6 44  1  0  0  0
  7 45  1  0  0  0
  8  9  1  0  0  0
  8 10  1  0  0  0
  8 20  1  0  0  0
 10 11  2  0  0  0
 10 12  1  0  0  0
 12 13  1  0  0  0
 12 46  1  0  0  0
 13 14  1  0  0  0
 13 47  1  0  0  0
 13 48  1  0  0  0
 14 15  1  0  0  0
 14 19  1  0  0  0
 14 16  1  0  0  0
 16 17  1  0  0  0
 16 49  1  0  0  0
 16 50  1  0  0  0
 17 18  1  0  0  0
 17 51  1  0  0  0
 17 52  1  0  0  0
 18 19  1  0  0  0
 18 53  1  0  0  0
 18 54  1  0  0  0
 20 21  1  0  0  0
 20 28  1  0  0  0
 21 26  2  0  0  0
 21 22  1  0  0  0
 22 23  2  0  0  0
 22 55  1  0  0  0
 23 24  1  0  0  0
 23 56  1  0  0  0
 24 25  2  0  0  0
 24 27  1  0  0  0
 25 26  1  0  0  0
 25 57  1  0  0  0
 26 58  1  0  0  0
 28 29  2  0  0  0
 28 30  1  0  0  0
 30 34  1  0  0  0
 30 31  2  0  0  0
 31 32  1  0  0  0
 31 38  1  0  0  0
 32 33  2  0  0  0
 32 35  1  0  0  0
 33 34  1  0  0  0
 35 36  2  0  0  0
 35 37  1  0  0  0
 37 59  1  0  0  0
 37 60  1  0  0  0
 38 61  1  0  0  0
 38 62  1  0  0  0
M  END
> <i_i_glide_confnum>
366

> <i_i_glide_lignum>
3114

> <i_i_glide_posenum>
381

> <i_i_glide_rotatable_bonds>
10

> <i_m_Source_File_Index>
4460

> <b_m_subgroup_collapsed>
0

> <r_i_docking_score>
-2.6589

> <r_i_glide_ecoul>
-5.21582

> <r_i_glide_eff_state_penalty>
0

> <r_i_glide_einternal>
13.6423

> <r_i_glide_emodel>
-38.3473

> <r_i_glide_energy>
-43.4395

> <r_i_glide_erotb>
0.626478

> <r_i_glide_esite>
-0.212907

> <r_i_glide_evdw>
-38.2237

> <r_i_glide_gscore>
-2.6589

> <r_i_glide_hbond>
-0.364712

> <r_i_glide_ligand_efficiency>
-0.0738584

> <r_i_glide_ligand_efficiency_ln>
-0.5801

> <r_i_glide_ligand_efficiency_sa>
-0.243875

> <r_i_glide_lipo>
-1.5673

> <r_i_glide_metal>
0

> <r_i_glide_rewards>
1.5531

> <s_i_glide_gridfile>
wee1_glide-grid

> <s_m_Source_File>
wee1_decoys_glide_SP.sdf

> <s_m_Source_Path>
/Users/zhangxujun/Desktop

> <s_m_entry_id>
4735

> <s_m_entry_name>
wee1_decoys_glide_SP.4460

> <s_m_subgroup_title>
wee1_decoys_glide_SP

> <s_m_subgroupid>
wee1_decoys_glide_SP


$$$$
