@<TRIPOS>MOLECULE
ZINC65301190_5372
72   76    1
SMALL
USER_CHARGES


@<TRIPOS>ATOM
      1 C1          0.7643   45.7219   17.4412 C.3       1 UNK         0.0000 
      2 C2          0.8149   46.9038   18.3980 C.ar      1 UNK         0.0000 
      3 C3          1.9045   47.7757   18.3398 C.ar      1 UNK         0.0000 
      4 C4          1.9926   48.8642   19.2039 C.ar      1 UNK         0.0000 
      5 C5          0.9810   49.1118   20.1313 C.ar      1 UNK         0.0000 
      6 C6         -0.1151   48.2353   20.1963 C.ar      1 UNK         0.0000 
      7 C7         -0.2049   47.1349   19.3361 C.ar      1 UNK         0.0000 
      8 C8         -1.4094   46.2098   19.4402 C.3       1 UNK         0.0000 
      9 N9          1.1609   50.2103   20.9903 N.am      1 UNK         0.0000 
     10 C10         0.2219   50.9065   21.6692 C.2       1 UNK         0.0000 
     11 O11        -0.9925   50.7436   21.5388 O.2       1 UNK         0.0000 
     12 C12         0.7141   51.9914   22.6519 C.3       1 UNK         0.0000 
     13 C13         1.7357   51.3879   23.6363 C.3       1 UNK         0.0000 
     14 C14         2.1380   52.5037   24.6167 C.3       1 UNK         0.0000 
     15 N15         2.8543   53.6101   23.9552 N.pl3     1 UNK         0.0000 
     16 C16         2.0225   54.1836   22.8784 C.3       1 UNK         0.0000 
     17 C17         1.4282   53.1296   21.8969 C.3       1 UNK         0.0000 
     18 C18         4.1929   53.9323   24.2363 C.ar      1 UNK         0.0000 
     19 C19         5.2250   53.9742   23.2448 C.ar      1 UNK         0.0000 
     20 C20         6.5502   54.2027   23.6160 C.ar      1 UNK         0.0000 
     21 N21         6.8819   54.3815   24.8921 N.pl3     1 UNK         0.0000 
     22 C22         5.9700   54.3560   25.8773 C.ar      1 UNK         0.0000 
     23 C23         4.5875   54.1528   25.6029 C.ar      1 UNK         0.0000 
     24 C24         3.8973   54.2420   26.8718 C.2       1 UNK         0.0000 
     25 N25         4.6330   54.4032   27.9442 N.2       1 UNK         0.0000 
     26 S26         6.3032   54.4958   27.5834 S.3       1 UNK         0.0000 
     27 C27         2.4169   54.1722   27.1801 C.3       1 UNK         0.0000 
     28 C28         4.9988   53.6027   21.8001 C.2       1 UNK         0.0000 
     29 O29         4.6009   52.4599   21.5708 O.2       1 UNK         0.0000 
     30 N30         5.2405   54.5199   20.8160 N.am      1 UNK         0.0000 
     31 C31         4.9150   54.1877   19.4133 C.3       1 UNK         0.0000 
     32 C32         6.2420   53.9349   18.6711 C.3       1 UNK         0.0000 
     33 C33         7.1988   55.1442   18.7635 C.3       1 UNK         0.0000 
     34 C34         7.3858   55.5753   20.2366 C.3       1 UNK         0.0000 
     35 C35         6.0384   55.7605   20.9749 C.3       1 UNK         0.0000 
     36 C36         8.5395   54.8997   18.0489 C.3       1 UNK         0.0000 
     37 H37         1.6537   45.6626   16.8116 H         1 UNK         0.0000 
     38 H38         0.6837   44.7884   17.9961 H         1 UNK         0.0000 
     39 H39        -0.1084   45.7992   16.7930 H         1 UNK         0.0000 
     40 H40         2.7008   47.6190   17.6251 H         1 UNK         0.0000 
     41 H41         2.8548   49.5138   19.1324 H         1 UNK         0.0000 
     42 H42        -0.8946   48.3898   20.9274 H         1 UNK         0.0000 
     43 H43        -2.1321   46.5502   20.1827 H         1 UNK         0.0000 
     44 H44        -1.0933   45.2004   19.7062 H         1 UNK         0.0000 
     45 H45        -1.9238   46.1530   18.4805 H         1 UNK         0.0000 
     46 H46         2.1110   50.5399   21.0676 H         1 UNK         0.0000 
     47 H47        -0.1635   52.3351   23.2040 H         1 UNK         0.0000 
     48 H48         1.2917   50.5920   24.2374 H         1 UNK         0.0000 
     49 H49         2.6472   51.0502   23.1405 H         1 UNK         0.0000 
     50 H50         1.2242   52.9096   25.0504 H         1 UNK         0.0000 
     51 H51         2.7038   52.0968   25.4469 H         1 UNK         0.0000 
     52 H52         1.2153   54.7585   23.3372 H         1 UNK         0.0000 
     53 H53         2.6151   54.8970   22.3080 H         1 UNK         0.0000 
     54 H54         2.2370   52.7832   21.2583 H         1 UNK         0.0000 
     55 H55         0.7049   53.6591   21.2827 H         1 UNK         0.0000 
     56 H56         7.3911   54.1929   22.9343 H         1 UNK         0.0000 
     57 H57         2.1075   53.1646   27.4478 H         1 UNK         0.0000 
     58 H58         2.1347   54.8164   28.0115 H         1 UNK         0.0000 
     59 H59         1.8023   54.4967   26.3518 H         1 UNK         0.0000 
     60 H60         4.1868   53.3805   19.3170 H         1 UNK         0.0000 
     61 H61         4.4117   55.0553   18.9850 H         1 UNK         0.0000 
     62 H62         6.7041   53.0318   19.0640 H         1 UNK         0.0000 
     63 H63         6.0454   53.6955   17.6246 H         1 UNK         0.0000 
     64 H64         6.6866   55.9713   18.2668 H         1 UNK         0.0000 
     65 H65         7.9717   56.4956   20.2765 H         1 UNK         0.0000 
     66 H66         8.0003   54.8553   20.7712 H         1 UNK         0.0000 
     67 H67         5.5042   56.5690   20.4801 H         1 UNK         0.0000 
     68 H68         6.1556   56.0962   22.0036 H         1 UNK         0.0000 
     69 H69         9.0990   54.0892   18.5157 H         1 UNK         0.0000 
     70 H70         8.3856   54.6334   17.0036 H         1 UNK         0.0000 
     71 H71         9.1692   55.7900   18.0698 H         1 UNK         0.0000 
     72 H72         7.8632   54.4962   25.1002 H         1 UNK         0.0000 
@<TRIPOS>BOND
     1    1    2 1    
     2    1   37 1    
     3    1   38 1    
     4    1   39 1    
     5    2    7 ar   
     6    2    3 ar   
     7    3    4 ar   
     8    3   40 1    
     9    4    5 ar   
    10    4   41 1    
    11    5    6 ar   
    12    5    9 1    
    13    6    7 ar   
    14    6   42 1    
    15    7    8 1    
    16    8   43 1    
    17    8   44 1    
    18    8   45 1    
    19    9   10 am   BACKBONE|DICT|INTERRES
    20    9   46 1    
    21   10   11 2    
    22   10   12 1    
    23   12   17 1    
    24   12   13 1    
    25   12   47 1    
    26   13   14 1    
    27   13   48 1    
    28   13   49 1    
    29   14   15 1    
    30   14   50 1    
    31   14   51 1    
    32   15   16 1    
    33   15   18 1    
    34   16   17 1    
    35   16   52 1    
    36   16   53 1    
    37   17   54 1    
    38   17   55 1    
    39   18   23 ar   
    40   18   19 ar   
    41   19   20 ar   
    42   19   28 1    
    43   20   21 ar   
    44   20   56 1    
    45   21   22 ar   
    46   21   72 1    
    47   22   26 1    
    48   22   23 ar   
    49   23   24 1    
    50   24   25 2    
    51   24   27 1    
    52   25   26 1    
    53   27   57 1    
    54   27   58 1    
    55   27   59 1    
    56   28   29 2    
    57   28   30 am   BACKBONE|DICT|INTERRES
    58   30   35 1    
    59   30   31 1    
    60   31   32 1    
    61   31   60 1    
    62   31   61 1    
    63   32   33 1    
    64   32   62 1    
    65   32   63 1    
    66   33   34 1    
    67   33   36 1    
    68   33   64 1    
    69   34   35 1    
    70   34   65 1    
    71   34   66 1    
    72   35   67 1    
    73   35   68 1    
    74   36   69 1    
    75   36   70 1    
    76   36   71 1    
@<TRIPOS>SUBSTRUCTURE
     1 UNK         1 GROUP             0       ****    0 ROOT    
