ZINC33723599_977
                    3D
 Schrodinger Suite 2024-2.
 55 60  0  0  1  0            999 V2000
    0.3427   49.8065   19.1391 C   0  0  0  0  0  0
    1.7189   49.9015   19.4840 O   0  0  0  0  0  0
    2.1390   50.9285   20.3062 C   0  0  0  0  0  0
    3.5034   50.9950   20.5728 C   0  0  0  0  0  0
    4.0232   51.9760   21.4137 C   0  0  0  0  0  0
    3.1789   52.9392   21.9803 C   0  0  0  0  0  0
    1.8167   52.8965   21.6716 C   0  0  0  0  0  0
    1.2918   51.8931   20.8641 C   0  0  0  0  0  0
    3.7230   54.1230   22.8150 C   0  0  1  0  0  0
    3.1147   54.9816   22.5262 H   0  0  0  0  0  0
    3.6806   53.9652   24.3263 C   0  0  0  0  0  0
    2.4180   53.6958   25.0665 C   0  0  0  0  0  0
    2.3063   53.6968   26.5643 C   0  0  0  0  0  0
    3.0008   54.6271   27.3493 C   0  0  0  0  0  0
    2.7396   54.7770   28.7068 C   0  0  0  0  0  0
    1.7492   54.0027   29.2920 C   0  0  0  0  0  0
    1.0566   53.0420   28.5441 C   0  0  0  0  0  0
    1.3298   52.8957   27.1858 C   0  0  0  0  0  0
    0.0211   52.3052   29.0853 O   0  0  0  0  0  0
   -0.0185   52.3200   30.5185 C   0  0  0  0  0  0
    0.2297   53.7438   31.0609 C   0  0  0  0  0  0
    1.5045   54.2020   30.6281 O   0  0  0  0  0  0
    1.4019   53.4168   24.4346 O   0  0  0  0  0  0
    4.9506   54.0967   24.7484 C   0  0  0  0  0  0
    5.4637   53.9806   25.9252 O   0  5  0  0  0  0
    5.8791   54.3486   23.6664 C   0  0  0  0  0  0
    7.1044   54.4217   23.7428 O   0  0  0  0  0  0
    5.1244   54.4940   22.5457 N   0  0  0  0  0  0
    5.5828   54.9050   21.2803 C   0  0  0  0  0  0
    4.8662   54.7851   20.1949 N   0  0  0  0  0  0
    5.5001   55.2792   19.1015 C   0  0  0  0  0  0
    4.9697   55.2767   17.8043 C   0  0  0  0  0  0
    5.7368   55.8263   16.7738 C   0  0  0  0  0  0
    7.0013   56.3650   17.0160 C   0  0  0  0  0  0
    7.5469   56.3802   18.2995 C   0  0  0  0  0  0
    6.7836   55.8343   19.3412 C   0  0  0  0  0  0
    7.1483   55.6966   21.0500 S   0  0  0  0  0  0
    7.7127   56.8810   15.9889 F   0  0  0  0  0  0
    0.1961   48.9521   18.4788 H   0  0  0  0  0  0
   -0.2814   49.6541   20.0210 H   0  0  0  0  0  0
    0.0023   50.6964   18.6073 H   0  0  0  0  0  0
    4.1621   50.2917   20.0904 H   0  0  0  0  0  0
    5.0880   52.0031   21.5923 H   0  0  0  0  0  0
    1.1523   53.6644   22.0372 H   0  0  0  0  0  0
    0.2322   51.8961   20.6629 H   0  0  0  0  0  0
    3.7117   55.2975   26.9032 H   0  0  0  0  0  0
    3.2744   55.5155   29.2845 H   0  0  0  0  0  0
    0.7421   52.1917   26.6126 H   0  0  0  0  0  0
   -0.9615   51.9099   30.8773 H   0  0  0  0  0  0
    0.7867   51.6968   30.9020 H   0  0  0  0  0  0
   -0.4960   54.4385   30.6514 H   0  0  0  0  0  0
    0.1617   53.7720   32.1490 H   0  0  0  0  0  0
    3.9939   54.8564   17.6094 H   0  0  0  0  0  0
    5.3478   55.8349   15.7659 H   0  0  0  0  0  0
    8.5270   56.7983   18.4755 H   0  0  0  0  0  0
  1  2  1  0  0  0
  1 39  1  0  0  0
  1 40  1  0  0  0
  1 41  1  0  0  0
  2  3  1  0  0  0
  3  8  2  0  0  0
  3  4  1  0  0  0
  4  5  2  0  0  0
  4 42  1  0  0  0
  5  6  1  0  0  0
  5 43  1  0  0  0
  6  7  2  0  0  0
  6  9  1  0  0  0
  7  8  1  0  0  0
  7 44  1  0  0  0
  8 45  1  0  0  0
  9 11  1  0  0  0
  9 28  1  0  0  0
  9 10  1  0  0  0
 11 24  2  0  0  0
 11 12  1  0  0  0
 12 23  2  0  0  0
 12 13  1  0  0  0
 13 18  2  0  0  0
 13 14  1  0  0  0
 14 15  2  0  0  0
 14 46  1  0  0  0
 15 16  1  0  0  0
 15 47  1  0  0  0
 16 22  1  0  0  0
 16 17  2  0  0  0
 17 18  1  0  0  0
 17 19  1  0  0  0
 18 48  1  0  0  0
 19 20  1  0  0  0
 20 21  1  0  0  0
 20 49  1  0  0  0
 20 50  1  0  0  0
 21 22  1  0  0  0
 21 51  1  0  0  0
 21 52  1  0  0  0
 24 26  1  0  0  0
 24 25  1  0  0  0
 26 28  1  0  0  0
 26 27  2  0  0  0
 28 29  1  0  0  0
 29 37  1  0  0  0
 29 30  2  0  0  0
 30 31  1  0  0  0
 31 36  2  0  0  0
 31 32  1  0  0  0
 32 33  2  0  0  0
 32 53  1  0  0  0
 33 34  1  0  0  0
 33 54  1  0  0  0
 34 35  2  0  0  0
 34 38  1  0  0  0
 35 36  1  0  0  0
 35 55  1  0  0  0
 36 37  1  0  0  0
M  CHG  1  25  -1
M  END
> <i_i_glide_confnum>
80

> <i_i_glide_lignum>
978

> <i_i_glide_posenum>
128

> <i_i_glide_rotatable_bonds>
5

> <i_m_Source_File_Index>
1012

> <b_m_subgroup_collapsed>
0

> <r_i_docking_score>
-5.49139

> <r_i_glide_ecoul>
0.638528

> <r_i_glide_eff_state_penalty>
0

> <r_i_glide_einternal>
2.8243

> <r_i_glide_emodel>
-59.5865

> <r_i_glide_energy>
-44.2715

> <r_i_glide_erotb>
0.306669

> <r_i_glide_esite>
0

> <r_i_glide_evdw>
-44.9101

> <r_i_glide_gscore>
-5.49139

> <r_i_glide_hbond>
-0.168255

> <r_i_glide_ligand_efficiency>
-0.148416

> <r_i_glide_ligand_efficiency_ln>
-1.19095

> <r_i_glide_ligand_efficiency_sa>
-0.494555

> <r_i_glide_lipo>
-2.55492

> <r_i_glide_metal>
0

> <r_i_glide_rewards>
-0.925164

> <s_i_glide_gridfile>
wee1_glide-grid

> <s_m_Source_File>
wee1_decoys_glide_SP.sdf

> <s_m_Source_Path>
/Users/zhangxujun/Desktop

> <s_m_entry_id>
1287

> <s_m_entry_name>
wee1_decoys_glide_SP.1012

> <s_m_subgroup_title>
wee1_decoys_glide_SP

> <s_m_subgroupid>
wee1_decoys_glide_SP


$$$$
