@<TRIPOS>MOLECULE
ZINC04730281_1477
43   45    1
SMALL
USER_CHARGES


@<TRIPOS>ATOM
      1 C1          4.4691   54.5012   24.4621 C.3       1 UNK         0.0000 
      2 N2          3.2256   54.2200   25.1737 N.3       1 UNK         0.0000 
      3 C3          3.5102   53.8846   26.5708 C.3       1 UNK         0.0000 
      4 C4          2.2941   53.3878   27.3336 C.2       1 UNK         0.0000 
      5 C5          1.1885   52.8969   26.7285 C.2       1 UNK         0.0000 
      6 C6          1.1240   52.8400   25.1911 C.3       1 UNK         0.0000 
      7 H7          0.4515   53.6364   24.8715 H         1 UNK         0.0000 
      8 C8          2.4985   53.1302   24.5219 C.3       1 UNK         0.0000 
      9 C9          0.5038   51.4604   24.8250 C.3       1 UNK         0.0000 
     10 H10         1.1045   50.7151   25.3513 H         1 UNK         0.0000 
     11 C11        -0.9433   51.3206   25.4024 C.3       1 UNK         0.0000 
     12 C12        -0.9602   51.7006   26.9028 C.2       1 UNK         0.0000 
     13 C13         0.0351   52.4117   27.4904 C.2       1 UNK         0.0000 
     14 C14        -0.0502   52.7229   28.8875 C.1       1 UNK         0.0000 
     15 N15        -0.0949   53.0062   30.0085 N.1       1 UNK         0.0000 
     16 N16        -2.0799   51.2965   27.5951 N.pl3     1 UNK         0.0000 
     17 C17        -1.4004   49.9300   25.1951 C.1       1 UNK         0.0000 
     18 N18        -1.7590   48.8429   25.0223 N.1       1 UNK         0.0000 
     19 C19        -1.8829   52.2036   24.6842 C.1       1 UNK         0.0000 
     20 N20        -2.6176   52.8967   24.1172 N.1       1 UNK         0.0000 
     21 C21         0.6457   51.0645   23.3445 C.ar      1 UNK         0.0000 
     22 C22         1.1996   49.8245   23.0122 C.ar      1 UNK         0.0000 
     23 C23         1.3719   49.4633   21.6806 C.ar      1 UNK         0.0000 
     24 C24         0.9838   50.3318   20.6521 C.ar      1 UNK         0.0000 
     25 C25         0.4291   51.5750   20.9886 C.ar      1 UNK         0.0000 
     26 C26         0.2562   51.9344   22.3232 C.ar      1 UNK         0.0000 
     27 N27         1.1489   49.9335   19.2320 N.pl3     1 UNK         0.0000 
     28 O28         0.8656   50.7502   18.3606 O.co2     1 UNK         0.0000 
     29 O29         1.5343   48.7934   18.9868 O.co2     1 UNK         0.0000 
     30 H30         5.0047   55.3273   24.9313 H         1 UNK         0.0000 
     31 H31         4.2642   54.7896   23.4302 H         1 UNK         0.0000 
     32 H32         5.1337   53.6354   24.4449 H         1 UNK         0.0000 
     33 H33         4.2886   53.1258   26.6772 H         1 UNK         0.0000 
     34 H34         3.8653   54.7812   27.0815 H         1 UNK         0.0000 
     35 H35         2.3441   53.4088   28.4125 H         1 UNK         0.0000 
     36 H36         2.3337   53.3905   23.4752 H         1 UNK         0.0000 
     37 H37         3.1039   52.2335   24.5144 H         1 UNK         0.0000 
     38 H38        -2.7125   50.6175   27.1943 H         1 UNK         0.0000 
     39 H39        -2.1100   51.3775   28.6025 H         1 UNK         0.0000 
     40 H40         1.5049   49.1338   23.7849 H         1 UNK         0.0000 
     41 H41         1.8124   48.5029   21.4533 H         1 UNK         0.0000 
     42 H42         0.1305   52.2704   20.2167 H         1 UNK         0.0000 
     43 H43        -0.1692   52.8963   22.5623 H         1 UNK         0.0000 
@<TRIPOS>BOND
     1    1    2 1    
     2    1   30 1    
     3    1   31 1    
     4    1   32 1    
     5    2    8 1    
     6    2    3 1    
     7    3    4 1    
     8    3   33 1    
     9    3   34 1    
    10    4    5 2    
    11    4   35 1    
    12    5   13 1    
    13    5    6 1    
    14    6    7 1    
    15    6    8 1    
    16    6    9 1    
    17    8   36 1    
    18    8   37 1    
    19    9   10 1    
    20    9   11 1    
    21    9   21 1    
    22   11   12 1    
    23   11   17 1    
    24   11   19 1    
    25   12   13 2    
    26   12   16 1    
    27   13   14 1    
    28   14   15 3    
    29   16   38 1    
    30   16   39 1    
    31   17   18 3    
    32   19   20 3    
    33   21   26 ar   
    34   21   22 ar   
    35   22   23 ar   
    36   22   40 1    
    37   23   24 ar   
    38   23   41 1    
    39   24   25 ar   
    40   24   27 1    
    41   25   26 ar   
    42   25   42 1    
    43   26   43 1    
    44   27   28 2    
    45   27   29 1    
@<TRIPOS>SUBSTRUCTURE
     1 UNK         1 GROUP             0       ****    0 ROOT    
