@<TRIPOS>MOLECULE
ZINC40415836_185
60   63    1
SMALL
USER_CHARGES


@<TRIPOS>ATOM
      1 C1          5.6501   52.1964   14.9141 C.3       1 UNK         0.0000 
      2 C2          7.1199   52.2412   15.3212 C.ar      1 UNK         0.0000 
      3 C3          8.0719   51.6964   14.4521 C.ar      1 UNK         0.0000 
      4 C4          9.4220   51.6871   14.7930 C.ar      1 UNK         0.0000 
      5 C5          9.8338   52.2271   16.0082 C.ar      1 UNK         0.0000 
      6 C6          8.8983   52.7803   16.8801 C.ar      1 UNK         0.0000 
      7 C7          7.5315   52.7990   16.5485 C.ar      1 UNK         0.0000 
      8 N8          6.5417   53.2966   17.4231 N.am      1 UNK         0.0000 
      9 C9          6.6825   54.1238   18.4773 C.2       1 UNK         0.0000 
     10 O10         7.6975   54.7716   18.7329 O.2       1 UNK         0.0000 
     11 N11         5.5897   54.0733   19.2645 N.am      1 UNK         0.0000 
     12 C12         5.5030   54.3494   20.6441 C.ar      1 UNK         0.0000 
     13 C13         4.3363   53.9408   21.2987 C.ar      1 UNK         0.0000 
     14 C14         4.2544   54.0233   22.6909 C.ar      1 UNK         0.0000 
     15 C15         5.3463   54.4967   23.4424 C.ar      1 UNK         0.0000 
     16 N16         6.4434   54.8978   22.7581 N.pl3     1 UNK         0.0000 
     17 C17         6.5434   54.8968   21.4161 C.ar      1 UNK         0.0000 
     18 N18         5.3070   54.6429   24.8795 N.pl3     1 UNK         0.0000 
     19 C19         6.5535   54.8457   25.6438 C.3       1 UNK         0.0000 
     20 C20         6.6719   53.9503   26.8889 C.3       1 UNK         0.0000 
     21 C21         5.6776   54.2458   28.0259 C.3       1 UNK         0.0000 
     22 N22         4.2890   53.7498   27.8754 N.am      1 UNK         0.0000 
     23 C23         3.6887   53.6234   26.5338 C.3       1 UNK         0.0000 
     24 C24         3.9986   54.7537   25.5494 C.3       1 UNK         0.0000 
     25 C25         3.5317   53.6615   29.0089 C.2       1 UNK         0.0000 
     26 O26         3.9259   54.0965   30.0894 O.2       1 UNK         0.0000 
     27 C27         2.1578   53.0235   28.9927 C.ar      1 UNK         0.0000 
     28 C28         1.8810   51.8619   28.2554 C.ar      1 UNK         0.0000 
     29 C29         0.5975   51.3187   28.2395 C.ar      1 UNK         0.0000 
     30 C30        -0.4029   51.9134   29.0034 C.ar      1 UNK         0.0000 
     31 C31        -0.1186   53.0158   29.8018 C.ar      1 UNK         0.0000 
     32 C32         1.1504   53.5749   29.7926 C.ar      1 UNK         0.0000 
     33 Cl33       -2.0124   51.2965   28.9576 Cl        1 UNK         0.0000 
     34 H34         5.4936   51.6547   13.9815 H         1 UNK         0.0000 
     35 H35         5.0545   51.7015   15.6829 H         1 UNK         0.0000 
     36 H36         5.2611   53.2070   14.7966 H         1 UNK         0.0000 
     37 H37         7.7673   51.2643   13.5099 H         1 UNK         0.0000 
     38 H38        10.1477   51.2543   14.1186 H         1 UNK         0.0000 
     39 H39        10.8786   52.2079   16.2817 H         1 UNK         0.0000 
     40 H40         9.2572   53.1630   17.8234 H         1 UNK         0.0000 
     41 H41         5.6157   52.9451   17.2334 H         1 UNK         0.0000 
     42 H42         4.7807   53.6170   18.8690 H         1 UNK         0.0000 
     43 H43         3.5062   53.5269   20.7423 H         1 UNK         0.0000 
     44 H44         3.3484   53.6736   23.1615 H         1 UNK         0.0000 
     45 H45         7.4946   55.2388   21.0350 H         1 UNK         0.0000 
     46 H46         6.5948   55.9028   25.9097 H         1 UNK         0.0000 
     47 H47         7.4112   54.6452   25.0021 H         1 UNK         0.0000 
     48 H48         7.6704   54.1113   27.2951 H         1 UNK         0.0000 
     49 H49         6.6355   52.8969   26.6193 H         1 UNK         0.0000 
     50 H50         5.6286   55.3288   28.1313 H         1 UNK         0.0000 
     51 H51         6.1141   53.8732   28.9546 H         1 UNK         0.0000 
     52 H52         4.1088   52.7310   26.0819 H         1 UNK         0.0000 
     53 H53         2.6088   53.4872   26.5496 H         1 UNK         0.0000 
     54 H54         3.1857   54.8840   24.8383 H         1 UNK         0.0000 
     55 H55         4.0110   55.6973   26.0861 H         1 UNK         0.0000 
     56 H56         2.6552   51.3809   27.6817 H         1 UNK         0.0000 
     57 H57         0.3713   50.4495   27.6389 H         1 UNK         0.0000 
     58 H58        -0.8903   53.4480   30.4173 H         1 UNK         0.0000 
     59 H59         1.3372   54.4468   30.4037 H         1 UNK         0.0000 
     60 H60         7.2322   55.2473   23.2857 H         1 UNK         0.0000 
@<TRIPOS>BOND
     1    1    2 1    
     2    1   34 1    
     3    1   35 1    
     4    1   36 1    
     5    2    7 ar   
     6    2    3 ar   
     7    3    4 ar   
     8    3   37 1    
     9    4    5 ar   
    10    4   38 1    
    11    5    6 ar   
    12    5   39 1    
    13    6    7 ar   
    14    6   40 1    
    15    7    8 1    
    16    8    9 am   BACKBONE|DICT|INTERRES
    17    8   41 1    
    18    9   10 2    
    19    9   11 am   BACKBONE|DICT|INTERRES
    20   11   12 1    
    21   11   42 1    
    22   12   17 ar   
    23   12   13 ar   
    24   13   14 ar   
    25   13   43 1    
    26   14   15 ar   
    27   14   44 1    
    28   15   16 ar   
    29   15   18 1    
    30   16   17 ar   
    31   16   60 1    
    32   17   45 1    
    33   18   24 1    
    34   18   19 1    
    35   19   20 1    
    36   19   46 1    
    37   19   47 1    
    38   20   21 1    
    39   20   48 1    
    40   20   49 1    
    41   21   22 1    
    42   21   50 1    
    43   21   51 1    
    44   22   23 1    
    45   22   25 am   BACKBONE|DICT|INTERRES
    46   23   24 1    
    47   23   52 1    
    48   23   53 1    
    49   24   54 1    
    50   24   55 1    
    51   25   26 2    
    52   25   27 1    
    53   27   32 ar   
    54   27   28 ar   
    55   28   29 ar   
    56   28   56 1    
    57   29   30 ar   
    58   29   57 1    
    59   30   31 ar   
    60   30   33 1    
    61   31   32 ar   
    62   31   58 1    
    63   32   59 1    
@<TRIPOS>SUBSTRUCTURE
     1 UNK         1 GROUP             0       ****    0 ROOT    
