@<TRIPOS>MOLECULE
ZINC38546313_6047
66   70    1
SMALL
USER_CHARGES


@<TRIPOS>ATOM
      1 C1          1.9316   54.5758   29.9675 C.3       1 UNK         0.0000 
      2 C2          1.3458   53.1904   29.6408 C.3       1 UNK         0.0000 
      3 C3          1.9641   52.5415   28.3801 C.3       1 UNK         0.0000 
      4 C4          1.1358   51.4087   27.7550 C.3       1 UNK         0.0000 
      5 N5         -0.3184   51.9044   27.5856 N.4       1 UNK         0.0000 
      6 C6         -0.8898   51.9586   29.0244 C.3       1 UNK         0.0000 
      7 C7         -0.1971   53.1215   29.7656 C.3       1 UNK         0.0000 
      8 C8         -1.1608   50.9659   26.6662 C.3       1 UNK         0.0000 
      9 H9         -1.0637   50.0953   27.2834 H         1 UNK         0.0000 
     10 C10        -2.6729   51.2615   26.5968 C.ar      1 UNK         0.0000 
     11 C11        -3.5404   50.4967   27.3966 C.ar      1 UNK         0.0000 
     12 C12        -4.9144   50.7115   27.3766 C.ar      1 UNK         0.0000 
     13 C13        -5.4503   51.6864   26.5448 C.ar      1 UNK         0.0000 
     14 C14        -4.6100   52.4287   25.7187 C.ar      1 UNK         0.0000 
     15 C15        -3.2194   52.2144   25.7194 C.ar      1 UNK         0.0000 
     16 O16        -2.3652   52.8960   24.8791 O.3       1 UNK         0.0000 
     17 C17        -2.9028   53.4779   23.6989 C.3       1 UNK         0.0000 
     18 C18        -0.5007   50.5737   25.3217 C.2       1 UNK         0.0000 
     19 C19         0.3637   51.3508   24.4924 C.2       1 UNK         0.0000 
     20 C20         0.7562   50.6920   23.3188 C.2       1 UNK         0.0000 
     21 S21         0.1363   49.0870   23.2456 S.3       1 UNK         0.0000 
     22 C22        -0.7009   49.3137   24.7502 C.2       1 UNK         0.0000 
     23 N23        -1.4842   48.3003   25.2817 N.am      1 UNK         0.0000 
     24 C24        -2.4636   47.6715   24.5981 C.2       1 UNK         0.0000 
     25 O25        -2.7096   47.8243   23.3995 O.2       1 UNK         0.0000 
     26 C26        -3.2590   46.7769   25.3938 C.2       1 UNK         0.0000 
     27 C27        -4.4331   46.0944   25.0906 C.2       1 UNK         0.0000 
     28 C28        -4.8099   45.4033   26.2439 C.2       1 UNK         0.0000 
     29 C29        -3.8514   45.6961   27.1987 C.2       1 UNK         0.0000 
     30 O30        -2.8959   46.4990   26.6750 O.3       1 UNK         0.0000 
     31 C31         1.5643   51.3030   22.1777 C.3       1 UNK         0.0000 
     32 C32         2.1723   52.6561   22.6109 C.3       1 UNK         0.0000 
     33 C33         1.2011   53.4951   23.4546 C.3       1 UNK         0.0000 
     34 C34         0.8202   52.7794   24.7615 C.3       1 UNK         0.0000 
     35 H35         1.7141   55.2884   29.1711 H         1 UNK         0.0000 
     36 H36         1.5043   54.9858   30.8818 H         1 UNK         0.0000 
     37 H37         3.0151   54.5371   30.0803 H         1 UNK         0.0000 
     38 H38         1.6664   52.5098   30.4330 H         1 UNK         0.0000 
     39 H39         3.0097   52.2670   28.5298 H         1 UNK         0.0000 
     40 H40         1.9825   53.3143   27.6102 H         1 UNK         0.0000 
     41 H41         1.1427   50.4968   28.3484 H         1 UNK         0.0000 
     42 H42         1.5044   51.1449   26.7802 H         1 UNK         0.0000 
     43 H43        -1.9660   52.0966   28.9720 H         1 UNK         0.0000 
     44 H44        -0.7209   50.9922   29.5045 H         1 UNK         0.0000 
     45 H45        -0.5770   54.0138   29.2693 H         1 UNK         0.0000 
     46 H46        -0.5109   53.2017   30.8073 H         1 UNK         0.0000 
     47 H47        -3.1627   49.7097   28.0378 H         1 UNK         0.0000 
     48 H48        -5.5610   50.1132   28.0017 H         1 UNK         0.0000 
     49 H49        -6.5175   51.8542   26.5237 H         1 UNK         0.0000 
     50 H50        -5.0609   53.1643   25.0706 H         1 UNK         0.0000 
     51 H51        -2.0955   53.6962   23.0062 H         1 UNK         0.0000 
     52 H52        -3.5762   52.7869   23.1927 H         1 UNK         0.0000 
     53 H53        -3.4316   54.4082   23.9125 H         1 UNK         0.0000 
     54 H54        -1.4815   48.1887   26.2917 H         1 UNK         0.0000 
     55 H55        -4.9610   46.1169   24.1475 H         1 UNK         0.0000 
     56 H56        -5.6786   44.7735   26.3726 H         1 UNK         0.0000 
     57 H57        -3.6957   45.3874   28.2230 H         1 UNK         0.0000 
     58 H58         2.3538   50.6295   21.8426 H         1 UNK         0.0000 
     59 H59         0.9067   51.4728   21.3247 H         1 UNK         0.0000 
     60 H60         3.0882   52.4921   23.1810 H         1 UNK         0.0000 
     61 H61         2.4745   53.2173   21.7244 H         1 UNK         0.0000 
     62 H62         1.6408   54.4688   23.6772 H         1 UNK         0.0000 
     63 H63         0.3042   53.6953   22.8827 H         1 UNK         0.0000 
     64 H64         0.0282   53.2967   25.2810 H         1 UNK         0.0000 
     65 H65         1.6941   52.7980   25.4087 H         1 UNK         0.0000 
     66 H66        -0.3648   52.8080   27.1369 H         1 UNK         0.0000 
@<TRIPOS>BOND
     1    1    2 1    
     2    1   35 1    
     3    1   36 1    
     4    1   37 1    
     5    2    7 1    
     6    2    3 1    
     7    2   38 1    
     8    3    4 1    
     9    3   39 1    
    10    3   40 1    
    11    4    5 1    
    12    4   41 1    
    13    4   42 1    
    14    5    6 1    
    15    5    8 1    
    16    5   66 1    
    17    6    7 1    
    18    6   43 1    
    19    6   44 1    
    20    7   45 1    
    21    7   46 1    
    22    8    9 1    
    23    8   10 1    
    24    8   18 1    
    25   10   15 ar   
    26   10   11 ar   
    27   11   12 ar   
    28   11   47 1    
    29   12   13 ar   
    30   12   48 1    
    31   13   14 ar   
    32   13   49 1    
    33   14   15 ar   
    34   14   50 1    
    35   15   16 1    
    36   16   17 1    
    37   17   51 1    
    38   17   52 1    
    39   17   53 1    
    40   18   22 2    
    41   18   19 1    
    42   19   34 1    
    43   19   20 2    
    44   20   21 1    
    45   20   31 1    
    46   21   22 1    
    47   22   23 am   BACKBONE|DICT|INTERRES
    48   23   24 am   BACKBONE|DICT|INTERRES
    49   23   54 1    
    50   24   25 2    
    51   24   26 1    
    52   26   30 1    
    53   26   27 2    
    54   27   28 1    
    55   27   55 1    
    56   28   29 2    
    57   28   56 1    
    58   29   30 1    
    59   29   57 1    
    60   31   32 1    
    61   31   58 1    
    62   31   59 1    
    63   32   33 1    
    64   32   60 1    
    65   32   61 1    
    66   33   34 1    
    67   33   62 1    
    68   33   63 1    
    69   34   64 1    
    70   34   65 1    
@<TRIPOS>SUBSTRUCTURE
     1 UNK         1 GROUP             0       ****    0 ROOT    
