@<TRIPOS>MOLECULE
ZINC37462305_2823
57   60    1
SMALL
USER_CHARGES


@<TRIPOS>ATOM
      1 C1          2.9786   51.8086   17.7731 C.3       1 UNK         0.0000 
      2 C2          2.6786   52.7242   18.9908 C.3       1 UNK         0.0000 
      3 C3          1.3051   52.2465   19.5238 C.3       1 UNK         0.0000 
      4 C4          3.9125   52.9713   20.0023 C.3       1 UNK         0.0000 
      5 C5          3.4808   53.2785   21.5234 C.3       1 UNK         0.0000 
      6 H6          2.8149   54.1399   21.5026 H         1 UNK         0.0000 
      7 C7          4.7341   53.6595   22.4071 C.3       1 UNK         0.0000 
      8 H8          5.4124   52.8032   22.3726 H         1 UNK         0.0000 
      9 N9          5.4107   54.7352   21.7100 N.pl3     1 UNK         0.0000 
     10 C10         5.5855   54.8968   20.3845 C.2       1 UNK         0.0000 
     11 S11         6.7043   56.0829   19.9895 S.2       1 UNK         0.0000 
     12 N12         4.8647   54.0684   19.5381 N.pl3     1 UNK         0.0000 
     13 C13         5.1341   54.1157   18.1475 C.ar      1 UNK         0.0000 
     14 C14         4.4255   54.9998   17.3193 C.ar      1 UNK         0.0000 
     15 C15         4.6943   55.0468   15.9497 C.ar      1 UNK         0.0000 
     16 C16         5.6772   54.2192   15.4081 C.ar      1 UNK         0.0000 
     17 C17         6.3921   53.3373   16.2348 C.ar      1 UNK         0.0000 
     18 C18         6.1358   53.2989   17.6026 C.ar      1 UNK         0.0000 
     19 O19         7.3974   52.5267   15.7481 O.3       1 UNK         0.0000 
     20 C20         7.3260   52.3036   14.3365 C.3       1 UNK         0.0000 
     21 C21         7.0775   53.6412   13.5971 C.3       1 UNK         0.0000 
     22 O22         5.8603   54.2526   14.0405 O.3       1 UNK         0.0000 
     23 C23         4.6421   53.9821   23.9149 C.ar      1 UNK         0.0000 
     24 C24         3.4381   54.1444   24.6131 C.ar      1 UNK         0.0000 
     25 C25         3.4386   54.3046   26.0004 C.ar      1 UNK         0.0000 
     26 C26         4.6372   54.3640   26.7039 C.ar      1 UNK         0.0000 
     27 C27         5.8428   54.2849   26.0187 C.ar      1 UNK         0.0000 
     28 C28         5.8460   54.0965   24.6377 C.ar      1 UNK         0.0000 
     29 F29         7.0360   53.9846   24.0040 F         1 UNK         0.0000 
     30 F30         4.6288   54.5048   28.0482 F         1 UNK         0.0000 
     31 C31         2.6740   52.1131   22.1750 C.2       1 UNK         0.0000 
     32 O32         3.0159   50.9308   22.0819 O.2       1 UNK         0.0000 
     33 O33         1.5257   52.5286   22.7524 O.3       1 UNK         0.0000 
     34 C34         0.6549   51.5954   23.3773 C.3       1 UNK         0.0000 
     35 O35         4.6662   51.7678   20.0818 O.3       1 UNK         0.0000 
     36 H36         3.0976   50.7694   18.0814 H         1 UNK         0.0000 
     37 H37         2.1651   51.8306   17.0476 H         1 UNK         0.0000 
     38 H38         3.8685   52.0823   17.2168 H         1 UNK         0.0000 
     39 H39         2.4408   53.7040   18.5810 H         1 UNK         0.0000 
     40 H40         1.3541   51.2317   19.9199 H         1 UNK         0.0000 
     41 H41         0.8941   52.9014   20.2869 H         1 UNK         0.0000 
     42 H42         0.5596   52.2302   18.7278 H         1 UNK         0.0000 
     43 H43         6.0566   55.2935   22.2484 H         1 UNK         0.0000 
     44 H44         3.6667   55.6466   17.7364 H         1 UNK         0.0000 
     45 H45         4.1409   55.7181   15.3088 H         1 UNK         0.0000 
     46 H46         6.7019   52.6263   18.2290 H         1 UNK         0.0000 
     47 H47         8.2519   51.8395   13.9957 H         1 UNK         0.0000 
     48 H48         6.5070   51.6124   14.1232 H         1 UNK         0.0000 
     49 H49         7.9099   54.3168   13.7961 H         1 UNK         0.0000 
     50 H50         7.0287   53.4849   12.5204 H         1 UNK         0.0000 
     51 H51         2.4911   54.1592   24.1044 H         1 UNK         0.0000 
     52 H52         2.5076   54.3832   26.5407 H         1 UNK         0.0000 
     53 H53         6.7724   54.3381   26.5637 H         1 UNK         0.0000 
     54 H54        -0.2107   52.1133   23.7905 H         1 UNK         0.0000 
     55 H55         0.2984   50.8536   22.6609 H         1 UNK         0.0000 
     56 H56         1.1596   51.0737   24.1915 H         1 UNK         0.0000 
     57 H57         4.7046   51.3427   19.2009 H         1 UNK         0.0000 
@<TRIPOS>BOND
     1    1    2 1    
     2    1   36 1    
     3    1   37 1    
     4    1   38 1    
     5    2    3 1    
     6    2    4 1    
     7    2   39 1    
     8    3   40 1    
     9    3   41 1    
    10    3   42 1    
    11    4   12 1    
    12    4    5 1    
    13    4   35 1    
    14    5    6 1    
    15    5    7 1    
    16    5   31 1    
    17    7    8 1    
    18    7    9 1    
    19    7   23 1    
    20    9   10 1    
    21    9   43 1    
    22   10   11 2    
    23   10   12 1    
    24   12   13 1    
    25   13   18 ar   
    26   13   14 ar   
    27   14   15 ar   
    28   14   44 1    
    29   15   16 ar   
    30   15   45 1    
    31   16   22 1    
    32   16   17 ar   
    33   17   18 ar   
    34   17   19 1    
    35   18   46 1    
    36   19   20 1    
    37   20   21 1    
    38   20   47 1    
    39   20   48 1    
    40   21   22 1    
    41   21   49 1    
    42   21   50 1    
    43   23   28 ar   
    44   23   24 ar   
    45   24   25 ar   
    46   24   51 1    
    47   25   26 ar   
    48   25   52 1    
    49   26   27 ar   
    50   26   30 1    
    51   27   28 ar   
    52   27   53 1    
    53   28   29 1    
    54   31   32 2    
    55   31   33 1    
    56   33   34 1    
    57   34   54 1    
    58   34   55 1    
    59   34   56 1    
    60   35   57 1    
@<TRIPOS>SUBSTRUCTURE
     1 UNK         1 GROUP             0       ****    0 ROOT    
