ZINC67265316_6228
                    3D
 Schrodinger Suite 2024-2.
 58 59  0  0  1  0            999 V2000
    1.3873   56.0688   30.0208 C   0  0  0  0  0  0
    1.2511   54.5413   30.1977 C   0  0  0  0  0  0
   -0.0246   54.0179   29.5227 C   0  0  0  0  0  0
    2.5202   53.7640   29.7667 C   0  0  0  0  0  0
    2.9072   54.0828   28.2970 N   0  3  1  0  0  0
    4.4125   54.4208   28.1957 C   0  0  0  0  0  0
    4.7350   54.8133   26.7470 C   0  0  0  0  0  0
    4.3438   53.7476   25.7140 C   0  0  1  0  0  0
    2.8811   53.2965   25.9084 C   0  0  0  0  0  0
    2.5446   52.9077   27.3593 C   0  0  0  0  0  0
    4.6454   54.0991   24.3255 N   0  0  0  0  0  0
    5.8738   54.2802   23.8069 C   0  0  0  0  0  0
    6.8966   54.2836   24.4916 O   0  0  0  0  0  0
    5.9356   54.4968   22.3154 C   0  0  0  0  0  0
    6.9631   55.2781   21.7606 C   0  0  0  0  0  0
    7.0893   55.4191   20.3751 C   0  0  0  0  0  0
    6.1505   54.8049   19.5333 C   0  0  0  0  0  0
    5.1155   54.0292   20.0705 C   0  0  0  0  0  0
    5.0191   53.8732   21.4537 C   0  0  0  0  0  0
    4.2295   53.2971   19.2655 N   0  0  0  0  0  0
    3.7202   53.6633   18.0731 C   0  0  0  0  0  0
    3.8922   54.7608   17.5429 O   0  0  0  0  0  0
    2.8553   52.6212   17.3758 C   0  0  0  0  0  0
    8.2288   56.0967   19.9057 N   0  0  0  0  0  0
    8.4321   56.6602   18.6964 C   0  0  0  0  0  0
    7.5977   56.7353   17.7969 O   0  0  0  0  0  0
    9.8095   57.2765   18.4858 C   0  0  0  0  0  0
    1.4064   56.3635   28.9709 H   0  0  0  0  0  0
    2.2976   56.4495   30.4810 H   0  0  0  0  0  0
    0.5535   56.5946   30.4865 H   0  0  0  0  0  0
    1.1050   54.3530   31.2635 H   0  0  0  0  0  0
   -0.0563   54.2483   28.4582 H   0  0  0  0  0  0
   -0.1279   52.9374   29.6393 H   0  0  0  0  0  0
   -0.8954   54.4738   29.9905 H   0  0  0  0  0  0
    3.3705   54.0422   30.3908 H   0  0  0  0  0  0
    2.4054   52.6826   29.8681 H   0  0  0  0  0  0
    4.5997   55.2667   28.8601 H   0  0  0  0  0  0
    4.9797   53.5510   28.5339 H   0  0  0  0  0  0
    4.1729   55.6967   26.4811 H   0  0  0  0  0  0
    5.7922   55.0701   26.6763 H   0  0  0  0  0  0
    4.9805   52.8968   25.9618 H   0  0  0  0  0  0
    2.6617   52.4619   25.2452 H   0  0  0  0  0  0
    2.2091   54.0981   25.6008 H   0  0  0  0  0  0
    3.1047   52.0381   27.7016 H   0  0  0  0  0  0
    1.4754   52.7183   27.4646 H   0  0  0  0  0  0
    3.8636   54.1316   23.6900 H   0  0  0  0  0  0
    7.6991   55.7324   22.4121 H   0  0  0  0  0  0
    6.2567   54.8574   18.4611 H   0  0  0  0  0  0
    4.2399   53.2371   21.8508 H   0  0  0  0  0  0
    3.9340   52.4016   19.6241 H   0  0  0  0  0  0
    1.8264   52.6876   17.7307 H   0  0  0  0  0  0
    2.8614   52.7846   16.2967 H   0  0  0  0  0  0
    3.2282   51.6115   17.5622 H   0  0  0  0  0  0
    8.9864   56.1820   20.5664 H   0  0  0  0  0  0
   10.0456   57.9812   19.2817 H   0  0  0  0  0  0
   10.5713   56.4984   18.4784 H   0  0  0  0  0  0
    9.8515   57.8087   17.5355 H   0  0  0  0  0  0
    2.3802   54.8990   28.0169 H   0  0  0  0  0  0
  1  2  1  0  0  0
  1 28  1  0  0  0
  1 29  1  0  0  0
  1 30  1  0  0  0
  2  3  1  0  0  0
  2  4  1  0  0  0
  2 31  1  0  0  0
  3 32  1  0  0  0
  3 33  1  0  0  0
  3 34  1  0  0  0
  4  5  1  0  0  0
  4 35  1  0  0  0
  4 36  1  0  0  0
  5 10  1  0  0  0
  5  6  1  0  0  0
  5 58  1  0  0  0
  6  7  1  0  0  0
  6 37  1  0  0  0
  6 38  1  0  0  0
  7  8  1  0  0  0
  7 39  1  0  0  0
  7 40  1  0  0  0
  8  9  1  0  0  0
  8 11  1  0  0  0
  8 41  1  0  0  0
  9 10  1  0  0  0
  9 42  1  0  0  0
  9 43  1  0  0  0
 10 44  1  0  0  0
 10 45  1  0  0  0
 11 12  1  0  0  0
 11 46  1  0  0  0
 12 13  2  0  0  0
 12 14  1  0  0  0
 14 19  2  0  0  0
 14 15  1  0  0  0
 15 16  2  0  0  0
 15 47  1  0  0  0
 16 17  1  0  0  0
 16 24  1  0  0  0
 17 18  2  0  0  0
 17 48  1  0  0  0
 18 19  1  0  0  0
 18 20  1  0  0  0
 19 49  1  0  0  0
 20 21  1  0  0  0
 20 50  1  0  0  0
 21 22  2  0  0  0
 21 23  1  0  0  0
 23 51  1  0  0  0
 23 52  1  0  0  0
 23 53  1  0  0  0
 24 25  1  0  0  0
 24 54  1  0  0  0
 25 26  2  0  0  0
 25 27  1  0  0  0
 27 55  1  0  0  0
 27 56  1  0  0  0
 27 57  1  0  0  0
M  CHG  1   5   1
M  END
> <i_i_glide_confnum>
146

> <i_i_glide_lignum>
6229

> <i_i_glide_posenum>
344

> <i_i_glide_rotatable_bonds>
9

> <i_m_Source_File_Index>
4041

> <b_m_subgroup_collapsed>
0

> <r_i_docking_score>
-4.7589

> <r_i_glide_ecoul>
-0.649965

> <r_i_glide_eff_state_penalty>
0

> <r_i_glide_einternal>
12.7112

> <r_i_glide_emodel>
-45.0751

> <r_i_glide_energy>
-37.3052

> <r_i_glide_erotb>
0.823356

> <r_i_glide_esite>
-0.0613514

> <r_i_glide_evdw>
-36.6553

> <r_i_glide_gscore>
-4.7589

> <r_i_glide_hbond>
0

> <r_i_glide_ligand_efficiency>
-0.176256

> <r_i_glide_ligand_efficiency_ln>
-1.10779

> <r_i_glide_ligand_efficiency_sa>
-0.528767

> <r_i_glide_lipo>
-2.376

> <r_i_glide_metal>
0

> <r_i_glide_rewards>
-1.21465

> <s_i_glide_gridfile>
wee1_glide-grid

> <s_m_Source_File>
wee1_decoys_glide_SP.sdf

> <s_m_Source_Path>
/Users/zhangxujun/Desktop

> <s_m_entry_id>
4316

> <s_m_entry_name>
wee1_decoys_glide_SP.4041

> <s_m_subgroup_title>
wee1_decoys_glide_SP

> <s_m_subgroupid>
wee1_decoys_glide_SP


$$$$
