@<TRIPOS>MOLECULE
ZINC39972179_5717
68   71    1
SMALL
USER_CHARGES


@<TRIPOS>ATOM
      1 C1          0.9862   52.6210   32.0296 C.3       1 UNK         0.0000 
      2 O2          0.9775   53.6701   31.0730 O.3       1 UNK         0.0000 
      3 C3          1.9352   53.7089   30.0804 C.ar      1 UNK         0.0000 
      4 C4          2.9987   52.8004   29.9273 C.ar      1 UNK         0.0000 
      5 C5          3.8977   52.9420   28.8642 C.ar      1 UNK         0.0000 
      6 C6          3.7309   53.9804   27.9441 C.ar      1 UNK         0.0000 
      7 C7          2.7011   54.8963   28.1286 C.ar      1 UNK         0.0000 
      8 C8          1.8117   54.7670   29.1854 C.ar      1 UNK         0.0000 
      9 C9          4.5909   54.1631   26.7272 C.2       1 UNK         0.0000 
     10 C10         5.9358   54.4971   26.8442 C.2       1 UNK         0.0000 
     11 S11         6.7034   54.7952   25.3330 S.3       1 UNK         0.0000 
     12 C12         5.2204   54.4303   24.4900 C.2       1 UNK         0.0000 
     13 C13         4.1504   54.0957   25.3634 C.2       1 UNK         0.0000 
     14 C14         2.7760   53.6967   24.9555 C.2       1 UNK         0.0000 
     15 O15         1.9370   53.2304   25.7304 O.2       1 UNK         0.0000 
     16 O16         2.5467   53.8659   23.6309 O.3       1 UNK         0.0000 
     17 C17         1.3047   53.4828   23.0597 C.3       1 UNK         0.0000 
     18 N18         5.1469   54.4284   23.0959 N.am      1 UNK         0.0000 
     19 C19         6.0207   54.8371   22.1492 C.2       1 UNK         0.0000 
     20 O20         7.1044   55.3711   22.3747 O.2       1 UNK         0.0000 
     21 C21         5.5833   54.6467   20.6732 C.3       1 UNK         0.0000 
     22 N22         4.4867   53.6618   20.5169 N.3       1 UNK         0.0000 
     23 C23         4.9970   52.2861   20.6496 C.3       1 UNK         0.0000 
     24 C24         3.8241   51.2967   20.6519 C.3       1 UNK         0.0000 
     25 N25         3.1045   51.3642   19.2895 N.4       1 UNK         0.0000 
     26 C26         2.6508   52.8156   19.0236 C.3       1 UNK         0.0000 
     27 C27         3.8553   53.7839   19.1875 C.3       1 UNK         0.0000 
     28 C28         1.9601   50.3266   19.1870 C.3       1 UNK         0.0000 
     29 C29         1.0405   50.2413   20.4010 C.ar      1 UNK         0.0000 
     30 C30        -0.1181   51.0184   20.4654 C.ar      1 UNK         0.0000 
     31 C31        -0.9424   50.9424   21.5849 C.ar      1 UNK         0.0000 
     32 C32        -0.6144   50.0862   22.6378 C.ar      1 UNK         0.0000 
     33 C33         0.5369   49.2994   22.5706 C.ar      1 UNK         0.0000 
     34 C34         1.3552   49.3676   21.4476 C.ar      1 UNK         0.0000 
     35 S35        -1.6866   50.0327   24.0492 S.3       1 UNK         0.0000 
     36 C36        -1.0242   48.8651   25.2753 C.3       1 UNK         0.0000 
     37 H37         0.3045   52.8848   32.8376 H         1 UNK         0.0000 
     38 H38         1.9642   52.4590   32.4797 H         1 UNK         0.0000 
     39 H39         0.6290   51.6968   31.5813 H         1 UNK         0.0000 
     40 H40         3.1355   51.9784   30.6130 H         1 UNK         0.0000 
     41 H41         4.7011   52.2304   28.7351 H         1 UNK         0.0000 
     42 H42         2.5793   55.6976   27.4244 H         1 UNK         0.0000 
     43 H43         1.0088   55.4777   29.3031 H         1 UNK         0.0000 
     44 H44         6.4950   54.6223   27.7614 H         1 UNK         0.0000 
     45 H45         1.3047   53.6963   21.9910 H         1 UNK         0.0000 
     46 H46         1.1292   52.4144   23.1899 H         1 UNK         0.0000 
     47 H47         0.4774   54.0250   23.5197 H         1 UNK         0.0000 
     48 H48         4.2605   54.1146   22.7230 H         1 UNK         0.0000 
     49 H49         5.2710   55.6183   20.2870 H         1 UNK         0.0000 
     50 H50         6.4443   54.3777   20.0567 H         1 UNK         0.0000 
     51 H51         5.6980   52.0670   19.8385 H         1 UNK         0.0000 
     52 H52         5.5269   52.1625   21.5937 H         1 UNK         0.0000 
     53 H53         3.1058   51.5242   21.4400 H         1 UNK         0.0000 
     54 H54         4.1767   50.2769   20.7562 H         1 UNK         0.0000 
     55 H55         1.8419   53.0279   19.7214 H         1 UNK         0.0000 
     56 H56         2.2823   52.8357   17.9970 H         1 UNK         0.0000 
     57 H57         3.5043   54.8043   19.0244 H         1 UNK         0.0000 
     58 H58         4.6061   53.5586   18.4262 H         1 UNK         0.0000 
     59 H59         1.4191   50.5630   18.2684 H         1 UNK         0.0000 
     60 H60         2.4867   49.3811   19.0285 H         1 UNK         0.0000 
     61 H61        -0.3742   51.6875   19.6560 H         1 UNK         0.0000 
     62 H62        -1.8345   51.5486   21.6380 H         1 UNK         0.0000 
     63 H63         0.8121   48.6365   23.3799 H         1 UNK         0.0000 
     64 H64         2.2448   48.7549   21.4032 H         1 UNK         0.0000 
     65 H65        -1.7465   48.7421   26.0826 H         1 UNK         0.0000 
     66 H66        -0.8483   47.8832   24.8386 H         1 UNK         0.0000 
     67 H67        -0.0966   49.2357   25.7111 H         1 UNK         0.0000 
     68 H68         3.8053   51.1091   18.5883 H         1 UNK         0.0000 
@<TRIPOS>BOND
     1    1    2 1    
     2    1   37 1    
     3    1   38 1    
     4    1   39 1    
     5    2    3 1    
     6    3    8 ar   
     7    3    4 ar   
     8    4    5 ar   
     9    4   40 1    
    10    5    6 ar   
    11    5   41 1    
    12    6    7 ar   
    13    6    9 1    
    14    7    8 ar   
    15    7   42 1    
    16    8   43 1    
    17    9   13 1    
    18    9   10 2    
    19   10   11 1    
    20   10   44 1    
    21   11   12 1    
    22   12   13 2    
    23   12   18 am   BACKBONE|DICT|INTERRES
    24   13   14 1    
    25   14   15 2    
    26   14   16 1    
    27   16   17 1    
    28   17   45 1    
    29   17   46 1    
    30   17   47 1    
    31   18   19 am   BACKBONE|DICT|INTERRES
    32   18   48 1    
    33   19   20 2    
    34   19   21 1    
    35   21   22 1    
    36   21   49 1    
    37   21   50 1    
    38   22   27 1    
    39   22   23 1    
    40   23   24 1    
    41   23   51 1    
    42   23   52 1    
    43   24   25 1    
    44   24   53 1    
    45   24   54 1    
    46   25   26 1    
    47   25   28 1    
    48   25   68 1    
    49   26   27 1    
    50   26   55 1    
    51   26   56 1    
    52   27   57 1    
    53   27   58 1    
    54   28   29 1    
    55   28   59 1    
    56   28   60 1    
    57   29   34 ar   
    58   29   30 ar   
    59   30   31 ar   
    60   30   61 1    
    61   31   32 ar   
    62   31   62 1    
    63   32   33 ar   
    64   32   35 1    
    65   33   34 ar   
    66   33   63 1    
    67   34   64 1    
    68   35   36 1    
    69   36   65 1    
    70   36   66 1    
    71   36   67 1    
@<TRIPOS>SUBSTRUCTURE
     1 UNK         1 GROUP             0       ****    0 ROOT    
