@<TRIPOS>MOLECULE
ZINC19403735_1731
33   35    1
SMALL
USER_CHARGES


@<TRIPOS>ATOM
      1 C1          5.1669   54.4891   26.9300 C.ar      1 UNK         0.0000 
      2 C2          6.4223   54.6177   26.3262 C.ar      1 UNK         0.0000 
      3 C3          6.5410   54.5779   24.9329 C.ar      1 UNK         0.0000 
      4 C4          5.3882   54.3942   24.1741 C.ar      1 UNK         0.0000 
      5 C5          4.1438   54.2517   24.7582 C.ar      1 UNK         0.0000 
      6 C6          4.0219   54.3051   26.1476 C.ar      1 UNK         0.0000 
      7 C7          3.1274   54.0967   23.6733 C.3       1 UNK         0.0000 
      8 C8          4.0032   54.1105   22.3912 C.3       1 UNK         0.0000 
      9 H9          3.6693   54.8958   21.7121 H         1 UNK         0.0000 
     10 O10         5.3596   54.3483   22.8034 O.3       1 UNK         0.0000 
     11 C11         3.8894   52.7740   21.6280 C.2       1 UNK         0.0000 
     12 O12         4.7918   51.9347   21.6816 O.2       1 UNK         0.0000 
     13 N13         2.7374   52.5845   20.9526 N.am      1 UNK         0.0000 
     14 C14         2.3679   51.3841   20.3263 C.ar      1 UNK         0.0000 
     15 C15         2.1718   51.4200   18.9436 C.ar      1 UNK         0.0000 
     16 C16         1.8032   50.2641   18.2585 C.ar      1 UNK         0.0000 
     17 C17         1.6200   49.0680   18.9491 C.ar      1 UNK         0.0000 
     18 C18         1.7939   49.0277   20.3318 C.ar      1 UNK         0.0000 
     19 C19         2.1614   50.1778   21.0314 C.ar      1 UNK         0.0000 
     20 N20         2.3044   50.0885   22.4189 N.pl3     1 UNK         0.0000 
     21 H21         5.0839   54.5266   28.0066 H         1 UNK         0.0000 
     22 H22         7.2963   54.7462   26.9471 H         1 UNK         0.0000 
     23 H23         7.5043   54.6820   24.4583 H         1 UNK         0.0000 
     24 H24         3.0587   54.2048   26.6258 H         1 UNK         0.0000 
     25 H25         2.4579   54.9561   23.6819 H         1 UNK         0.0000 
     26 H26         2.5526   53.1776   23.8088 H         1 UNK         0.0000 
     27 H27         2.1361   53.3834   20.7950 H         1 UNK         0.0000 
     28 H28         2.3313   52.3337   18.3893 H         1 UNK         0.0000 
     29 H29         1.6920   50.2876   17.1842 H         1 UNK         0.0000 
     30 H30         1.3538   48.1716   18.4094 H         1 UNK         0.0000 
     31 H31         1.6481   48.0966   20.8553 H         1 UNK         0.0000 
     32 H32         3.0955   50.6072   22.7717 H         1 UNK         0.0000 
     33 H33         2.1710   49.1679   22.8132 H         1 UNK         0.0000 
@<TRIPOS>BOND
     1    1    6 ar   
     2    1    2 ar   
     3    1   21 1    
     4    2    3 ar   
     5    2   22 1    
     6    3    4 ar   
     7    3   23 1    
     8    4   10 1    
     9    4    5 ar   
    10    5    6 ar   
    11    5    7 1    
    12    6   24 1    
    13    7    8 1    
    14    7   25 1    
    15    7   26 1    
    16    8    9 1    
    17    8   10 1    
    18    8   11 1    
    19   11   12 2    
    20   11   13 am   BACKBONE|DICT|INTERRES
    21   13   14 1    
    22   13   27 1    
    23   14   19 ar   
    24   14   15 ar   
    25   15   16 ar   
    26   15   28 1    
    27   16   17 ar   
    28   16   29 1    
    29   17   18 ar   
    30   17   30 1    
    31   18   19 ar   
    32   18   31 1    
    33   19   20 1    
    34   20   32 1    
    35   20   33 1    
@<TRIPOS>SUBSTRUCTURE
     1 UNK         1 GROUP             0       ****    0 ROOT    
