@<TRIPOS>MOLECULE
ZINC20158968_2357
39   40    1
SMALL
USER_CHARGES


@<TRIPOS>ATOM
      1 C1          5.2069   53.8885   22.1054 C.3       1 UNK         0.0000 
      2 C2          6.3377   54.8600   22.4613 C.2       1 UNK         0.0000 
      3 N3          7.0974   55.3194   21.3810 N.pl3     1 UNK         0.0000 
      4 N4          6.5978   55.4380   20.0636 N.am      1 UNK         0.0000 
      5 C5          6.3044   56.6531   19.5593 C.2       1 UNK         0.0000 
      6 O6          6.7044   57.6967   20.0817 O.2       1 UNK         0.0000 
      7 C7          5.4573   56.7338   18.3002 C.ar      1 UNK         0.0000 
      8 C8          5.5686   57.8968   17.5144 C.ar      1 UNK         0.0000 
      9 C9          4.7761   58.0950   16.3872 C.ar      1 UNK         0.0000 
     10 C10         3.8608   57.1214   16.0054 C.ar      1 UNK         0.0000 
     11 C11         3.7368   55.9569   16.7574 C.ar      1 UNK         0.0000 
     12 C12         4.5133   55.7532   17.9008 C.ar      1 UNK         0.0000 
     13 Cl13        4.2009   54.2872   18.7711 Cl        1 UNK         0.0000 
     14 Cl14        2.8730   57.3597   14.6108 Cl        1 UNK         0.0000 
     15 C15         6.7028   55.2746   23.6996 C.2       1 UNK         0.0000 
     16 C16         6.1578   54.8966   24.9839 C.2       1 UNK         0.0000 
     17 O17         6.8986   54.8199   25.9630 O.2       1 UNK         0.0000 
     18 N18         4.8272   54.6796   25.0092 N.am      1 UNK         0.0000 
     19 C19         4.0123   54.2656   26.0760 C.ar      1 UNK         0.0000 
     20 C20         4.3545   54.3919   27.4321 C.ar      1 UNK         0.0000 
     21 C21         3.4786   53.9405   28.4197 C.ar      1 UNK         0.0000 
     22 C22         2.2605   53.3610   28.0670 C.ar      1 UNK         0.0000 
     23 C23         1.9128   53.2372   26.7232 C.ar      1 UNK         0.0000 
     24 C24         2.7812   53.6967   25.7328 C.ar      1 UNK         0.0000 
     25 Cl25        0.4173   52.4967   26.2839 Cl        1 UNK         0.0000 
     26 Cl26        3.9044   54.0966   30.0817 Cl        1 UNK         0.0000 
     27 H27         4.8537   53.2966   22.9460 H         1 UNK         0.0000 
     28 H28         4.3605   54.4386   21.6933 H         1 UNK         0.0000 
     29 H29         5.5238   53.1628   21.3574 H         1 UNK         0.0000 
     30 H30         6.2377   54.5789   19.6709 H         1 UNK         0.0000 
     31 H31         6.2537   58.6902   17.7857 H         1 UNK         0.0000 
     32 H32         4.8660   59.0150   15.8248 H         1 UNK         0.0000 
     33 H33         3.0167   55.2086   16.4595 H         1 UNK         0.0000 
     34 H34         7.5202   55.9701   23.7984 H         1 UNK         0.0000 
     35 H35         8.0848   55.1021   21.3562 H         1 UNK         0.0000 
     36 H36         4.3631   54.7529   24.1180 H         1 UNK         0.0000 
     37 H37         5.2856   54.8430   27.7399 H         1 UNK         0.0000 
     38 H38         1.5875   53.0041   28.8330 H         1 UNK         0.0000 
     39 H39         2.4974   53.5873   24.6960 H         1 UNK         0.0000 
@<TRIPOS>BOND
     1    1   27 1    
     2    1   28 1    
     3    1   29 1    
     4    1    2 1    
     5    2   15 2    
     6    2    3 1    
     7    3    4 1    
     8    3   35 1    
     9    4    5 am   BACKBONE|DICT|INTERRES
    10    4   30 1    
    11    5    6 2    
    12    5    7 1    
    13    7   12 ar   
    14    7    8 ar   
    15    8    9 ar   
    16    8   31 1    
    17    9   10 ar   
    18    9   32 1    
    19   10   11 ar   
    20   10   14 1    
    21   11   12 ar   
    22   11   33 1    
    23   12   13 1    
    24   15   16 1    
    25   15   34 1    
    26   16   17 2    
    27   16   18 am   BACKBONE|DICT|INTERRES
    28   18   19 1    
    29   18   36 1    
    30   19   24 ar   
    31   19   20 ar   
    32   20   21 ar   
    33   20   37 1    
    34   21   22 ar   
    35   21   26 1    
    36   22   23 ar   
    37   22   38 1    
    38   23   24 ar   
    39   23   25 1    
    40   24   39 1    
@<TRIPOS>SUBSTRUCTURE
     1 UNK         1 GROUP             0       ****    0 ROOT    
