ZINC02085596_4470
                    3D
 Schrodinger Suite 2024-2.
 67 71  0  0  1  0            999 V2000
    0.7695   52.0393   13.1640 C   0  0  0  0  0  0
    1.6233   52.5267   14.3192 C   0  0  0  0  0  0
    2.0553   53.8528   14.3535 C   0  0  0  0  0  0
    2.8554   54.2957   15.4019 C   0  0  0  0  0  0
    3.2309   53.4257   16.4356 C   0  0  0  0  0  0
    2.7899   52.0970   16.3871 C   0  0  0  0  0  0
    1.9958   51.6481   15.3363 C   0  0  0  0  0  0
    4.0867   53.8946   17.5648 C   0  0  0  0  0  0
    3.8886   53.4496   18.8700 C   0  0  0  0  0  0
    4.6920   53.9093   19.9229 C   0  0  0  0  0  0
    5.7766   54.8100   19.5930 C   0  0  0  0  0  0
    6.7644   55.2950   20.5074 C   0  0  0  0  0  0
    7.8136   56.0970   20.0810 C   0  0  0  0  0  0
    7.9031   56.4978   18.7568 C   0  0  0  0  0  0
    6.9540   56.0781   17.8302 C   0  0  0  0  0  0
    5.9004   55.2183   18.2236 C   0  0  0  0  0  0
    5.0561   54.7859   17.2511 N   0  0  0  0  0  0
    4.3390   53.4281   21.3177 C   0  0  0  0  0  0
    3.8862   52.2931   21.4860 O   0  0  0  0  0  0
    4.5184   54.3106   22.3193 N   0  0  0  0  0  0
    4.1718   54.0976   23.6495 C   0  0  0  0  0  0
    4.9455   54.3637   24.7956 C   0  0  0  0  0  0
    4.2070   54.1495   25.9881 C   0  0  0  0  0  0
    2.9035   53.6901   25.7376 C   0  0  0  0  0  0
    2.5540   53.5926   24.0472 S   0  0  0  0  0  0
    1.8734   53.3259   26.8035 C   0  0  0  0  0  0
    2.5843   53.1584   28.1798 C   0  0  1  0  0  0
    3.2035   52.2593   28.1346 H   0  0  0  0  0  0
    3.5287   54.3714   28.3953 C   0  0  0  0  0  0
    4.7158   54.3608   27.4177 C   0  0  0  0  0  0
    1.5879   52.9263   29.3771 C   0  0  0  0  0  0
    2.3768   52.4611   30.6224 C   0  0  0  0  0  0
    0.5587   51.8175   29.0418 C   0  0  0  0  0  0
    0.8061   54.2104   29.7476 C   0  0  0  0  0  0
    6.3157   54.8266   24.7814 C   0  0  0  0  0  0
    6.7409   55.6919   25.5424 O   0  0  0  0  0  0
    7.1037   54.2188   23.8930 N   0  0  0  0  0  0
    1.1792   52.3897   12.2162 H   0  0  0  0  0  0
    0.7362   50.9510   13.1101 H   0  0  0  0  0  0
   -0.2479   52.4219   13.2503 H   0  0  0  0  0  0
    1.7767   54.5395   13.5671 H   0  0  0  0  0  0
    3.1794   55.3284   15.4122 H   0  0  0  0  0  0
    3.0898   51.3904   17.1524 H   0  0  0  0  0  0
    1.6846   50.6128   15.3148 H   0  0  0  0  0  0
    3.0793   52.7611   19.0681 H   0  0  0  0  0  0
    6.7654   54.9875   21.5349 H   0  0  0  0  0  0
    8.5774   56.4036   20.7814 H   0  0  0  0  0  0
    8.7203   57.1288   18.4406 H   0  0  0  0  0  0
    7.0384   56.3805   16.7954 H   0  0  0  0  0  0
    5.1689   55.0578   22.1425 H   0  0  0  0  0  0
    1.3745   52.3984   26.5199 H   0  0  0  0  0  0
    1.1071   54.0966   26.8619 H   0  0  0  0  0  0
    2.9743   55.3102   28.3689 H   0  0  0  0  0  0
    3.9667   54.3449   29.3916 H   0  0  0  0  0  0
    5.2635   55.2967   27.5267 H   0  0  0  0  0  0
    5.4096   53.5615   27.6831 H   0  0  0  0  0  0
    1.7192   52.1969   31.4548 H   0  0  0  0  0  0
    3.0482   53.2389   30.9766 H   0  0  0  0  0  0
    2.9971   51.5963   30.3975 H   0  0  0  0  0  0
   -0.1279   52.1212   28.2517 H   0  0  0  0  0  0
    1.0456   50.8976   28.7193 H   0  0  0  0  0  0
   -0.0608   51.5705   29.9056 H   0  0  0  0  0  0
    0.3044   54.6315   28.8805 H   0  0  0  0  0  0
    0.0445   54.0133   30.5042 H   0  0  0  0  0  0
    1.4559   54.9874   30.1502 H   0  0  0  0  0  0
    6.7533   53.4403   23.3569 H   0  0  0  0  0  0
    8.0775   54.5035   23.8056 H   0  0  0  0  0  0
  1  2  1  0  0  0
  1 38  1  0  0  0
  1 39  1  0  0  0
  1 40  1  0  0  0
  2  7  2  0  0  0
  2  3  1  0  0  0
  3  4  2  0  0  0
  3 41  1  0  0  0
  4  5  1  0  0  0
  4 42  1  0  0  0
  5  6  2  0  0  0
  5  8  1  0  0  0
  6  7  1  0  0  0
  6 43  1  0  0  0
  7 44  1  0  0  0
  8 17  2  0  0  0
  8  9  1  0  0  0
  9 10  2  0  0  0
  9 45  1  0  0  0
 10 11  1  0  0  0
 10 18  1  0  0  0
 11 16  2  0  0  0
 11 12  1  0  0  0
 12 13  2  0  0  0
 12 46  1  0  0  0
 13 14  1  0  0  0
 13 47  1  0  0  0
 14 15  2  0  0  0
 14 48  1  0  0  0
 15 16  1  0  0  0
 15 49  1  0  0  0
 16 17  1  0  0  0
 18 19  2  0  0  0
 18 20  1  0  0  0
 20 21  1  0  0  0
 20 50  1  0  0  0
 21 25  1  0  0  0
 21 22  2  0  0  0
 22 23  1  0  0  0
 22 35  1  0  0  0
 23 30  1  0  0  0
 23 24  2  0  0  0
 24 25  1  0  0  0
 24 26  1  0  0  0
 26 27  1  0  0  0
 26 51  1  0  0  0
 26 52  1  0  0  0
 27 28  1  0  0  0
 27 29  1  0  0  0
 27 31  1  0  0  0
 29 30  1  0  0  0
 29 53  1  0  0  0
 29 54  1  0  0  0
 30 55  1  0  0  0
 30 56  1  0  0  0
 31 32  1  0  0  0
 31 33  1  0  0  0
 31 34  1  0  0  0
 32 57  1  0  0  0
 32 58  1  0  0  0
 32 59  1  0  0  0
 33 60  1  0  0  0
 33 61  1  0  0  0
 33 62  1  0  0  0
 34 63  1  0  0  0
 34 64  1  0  0  0
 34 65  1  0  0  0
 35 36  2  0  0  0
 35 37  1  0  0  0
 37 66  1  0  0  0
 37 67  1  0  0  0
M  END
> <i_i_glide_confnum>
67

> <i_i_glide_lignum>
4471

> <i_i_glide_posenum>
66

> <i_i_glide_rotatable_bonds>
6

> <i_m_Source_File_Index>
2427

> <b_m_subgroup_collapsed>
0

> <r_i_docking_score>
-6.92363

> <r_i_glide_ecoul>
-4.99783

> <r_i_glide_eff_state_penalty>
0

> <r_i_glide_einternal>
9.21828

> <r_i_glide_emodel>
-69.1551

> <r_i_glide_energy>
-51.2237

> <r_i_glide_erotb>
0.329497

> <r_i_glide_esite>
0

> <r_i_glide_evdw>
-46.2259

> <r_i_glide_gscore>
-6.92363

> <r_i_glide_hbond>
-0.608

> <r_i_glide_ligand_efficiency>
-0.192323

> <r_i_glide_ligand_efficiency_ln>
-1.51055

> <r_i_glide_ligand_efficiency_sa>
-0.635037

> <r_i_glide_lipo>
-2.87545

> <r_i_glide_metal>
0

> <r_i_glide_rewards>
-0.708713

> <s_i_glide_gridfile>
wee1_glide-grid

> <s_m_Source_File>
wee1_decoys_glide_SP.sdf

> <s_m_Source_Path>
/Users/zhangxujun/Desktop

> <s_m_entry_id>
2702

> <s_m_entry_name>
wee1_decoys_glide_SP.2427

> <s_m_subgroup_title>
wee1_decoys_glide_SP

> <s_m_subgroupid>
wee1_decoys_glide_SP


$$$$
