@<TRIPOS>MOLECULE
ZINC50535150_1487
42   45    1
SMALL
USER_CHARGES


@<TRIPOS>ATOM
      1 C1          7.8317   55.8695   17.4299 C.3       1 UNK         0.0000 
      2 C2          6.9497   54.7490   17.9309 C.ar      1 UNK         0.0000 
      3 N3          6.0944   54.9270   18.9290 N.2       1 UNK         0.0000 
      4 C4          5.5556   53.7382   19.0770 C.ar      1 UNK         0.0000 
      5 N5          6.1137   52.8967   18.1609 N.pl3     1 UNK         0.0000 
      6 H6          5.9044   51.8962   18.0729 H         1 UNK         0.0000 
      7 N7          7.0181   53.5368   17.4228 N.2       1 UNK         0.0000 
      8 C8          4.5523   53.3369   20.1089 C.ar      1 UNK         0.0000 
      9 C9          4.2528   54.2275   21.1348 C.ar      1 UNK         0.0000 
     10 C10         3.3316   53.8831   22.1114 C.ar      1 UNK         0.0000 
     11 C11         2.7538   52.6074   22.1374 C.ar      1 UNK         0.0000 
     12 C12         3.0375   51.7220   21.1024 C.ar      1 UNK         0.0000 
     13 C13         3.9044   52.0967   20.0823 C.ar      1 UNK         0.0000 
     14 N14         1.9044   52.1497   23.1591 N.pl3     1 UNK         0.0000 
     15 S15         1.1440   53.1709   24.3863 S.o2      1 UNK         0.0000 
     16 O16         0.9899   54.4967   23.7898 O.2       1 UNK         0.0000 
     17 O17        -0.0198   52.4263   24.8770 O.2       1 UNK         0.0000 
     18 C18         2.3010   53.3233   25.7481 C.ar      1 UNK         0.0000 
     19 C19         1.9452   52.9346   27.0481 C.ar      1 UNK         0.0000 
     20 C20         2.8676   53.0503   28.0952 C.ar      1 UNK         0.0000 
     21 C21         4.1492   53.5412   27.8372 C.ar      1 UNK         0.0000 
     22 C22         4.4911   53.9546   26.5425 C.ar      1 UNK         0.0000 
     23 C23         3.5737   53.8467   25.5139 C.ar      1 UNK         0.0000 
     24 O24         5.7566   54.3747   26.1926 O.3       1 UNK         0.0000 
     25 C25         6.5794   54.7113   27.3029 C.3       1 UNK         0.0000 
     26 C26         6.4122   53.6967   28.4496 C.3       1 UNK         0.0000 
     27 O27         5.0451   53.6374   28.8817 O.3       1 UNK         0.0000 
     28 H28         7.5639   56.1845   16.4213 H         1 UNK         0.0000 
     29 H29         8.8606   55.5192   17.3410 H         1 UNK         0.0000 
     30 H30         7.8738   56.7272   18.1019 H         1 UNK         0.0000 
     31 H31         4.7098   55.2054   21.1673 H         1 UNK         0.0000 
     32 H32         3.0884   54.6527   22.8187 H         1 UNK         0.0000 
     33 H33         2.5822   50.7426   21.0727 H         1 UNK         0.0000 
     34 H34         4.0556   51.3986   19.2817 H         1 UNK         0.0000 
     35 H35         1.6583   51.1721   23.1726 H         1 UNK         0.0000 
     36 H36         0.9603   52.5370   27.2496 H         1 UNK         0.0000 
     37 H37         2.5954   52.7451   29.0943 H         1 UNK         0.0000 
     38 H38         3.9104   54.1418   24.5435 H         1 UNK         0.0000 
     39 H39         6.3044   55.6968   27.6727 H         1 UNK         0.0000 
     40 H40         7.6164   54.7454   26.9836 H         1 UNK         0.0000 
     41 H41         7.0636   53.9605   29.2817 H         1 UNK         0.0000 
     42 H42         6.7187   52.7148   28.0817 H         1 UNK         0.0000 
@<TRIPOS>BOND
     1    1    2 1    
     2    1   28 1    
     3    1   29 1    
     4    1   30 1    
     5    2    7 ar   
     6    2    3 ar   
     7    3    4 ar   
     8    4    5 ar   
     9    4    8 1    
    10    5    6 1    
    11    5    7 ar   
    12    8   13 ar   
    13    8    9 ar   
    14    9   10 ar   
    15    9   31 1    
    16   10   11 ar   
    17   10   32 1    
    18   11   12 ar   
    19   11   14 1    
    20   12   13 ar   
    21   12   33 1    
    22   13   34 1    
    23   14   15 1    
    24   14   35 1    
    25   15   16 2    
    26   15   17 2    
    27   15   18 1    
    28   18   23 ar   
    29   18   19 ar   
    30   19   20 ar   
    31   19   36 1    
    32   20   21 ar   
    33   20   37 1    
    34   21   27 1    
    35   21   22 ar   
    36   22   23 ar   
    37   22   24 1    
    38   23   38 1    
    39   24   25 1    
    40   25   26 1    
    41   25   39 1    
    42   25   40 1    
    43   26   27 1    
    44   26   41 1    
    45   26   42 1    
@<TRIPOS>SUBSTRUCTURE
     1 UNK         1 GROUP             0       ****    0 ROOT    
