@<TRIPOS>MOLECULE
ZINC35664575_1081
76   79    1
SMALL
USER_CHARGES


@<TRIPOS>ATOM
      1 C1          5.7858   54.3337   25.0865 C.3       1 UNK         0.0000 
      2 C2          6.6932   54.6939   23.9048 C.3       1 UNK         0.0000 
      3 O3          6.0014   54.4780   22.6770 O.3       1 UNK         0.0000 
      4 C4          6.3043   55.1811   21.5627 C.2       1 UNK         0.0000 
      5 O5          7.1336   56.0926   21.5773 O.2       1 UNK         0.0000 
      6 C6          5.5459   54.8287   20.3220 C.2       1 UNK         0.0000 
      7 C7          4.7103   53.7608   20.1066 C.2       1 UNK         0.0000 
      8 N8          4.0153   53.6367   18.8889 N.am      1 UNK         0.0000 
      9 C9          3.9750   54.6513   17.9486 C.2       1 UNK         0.0000 
     10 O10         3.3319   54.6742   16.8953 O.2       1 UNK         0.0000 
     11 N11         4.7422   55.7303   18.2104 N.am      1 UNK         0.0000 
     12 C12         5.8996   55.7229   19.1168 C.3       1 UNK         0.0000 
     13 H13         6.0809   56.7612   19.4138 H         1 UNK         0.0000 
     14 C14         7.2283   55.3098   18.4596 C.ar      1 UNK         0.0000 
     15 C15         7.3462   54.0913   17.7749 C.ar      1 UNK         0.0000 
     16 C16         8.5758   53.6955   17.2519 C.ar      1 UNK         0.0000 
     17 C17         9.6872   54.5193   17.4042 C.ar      1 UNK         0.0000 
     18 C18         9.5800   55.7342   18.0731 C.ar      1 UNK         0.0000 
     19 C19         8.3570   56.1271   18.6016 C.ar      1 UNK         0.0000 
     20 C20         3.2013   52.4625   18.4633 C.3       1 UNK         0.0000 
     21 C21         1.6949   52.6317   18.6306 C.2       1 UNK         0.0000 
     22 C22         0.8080   52.4836   17.6354 C.2       1 UNK         0.0000 
     23 C23         4.4055   52.6338   21.1226 C.3       1 UNK         0.0000 
     24 N24         2.9886   52.7703   21.7297 N.4       1 UNK         0.0000 
     25 C25         2.9502   53.7808   22.9005 C.3       1 UNK         0.0000 
     26 C26         1.5420   54.3179   23.1744 C.3       1 UNK         0.0000 
     27 C27         0.5804   53.4541   24.0074 C.3       1 UNK         0.0000 
     28 N28         0.6712   51.9988   23.8099 N.am      1 UNK         0.0000 
     29 C29         0.8403   51.5539   22.4163 C.3       1 UNK         0.0000 
     30 C30         2.3086   51.4045   21.9857 C.3       1 UNK         0.0000 
     31 C31         0.6232   51.0800   24.8208 C.2       1 UNK         0.0000 
     32 O32         0.7038   49.8689   24.6020 O.2       1 UNK         0.0000 
     33 C33         0.3932   51.5340   26.2457 C.ar      1 UNK         0.0000 
     34 C34        -0.6706   50.9871   26.9667 C.ar      1 UNK         0.0000 
     35 C35        -0.9127   51.3772   28.2802 C.ar      1 UNK         0.0000 
     36 C36        -0.0950   52.3247   28.8916 C.ar      1 UNK         0.0000 
     37 C37         0.9928   52.8784   28.1985 C.ar      1 UNK         0.0000 
     38 C38         1.2453   52.4471   26.8920 C.ar      1 UNK         0.0000 
     39 O39         1.8428   53.8355   28.7152 O.3       1 UNK         0.0000 
     40 C40         1.5317   54.4172   29.9767 C.3       1 UNK         0.0000 
     41 H41         6.3104   54.4555   26.0337 H         1 UNK         0.0000 
     42 H42         4.9015   54.9752   25.1119 H         1 UNK         0.0000 
     43 H43         5.4489   53.2972   25.0306 H         1 UNK         0.0000 
     44 H44         7.5912   54.0719   23.9190 H         1 UNK         0.0000 
     45 H45         7.0196   55.7342   24.0097 H         1 UNK         0.0000 
     46 H46         4.7779   56.3805   17.4383 H         1 UNK         0.0000 
     47 H47         6.5025   53.4280   17.6660 H         1 UNK         0.0000 
     48 H48         8.6675   52.7484   16.7395 H         1 UNK         0.0000 
     49 H49        10.6428   54.2102   17.0035 H         1 UNK         0.0000 
     50 H50        10.4493   56.3647   18.1934 H         1 UNK         0.0000 
     51 H51         8.2954   57.0647   19.1364 H         1 UNK         0.0000 
     52 H52         3.4049   52.2334   17.4134 H         1 UNK         0.0000 
     53 H53         3.5041   51.5487   18.9674 H         1 UNK         0.0000 
     54 H54         1.3333   52.8947   19.6116 H         1 UNK         0.0000 
     55 H55        -0.2495   52.6177   17.8054 H         1 UNK         0.0000 
     56 H56         1.1264   52.2260   16.6347 H         1 UNK         0.0000 
     57 H57         4.4914   51.6584   20.6509 H         1 UNK         0.0000 
     58 H58         5.0821   52.5305   21.9661 H         1 UNK         0.0000 
     59 H59         3.4340   53.3143   23.7592 H         1 UNK         0.0000 
     60 H60         3.5483   54.6231   22.5569 H         1 UNK         0.0000 
     61 H61         1.6029   55.2965   23.6587 H         1 UNK         0.0000 
     62 H62         1.1044   54.5033   22.1987 H         1 UNK         0.0000 
     63 H63        -0.4275   53.7435   23.7045 H         1 UNK         0.0000 
     64 H64         0.7012   53.7563   25.0391 H         1 UNK         0.0000 
     65 H65         0.2539   52.1540   21.7187 H         1 UNK         0.0000 
     66 H66         0.3814   50.5654   22.3138 H         1 UNK         0.0000 
     67 H67         2.3561   50.8822   21.0298 H         1 UNK         0.0000 
     68 H68         2.9081   50.8345   22.6931 H         1 UNK         0.0000 
     69 H69        -1.3171   50.2368   26.5251 H         1 UNK         0.0000 
     70 H70        -1.7257   50.9203   28.8308 H         1 UNK         0.0000 
     71 H71        -0.3161   52.6062   29.9107 H         1 UNK         0.0000 
     72 H72         2.1045   52.8489   26.3760 H         1 UNK         0.0000 
     73 H73         2.2709   55.1833   30.2049 H         1 UNK         0.0000 
     74 H74         0.5536   54.8975   29.9682 H         1 UNK         0.0000 
     75 H75         1.5566   53.6763   30.7754 H         1 UNK         0.0000 
     76 H76         2.4436   53.1906   20.9858 H         1 UNK         0.0000 
@<TRIPOS>BOND
     1    1    2 1    
     2    1   41 1    
     3    1   42 1    
     4    1   43 1    
     5    2    3 1    
     6    2   44 1    
     7    2   45 1    
     8    3    4 1    
     9    4    5 2    
    10    4    6 1    
    11    6   12 1    
    12    6    7 2    
    13    7    8 1    
    14    7   23 1    
    15    8    9 am   BACKBONE|DICT|INTERRES
    16    8   20 1    
    17    9   10 2    
    18    9   11 am   BACKBONE|DICT|INTERRES
    19   11   12 1    
    20   11   46 1    
    21   12   13 1    
    22   12   14 1    
    23   14   19 ar   
    24   14   15 ar   
    25   15   16 ar   
    26   15   47 1    
    27   16   17 ar   
    28   16   48 1    
    29   17   18 ar   
    30   17   49 1    
    31   18   19 ar   
    32   18   50 1    
    33   19   51 1    
    34   20   21 1    
    35   20   52 1    
    36   20   53 1    
    37   21   22 2    
    38   21   54 1    
    39   22   55 1    
    40   22   56 1    
    41   23   24 1    
    42   23   57 1    
    43   23   58 1    
    44   24   30 1    
    45   24   25 1    
    46   24   76 1    
    47   25   26 1    
    48   25   59 1    
    49   25   60 1    
    50   26   27 1    
    51   26   61 1    
    52   26   62 1    
    53   27   28 1    
    54   27   63 1    
    55   27   64 1    
    56   28   29 1    
    57   28   31 am   BACKBONE|DICT|INTERRES
    58   29   30 1    
    59   29   65 1    
    60   29   66 1    
    61   30   67 1    
    62   30   68 1    
    63   31   32 2    
    64   31   33 1    
    65   33   38 ar   
    66   33   34 ar   
    67   34   35 ar   
    68   34   69 1    
    69   35   36 ar   
    70   35   70 1    
    71   36   37 ar   
    72   36   71 1    
    73   37   38 ar   
    74   37   39 1    
    75   38   72 1    
    76   39   40 1    
    77   40   73 1    
    78   40   74 1    
    79   40   75 1    
@<TRIPOS>SUBSTRUCTURE
     1 UNK         1 GROUP             0       ****    0 ROOT    
