@<TRIPOS>MOLECULE
ZINC39558608_2513
41   43    1
SMALL
USER_CHARGES


@<TRIPOS>ATOM
      1 C1         -0.1823   51.2942   27.3571 C.ar      1 UNK         0.0000 
      2 C2         -0.5448   51.1400   26.0216 C.ar      1 UNK         0.0000 
      3 C3          0.0386   51.9519   25.0512 C.ar      1 UNK         0.0000 
      4 C4          0.9994   52.8958   25.4032 C.ar      1 UNK         0.0000 
      5 C5          1.3738   53.0440   26.7369 C.ar      1 UNK         0.0000 
      6 C6          0.7683   52.2511   27.7117 C.ar      1 UNK         0.0000 
      7 S7          1.1739   52.4724   29.4148 S.3       1 UNK         0.0000 
      8 C8          2.9556   52.1448   29.5546 C.3       1 UNK         0.0000 
      9 C9          3.8545   53.3388   29.2293 C.2       1 UNK         0.0000 
     10 O10         3.5886   54.4524   29.6817 O.2       1 UNK         0.0000 
     11 N11         4.9427   53.0834   28.4847 N.am      1 UNK         0.0000 
     12 C12         6.0227   54.0475   28.2682 C.3       1 UNK         0.0000 
     13 C13         6.1929   54.5062   26.8098 C.2       1 UNK         0.0000 
     14 O14         7.1042   55.2967   26.5926 O.2       1 UNK         0.0000 
     15 N15         5.3727   54.0393   25.8407 N.am      1 UNK         0.0000 
     16 C16         5.4604   54.2513   24.4458 C.ar      1 UNK         0.0000 
     17 C17         4.3389   53.9080   23.6717 C.ar      1 UNK         0.0000 
     18 C18         4.3334   54.0802   22.2807 C.ar      1 UNK         0.0000 
     19 C19         5.4765   54.6006   21.6788 C.ar      1 UNK         0.0000 
     20 C20         6.5786   54.9188   22.4167 C.ar      1 UNK         0.0000 
     21 C21         6.6070   54.7483   23.7949 C.ar      1 UNK         0.0000 
     22 N22         7.5020   55.4303   21.5396 N.pl3     1 UNK         0.0000 
     23 H23         8.4291   55.7370   21.7971 H         1 UNK         0.0000 
     24 C24         7.0130   55.4734   20.2833 C.ar      1 UNK         0.0000 
     25 O25         7.5705   55.9048   19.2804 O.2       1 UNK         0.0000 
     26 N26         5.7809   54.9290   20.3784 N.pl3     1 UNK         0.0000 
     27 H27         5.1668   54.8029   19.5871 H         1 UNK         0.0000 
     28 Br28       -0.4973   51.8002   23.2315 Br        1 UNK         0.0000 
     29 H29        -0.6452   50.6685   28.1088 H         1 UNK         0.0000 
     30 H30        -1.2847   50.4006   25.7475 H         1 UNK         0.0000 
     31 H31         1.4114   53.5412   24.6453 H         1 UNK         0.0000 
     32 H32         2.0920   53.8023   27.0118 H         1 UNK         0.0000 
     33 H33         3.1939   51.2965   28.9165 H         1 UNK         0.0000 
     34 H34         3.1685   51.8558   30.5832 H         1 UNK         0.0000 
     35 H35         5.1025   52.1472   28.1381 H         1 UNK         0.0000 
     36 H36         6.9554   53.5793   28.5844 H         1 UNK         0.0000 
     37 H37         5.8999   54.9337   28.8933 H         1 UNK         0.0000 
     38 H38         4.6099   53.4529   26.1423 H         1 UNK         0.0000 
     39 H39         3.4671   53.4944   24.1471 H         1 UNK         0.0000 
     40 H40         3.4574   53.8229   21.7022 H         1 UNK         0.0000 
     41 H41         7.5042   55.0074   24.3268 H         1 UNK         0.0000 
@<TRIPOS>BOND
     1    1    6 ar   
     2    1    2 ar   
     3    1   29 1    
     4    2    3 ar   
     5    2   30 1    
     6    3    4 ar   
     7    3   28 1    
     8    4    5 ar   
     9    4   31 1    
    10    5    6 ar   
    11    5   32 1    
    12    6    7 1    
    13    7    8 1    
    14    8    9 1    
    15    8   33 1    
    16    8   34 1    
    17    9   10 2    
    18    9   11 am   BACKBONE|DICT|INTERRES
    19   11   12 1    
    20   11   35 1    
    21   12   13 1    
    22   12   36 1    
    23   12   37 1    
    24   13   14 2    
    25   13   15 am   BACKBONE|DICT|INTERRES
    26   15   16 1    
    27   15   38 1    
    28   16   21 ar   
    29   16   17 ar   
    30   17   18 ar   
    31   17   39 1    
    32   18   19 ar   
    33   18   40 1    
    34   19   26 ar   
    35   19   20 ar   
    36   20   21 ar   
    37   20   22 ar   
    38   21   41 1    
    39   22   23 1    
    40   22   24 ar   
    41   24   25 2    
    42   24   26 ar   
    43   26   27 1    
@<TRIPOS>SUBSTRUCTURE
     1 UNK         1 GROUP             0       ****    0 ROOT    
