@<TRIPOS>MOLECULE
ZINC44590379_5614
63   67    1
SMALL
USER_CHARGES


@<TRIPOS>ATOM
      1 C1          3.4215   52.4950   18.9940 C.3       1 UNK         0.0000 
      2 C2          4.1215   52.3916   20.3568 C.3       1 UNK         0.0000 
      3 C3          3.1588   52.0962   21.5000 C.ar      1 UNK         0.0000 
      4 C4          2.7683   53.1142   22.3714 C.ar      1 UNK         0.0000 
      5 C5          1.9122   52.8299   23.4339 C.ar      1 UNK         0.0000 
      6 C6          1.4308   51.5268   23.6351 C.ar      1 UNK         0.0000 
      7 C7          1.8196   50.5153   22.7435 C.ar      1 UNK         0.0000 
      8 C8          2.6776   50.7991   21.6829 C.ar      1 UNK         0.0000 
      9 C9          0.5343   51.2379   24.7792 C.2       1 UNK         0.0000 
     10 N10         0.7104   51.8508   25.9001 N.2       1 UNK         0.0000 
     11 N11        -0.2116   51.7542   27.0173 N.pl3     1 UNK         0.0000 
     12 C12        -1.5759   51.2172   26.7195 C.3       1 UNK         0.0000 
     13 C13        -1.4027   49.9577   25.8429 C.3       1 UNK         0.0000 
     14 C14        -0.6088   50.2308   24.5537 C.3       1 UNK         0.0000 
     15 N15        -2.4157   50.8968   27.8718 N.3       1 UNK         0.0000 
     16 N16        -3.8601   51.0037   27.5575 N.pl3     1 UNK         0.0000 
     17 C17        -4.0843   51.9117   26.4216 C.3       1 UNK         0.0000 
     18 S18        -2.4929   52.4980   25.8353 S.3       1 UNK         0.0000 
     19 C19        -4.8333   51.1943   25.2643 C.2       1 UNK         0.0000 
     20 O20        -4.2763   50.7973   24.2385 O.2       1 UNK         0.0000 
     21 C21        -6.3436   51.0224   25.3958 C.3       1 UNK         0.0000 
     22 C22        -4.8511   50.5593   28.4512 C.ar      1 UNK         0.0000 
     23 C23        -6.0337   51.2845   28.6505 C.ar      1 UNK         0.0000 
     24 C24        -7.0057   50.8358   29.5431 C.ar      1 UNK         0.0000 
     25 C25        -6.8119   49.6501   30.2443 C.ar      1 UNK         0.0000 
     26 C26        -5.6418   48.8982   30.0702 C.ar      1 UNK         0.0000 
     27 C27        -4.6574   49.3873   29.1940 C.ar      1 UNK         0.0000 
     28 N28        -5.4579   47.6087   30.7763 N.pl3     1 UNK         0.0000 
     29 O29        -4.5103   46.8969   30.4633 O.co2     1 UNK         0.0000 
     30 O30        -6.2717   47.2910   31.6389 O.co2     1 UNK         0.0000 
     31 C31         0.0976   52.4920   28.1734 C.ar      1 UNK         0.0000 
     32 C32        -0.1951   52.0118   29.4604 C.ar      1 UNK         0.0000 
     33 C33         0.1306   52.7472   30.5977 C.ar      1 UNK         0.0000 
     34 C34         0.7523   53.9825   30.4682 C.ar      1 UNK         0.0000 
     35 C35         1.1044   54.4581   29.2112 C.ar      1 UNK         0.0000 
     36 C36         0.7996   53.7063   28.0815 C.ar      1 UNK         0.0000 
     37 H37         4.1411   52.7053   18.2034 H         1 UNK         0.0000 
     38 H38         2.9222   51.5593   18.7335 H         1 UNK         0.0000 
     39 H39         2.6765   53.2923   18.9913 H         1 UNK         0.0000 
     40 H40         4.6685   53.3136   20.5604 H         1 UNK         0.0000 
     41 H41         4.8810   51.6075   20.3188 H         1 UNK         0.0000 
     42 H42         3.1249   54.1250   22.2294 H         1 UNK         0.0000 
     43 H43         1.6249   53.6333   24.0991 H         1 UNK         0.0000 
     44 H44         1.4890   49.4955   22.8676 H         1 UNK         0.0000 
     45 H45         2.9787   50.0072   21.0099 H         1 UNK         0.0000 
     46 H46        -0.8738   49.1957   26.4190 H         1 UNK         0.0000 
     47 H47        -2.3689   49.5176   25.5935 H         1 UNK         0.0000 
     48 H48        -0.2313   49.2936   24.1460 H         1 UNK         0.0000 
     49 H49        -1.2653   50.6306   23.7800 H         1 UNK         0.0000 
     50 H50        -2.2045   49.9154   28.0810 H         1 UNK         0.0000 
     51 H51        -6.8345   51.9822   25.5669 H         1 UNK         0.0000 
     52 H52        -6.7494   50.5939   24.4765 H         1 UNK         0.0000 
     53 H53        -6.5823   50.3375   26.2104 H         1 UNK         0.0000 
     54 H54        -6.2135   52.2043   28.1176 H         1 UNK         0.0000 
     55 H55        -7.9138   51.4032   29.6874 H         1 UNK         0.0000 
     56 H56        -7.5865   49.3059   30.9156 H         1 UNK         0.0000 
     57 H57        -3.7367   48.8312   29.0639 H         1 UNK         0.0000 
     58 H58        -0.6541   51.0459   29.5990 H         1 UNK         0.0000 
     59 H59        -0.0946   52.3577   31.5820 H         1 UNK         0.0000 
     60 H60         0.9817   54.5660   31.3470 H         1 UNK         0.0000 
     61 H61         1.6181   55.4029   29.1084 H         1 UNK         0.0000 
     62 H62         1.1043   54.0922   27.1195 H         1 UNK         0.0000 
     63 H63        -4.6534   52.7876   26.7253 H         1 UNK         0.0000 
@<TRIPOS>BOND
     1    1    2 1    
     2    1   37 1    
     3    1   38 1    
     4    1   39 1    
     5    2    3 1    
     6    2   40 1    
     7    2   41 1    
     8    3    8 ar   
     9    3    4 ar   
    10    4    5 ar   
    11    4   42 1    
    12    5    6 ar   
    13    5   43 1    
    14    6    7 ar   
    15    6    9 1    
    16    7    8 ar   
    17    7   44 1    
    18    8   45 1    
    19    9   14 1    
    20    9   10 2    
    21   10   11 1    
    22   11   12 1    
    23   11   31 1    
    24   12   18 1    
    25   12   13 1    
    26   12   15 1    
    27   13   14 1    
    28   13   46 1    
    29   13   47 1    
    30   14   48 1    
    31   14   49 1    
    32   15   16 1    
    33   15   50 1    
    34   16   17 1    
    35   16   22 1    
    36   17   18 1    
    37   17   19 1    
    38   17   63 1    
    39   19   20 2    
    40   19   21 1    
    41   21   51 1    
    42   21   52 1    
    43   21   53 1    
    44   22   27 ar   
    45   22   23 ar   
    46   23   24 ar   
    47   23   54 1    
    48   24   25 ar   
    49   24   55 1    
    50   25   26 ar   
    51   25   56 1    
    52   26   27 ar   
    53   26   28 1    
    54   27   57 1    
    55   28   29 2    
    56   28   30 1    
    57   31   36 ar   
    58   31   32 ar   
    59   32   33 ar   
    60   32   58 1    
    61   33   34 ar   
    62   33   59 1    
    63   34   35 ar   
    64   34   60 1    
    65   35   36 ar   
    66   35   61 1    
    67   36   62 1    
@<TRIPOS>SUBSTRUCTURE
     1 UNK         1 GROUP             0       ****    0 ROOT    
