@<TRIPOS>MOLECULE
ZINC35337733_1230
63   66    1
SMALL
USER_CHARGES


@<TRIPOS>ATOM
      1 C1          9.4152   56.5990   16.1657 C.3       1 UNK         0.0000 
      2 C2          7.9972   56.2016   16.5683 C.2       1 UNK         0.0000 
      3 C3          7.5778   55.0272   17.1012 C.2       1 UNK         0.0000 
      4 C4          6.0903   54.7817   17.4460 C.3       1 UNK         0.0000 
      5 H5          5.7929   53.8629   16.9378 H         1 UNK         0.0000 
      6 N6          5.2478   55.8388   16.8295 N.pl3     1 UNK         0.0000 
      7 C7          3.8240   55.4700   16.7008 C.3       1 UNK         0.0000 
      8 C8          3.0612   56.4694   15.8078 C.3       1 UNK         0.0000 
      9 C9          3.1598   57.9346   16.2592 C.3       1 UNK         0.0000 
     10 S10         4.8728   58.4966   16.1850 S.3       1 UNK         0.0000 
     11 C11         5.7425   57.0214   16.4211 C.2       1 UNK         0.0000 
     12 N12         7.0632   57.1672   16.2920 N.pl3     1 UNK         0.0000 
     13 C13         5.8093   54.5663   18.9363 C.ar      1 UNK         0.0000 
     14 C14         5.0503   53.4664   19.3426 C.ar      1 UNK         0.0000 
     15 C15         4.7475   53.2861   20.6869 C.ar      1 UNK         0.0000 
     16 C16         5.2159   54.1903   21.6432 C.ar      1 UNK         0.0000 
     17 C17         5.9953   55.2859   21.2418 C.ar      1 UNK         0.0000 
     18 C18         6.2817   55.4738   19.8906 C.ar      1 UNK         0.0000 
     19 N19         4.8108   53.9403   22.9641 N.am      1 UNK         0.0000 
     20 C20         5.2161   54.4966   24.1273 C.2       1 UNK         0.0000 
     21 O21         6.1866   55.2481   24.2400 O.2       1 UNK         0.0000 
     22 C22         4.3658   54.1169   25.3270 C.ar      1 UNK         0.0000 
     23 C23         2.9908   53.8714   25.1622 C.ar      1 UNK         0.0000 
     24 C24         2.1876   53.5008   26.2370 C.ar      1 UNK         0.0000 
     25 C25         2.7325   53.3865   27.5193 C.ar      1 UNK         0.0000 
     26 C26         4.0859   53.6559   27.6944 C.ar      1 UNK         0.0000 
     27 C27         4.9212   54.0144   26.6194 C.ar      1 UNK         0.0000 
     28 O28         6.2767   54.2456   26.7811 O.3       1 UNK         0.0000 
     29 C29         6.8387   54.1853   28.0820 C.3       1 UNK         0.0000 
     30 O30         2.0235   53.0168   28.6454 O.3       1 UNK         0.0000 
     31 C31         0.6518   52.6531   28.5175 C.3       1 UNK         0.0000 
     32 C32         8.5072   53.9512   17.3934 C.2       1 UNK         0.0000 
     33 O33         9.5132   54.1208   18.0804 O.2       1 UNK         0.0000 
     34 N34         8.1819   52.7761   16.8323 N.am      1 UNK         0.0000 
     35 C35         8.9662   51.5531   16.9576 C.3       1 UNK         0.0000 
     36 H36         9.8182   57.3154   16.8834 H         1 UNK         0.0000 
     37 H37        10.1009   55.7520   16.1270 H         1 UNK         0.0000 
     38 H38         9.4332   57.0602   15.1759 H         1 UNK         0.0000 
     39 H39         3.7545   54.4631   16.2857 H         1 UNK         0.0000 
     40 H40         3.3985   55.4438   17.7052 H         1 UNK         0.0000 
     41 H41         3.4173   56.3817   14.7796 H         1 UNK         0.0000 
     42 H42         2.0098   56.1773   15.7765 H         1 UNK         0.0000 
     43 H43         2.5677   58.5990   15.6271 H         1 UNK         0.0000 
     44 H44         2.8134   58.0672   17.2817 H         1 UNK         0.0000 
     45 H45         4.6869   52.7466   18.6212 H         1 UNK         0.0000 
     46 H46         4.1447   52.4362   20.9736 H         1 UNK         0.0000 
     47 H47         6.3662   56.0054   21.9539 H         1 UNK         0.0000 
     48 H48         6.8717   56.3253   19.5834 H         1 UNK         0.0000 
     49 H49         4.0732   53.2605   23.0489 H         1 UNK         0.0000 
     50 H50         2.5158   53.9644   24.1951 H         1 UNK         0.0000 
     51 H51         1.1414   53.3092   26.0565 H         1 UNK         0.0000 
     52 H52         4.4764   53.5567   28.6948 H         1 UNK         0.0000 
     53 H53         7.8827   54.4958   28.0432 H         1 UNK         0.0000 
     54 H54         6.3033   54.8597   28.7560 H         1 UNK         0.0000 
     55 H55         6.8087   53.1704   28.4802 H         1 UNK         0.0000 
     56 H56         0.2682   52.3527   29.4936 H         1 UNK         0.0000 
     57 H57         0.5196   51.8070   27.8408 H         1 UNK         0.0000 
     58 H58         0.0451   53.4912   28.1702 H         1 UNK         0.0000 
     59 H59         7.3347   52.7122   16.2914 H         1 UNK         0.0000 
     60 H60         9.0024   51.0300   16.0020 H         1 UNK         0.0000 
     61 H61         9.9925   51.7365   17.2814 H         1 UNK         0.0000 
     62 H62         8.4936   50.8959   17.6839 H         1 UNK         0.0000 
     63 H63         7.3761   58.0680   15.9598 H         1 UNK         0.0000 
@<TRIPOS>BOND
     1    1    2 1    
     2    1   36 1    
     3    1   37 1    
     4    1   38 1    
     5    2   12 1    
     6    2    3 2    
     7    3    4 1    
     8    3   32 1    
     9    4    5 1    
    10    4    6 1    
    11    4   13 1    
    12    6   11 1    
    13    6    7 1    
    14    7    8 1    
    15    7   39 1    
    16    7   40 1    
    17    8    9 1    
    18    8   41 1    
    19    8   42 1    
    20    9   10 1    
    21    9   43 1    
    22    9   44 1    
    23   10   11 1    
    24   11   12 2    
    25   12   63 1    
    26   13   18 ar   
    27   13   14 ar   
    28   14   15 ar   
    29   14   45 1    
    30   15   16 ar   
    31   15   46 1    
    32   16   17 ar   
    33   16   19 1    
    34   17   18 ar   
    35   17   47 1    
    36   18   48 1    
    37   19   20 am   BACKBONE|DICT|INTERRES
    38   19   49 1    
    39   20   21 2    
    40   20   22 1    
    41   22   27 ar   
    42   22   23 ar   
    43   23   24 ar   
    44   23   50 1    
    45   24   25 ar   
    46   24   51 1    
    47   25   26 ar   
    48   25   30 1    
    49   26   27 ar   
    50   26   52 1    
    51   27   28 1    
    52   28   29 1    
    53   29   53 1    
    54   29   54 1    
    55   29   55 1    
    56   30   31 1    
    57   31   56 1    
    58   31   57 1    
    59   31   58 1    
    60   32   33 2    
    61   32   34 am   BACKBONE|DICT|INTERRES
    62   34   35 1    
    63   34   59 1    
    64   35   60 1    
    65   35   61 1    
    66   35   62 1    
@<TRIPOS>SUBSTRUCTURE
     1 UNK         1 GROUP             0       ****    0 ROOT    
