@<TRIPOS>MOLECULE
ZINC13564737_5158
65   70    1
SMALL
USER_CHARGES


@<TRIPOS>ATOM
      1 C1         -2.7580   50.8337   26.6454 C.3       1 UNK         0.0000 
      2 O2         -2.5196   51.2094   25.2926 O.3       1 UNK         0.0000 
      3 C3         -1.2856   51.7267   24.9363 C.ar      1 UNK         0.0000 
      4 C4         -0.2697   52.0040   25.8613 C.ar      1 UNK         0.0000 
      5 C5          0.9529   52.5146   25.4390 C.ar      1 UNK         0.0000 
      6 C6          1.2058   52.7849   24.0906 C.ar      1 UNK         0.0000 
      7 C7          0.1881   52.4961   23.1699 C.ar      1 UNK         0.0000 
      8 C8         -1.0508   51.9661   23.5751 C.ar      1 UNK         0.0000 
      9 O9         -2.0717   51.6507   22.6949 O.3       1 UNK         0.0000 
     10 C10        -1.8238   51.6604   21.2953 C.3       1 UNK         0.0000 
     11 C11         2.5336   53.3378   23.6232 C.ar      1 UNK         0.0000 
     12 C12         3.6649   53.7484   24.3637 C.ar      1 UNK         0.0000 
     13 C13         4.1102   53.8198   25.7542 C.ar      1 UNK         0.0000 
     14 C14         5.3902   54.1635   26.0704 C.ar      1 UNK         0.0000 
     15 C15         6.3542   54.5471   25.0398 C.ar      1 UNK         0.0000 
     16 O16         7.5009   54.9001   25.2811 O.2       1 UNK         0.0000 
     17 N17         5.9130   54.4791   23.7611 N.pl3     1 UNK         0.0000 
     18 H18         6.5947   54.7435   23.0670 H         1 UNK         0.0000 
     19 C19         4.6226   54.0966   23.4285 C.ar      1 UNK         0.0000 
     20 N20         4.0694   53.8806   22.1902 N.pl3     1 UNK         0.0000 
     21 N21         2.7966   53.4512   22.3280 N.2       1 UNK         0.0000 
     22 C22         4.6585   54.0336   20.9071 C.ar      1 UNK         0.0000 
     23 C23         5.6172   55.0289   20.6775 C.ar      1 UNK         0.0000 
     24 C24         6.2127   55.1554   19.4246 C.ar      1 UNK         0.0000 
     25 C25         5.8501   54.2853   18.3980 C.ar      1 UNK         0.0000 
     26 C26         4.8939   53.2966   18.6129 C.ar      1 UNK         0.0000 
     27 C27         4.2954   53.1706   19.8629 C.ar      1 UNK         0.0000 
     28 C28         5.9676   54.1192   27.4925 C.3       1 UNK         0.0000 
     29 N29         5.2849   53.2962   28.4815 N.pl3     1 UNK         0.0000 
     30 C30         4.0436   53.6662   29.0092 C.ar      1 UNK         0.0000 
     31 C31         3.4919   54.9381   28.8324 C.ar      1 UNK         0.0000 
     32 C32         2.2161   55.2473   29.2935 C.ar      1 UNK         0.0000 
     33 C33         1.4904   54.2718   29.9680 C.ar      1 UNK         0.0000 
     34 C34         2.0405   53.0032   30.1586 C.ar      1 UNK         0.0000 
     35 C35         3.3121   52.6973   29.6830 C.ar      1 UNK         0.0000 
     36 C36         1.0517   52.0970   30.8218 C.3       1 UNK         0.0000 
     37 C37        -0.0817   53.0180   31.2547 C.3       1 UNK         0.0000 
     38 C38         0.0802   54.3297   30.4927 C.3       1 UNK         0.0000 
     39 H39        -3.7457   50.3776   26.7292 H         1 UNK         0.0000 
     40 H40        -2.0299   50.0969   26.9852 H         1 UNK         0.0000 
     41 H41        -2.7325   51.6946   27.3152 H         1 UNK         0.0000 
     42 H42        -0.4058   51.8186   26.9160 H         1 UNK         0.0000 
     43 H43         1.6891   52.6894   26.1980 H         1 UNK         0.0000 
     44 H44         0.3681   52.6854   22.1244 H         1 UNK         0.0000 
     45 H45        -2.7008   51.2756   20.7714 H         1 UNK         0.0000 
     46 H46        -1.6407   52.6697   20.9329 H         1 UNK         0.0000 
     47 H47        -0.9775   51.0252   21.0320 H         1 UNK         0.0000 
     48 H48         3.4546   53.5282   26.5465 H         1 UNK         0.0000 
     49 H49         5.9025   55.7225   21.4526 H         1 UNK         0.0000 
     50 H50         6.9511   55.9232   19.2449 H         1 UNK         0.0000 
     51 H51         6.3176   54.3742   17.4281 H         1 UNK         0.0000 
     52 H52         4.6320   52.6107   17.8199 H         1 UNK         0.0000 
     53 H53         3.5687   52.3859   20.0143 H         1 UNK         0.0000 
     54 H54         6.0966   55.1354   27.8670 H         1 UNK         0.0000 
     55 H55         6.9753   53.6999   27.4388 H         1 UNK         0.0000 
     56 H56         5.4492   52.3024   28.4064 H         1 UNK         0.0000 
     57 H57         4.0306   55.6921   28.2937 H         1 UNK         0.0000 
     58 H58         1.8025   56.2297   29.1157 H         1 UNK         0.0000 
     59 H59         3.7226   51.7070   29.8115 H         1 UNK         0.0000 
     60 H60         1.4729   51.5761   31.6817 H         1 UNK         0.0000 
     61 H61         0.6844   51.3789   30.0826 H         1 UNK         0.0000 
     62 H62        -1.0388   52.5405   31.0669 H         1 UNK         0.0000 
     63 H63        -0.0134   53.2182   32.3239 H         1 UNK         0.0000 
     64 H64        -0.6317   54.3624   29.6715 H         1 UNK         0.0000 
     65 H65        -0.0963   55.1883   31.1402 H         1 UNK         0.0000 
@<TRIPOS>BOND
     1    1    2 1    
     2    1   39 1    
     3    1   40 1    
     4    1   41 1    
     5    2    3 1    
     6    3    8 ar   
     7    3    4 ar   
     8    4    5 ar   
     9    4   42 1    
    10    5    6 ar   
    11    5   43 1    
    12    6    7 ar   
    13    6   11 1    
    14    7    8 ar   
    15    7   44 1    
    16    8    9 1    
    17    9   10 1    
    18   10   45 1    
    19   10   46 1    
    20   10   47 1    
    21   11   21 ar   
    22   11   12 ar   
    23   12   19 ar   
    24   12   13 ar   
    25   13   14 ar   
    26   13   48 1    
    27   14   15 ar   
    28   14   28 1    
    29   15   16 2    
    30   15   17 ar   
    31   17   18 1    
    32   17   19 ar   
    33   19   20 ar   
    34   20   21 ar   
    35   20   22 1    
    36   22   27 ar   
    37   22   23 ar   
    38   23   24 ar   
    39   23   49 1    
    40   24   25 ar   
    41   24   50 1    
    42   25   26 ar   
    43   25   51 1    
    44   26   27 ar   
    45   26   52 1    
    46   27   53 1    
    47   28   29 1    
    48   28   54 1    
    49   28   55 1    
    50   29   30 1    
    51   29   56 1    
    52   30   35 ar   
    53   30   31 ar   
    54   31   32 ar   
    55   31   57 1    
    56   32   33 ar   
    57   32   58 1    
    58   33   38 1    
    59   33   34 ar   
    60   34   35 ar   
    61   34   36 1    
    62   35   59 1    
    63   36   37 1    
    64   36   60 1    
    65   36   61 1    
    66   37   38 1    
    67   37   62 1    
    68   37   63 1    
    69   38   64 1    
    70   38   65 1    
@<TRIPOS>SUBSTRUCTURE
     1 UNK         1 GROUP             0       ****    0 ROOT    
