@<TRIPOS>MOLECULE
ZINC20321887_6039
61   64    1
SMALL
USER_CHARGES


@<TRIPOS>ATOM
      1 C1          9.1739   58.1394   17.5651 C.ar      1 UNK         0.0000 
      2 C2          7.9309   58.7542   17.7047 C.ar      1 UNK         0.0000 
      3 C3          6.8504   58.0174   18.1754 C.ar      1 UNK         0.0000 
      4 C4          7.0030   56.6635   18.4944 C.ar      1 UNK         0.0000 
      5 C5          8.2547   56.0530   18.3401 C.ar      1 UNK         0.0000 
      6 C6          9.3412   56.7931   17.8828 C.ar      1 UNK         0.0000 
      7 C7          5.8133   55.8819   19.0598 C.3       1 UNK         0.0000 
      8 C8          5.0942   55.0640   17.9852 C.ar      1 UNK         0.0000 
      9 C9          5.6080   53.8318   17.5693 C.ar      1 UNK         0.0000 
     10 C10         4.9223   53.0741   16.6242 C.ar      1 UNK         0.0000 
     11 C11         3.7229   53.5465   16.0963 C.ar      1 UNK         0.0000 
     12 C12         3.2051   54.7746   16.5033 C.ar      1 UNK         0.0000 
     13 C13         3.8893   55.5324   17.4484 C.ar      1 UNK         0.0000 
     14 N14         6.1349   55.0673   20.3477 N.4       1 UNK         0.0000 
     15 C15         4.8576   54.4575   20.9800 C.3       1 UNK         0.0000 
     16 C16         5.2363   53.6385   22.2245 C.3       1 UNK         0.0000 
     17 N17         5.8881   54.4944   23.2238 N.3       1 UNK         0.0000 
     18 C18         7.1038   55.1297   22.6955 C.3       1 UNK         0.0000 
     19 C19         6.8567   55.9338   21.4059 C.3       1 UNK         0.0000 
     20 C20         6.1958   53.6977   24.4220 C.3       1 UNK         0.0000 
     21 C21         6.1332   54.4482   25.7710 C.3       1 UNK         0.0000 
     22 H22         6.4032   53.7498   26.5634 H         1 UNK         0.0000 
     23 C23         4.7504   55.0469   26.0862 C.3       1 UNK         0.0000 
     24 O24         3.7244   54.0652   26.1966 O.3       1 UNK         0.0000 
     25 C25         3.3575   53.5721   27.4338 C.ar      1 UNK         0.0000 
     26 C26         4.1236   53.7178   28.6013 C.ar      1 UNK         0.0000 
     27 C27         3.6783   53.1828   29.8118 C.ar      1 UNK         0.0000 
     28 C28         2.4621   52.5030   29.8720 C.ar      1 UNK         0.0000 
     29 C29         1.6950   52.3497   28.7187 C.ar      1 UNK         0.0000 
     30 C30         2.1391   52.8839   27.5072 C.ar      1 UNK         0.0000 
     31 Br31        1.0658   52.6502   25.9481 Br        1 UNK         0.0000 
     32 O32         7.0931   55.4820   25.7741 O.3       1 UNK         0.0000 
     33 H33        10.0139   58.7123   17.2009 H         1 UNK         0.0000 
     34 H34         7.7972   59.7969   17.4490 H         1 UNK         0.0000 
     35 H35         5.8943   58.5117   18.2835 H         1 UNK         0.0000 
     36 H36         8.3940   55.0105   18.5869 H         1 UNK         0.0000 
     37 H37        10.3089   56.3240   17.7764 H         1 UNK         0.0000 
     38 H38         5.1053   56.6128   19.4551 H         1 UNK         0.0000 
     39 H39         6.5293   53.4478   17.9788 H         1 UNK         0.0000 
     40 H40         5.3088   52.1109   16.3169 H         1 UNK         0.0000 
     41 H41         3.1903   52.9517   15.3688 H         1 UNK         0.0000 
     42 H42         2.2743   55.1339   16.0888 H         1 UNK         0.0000 
     43 H43         3.4775   56.4815   17.7614 H         1 UNK         0.0000 
     44 H44         4.1955   55.2766   21.2511 H         1 UNK         0.0000 
     45 H45         4.3882   53.8151   20.2323 H         1 UNK         0.0000 
     46 H46         5.9039   52.8247   21.9412 H         1 UNK         0.0000 
     47 H47         4.3201   53.2101   22.6357 H         1 UNK         0.0000 
     48 H48         7.5340   55.8135   23.4185 H         1 UNK         0.0000 
     49 H49         7.8186   54.3337   22.4775 H         1 UNK         0.0000 
     50 H50         6.2475   56.8206   21.5703 H         1 UNK         0.0000 
     51 H51         7.8203   56.2126   20.9831 H         1 UNK         0.0000 
     52 H52         7.1701   53.2177   24.3262 H         1 UNK         0.0000 
     53 H53         5.4623   52.9019   24.5080 H         1 UNK         0.0000 
     54 H54         4.4495   55.6963   25.2739 H         1 UNK         0.0000 
     55 H55         4.7922   55.6947   26.9572 H         1 UNK         0.0000 
     56 H56         5.0747   54.2269   28.5881 H         1 UNK         0.0000 
     57 H57         4.2846   53.2933   30.6982 H         1 UNK         0.0000 
     58 H58         2.1115   52.0963   30.8073 H         1 UNK         0.0000 
     59 H59         0.7571   51.8140   28.7638 H         1 UNK         0.0000 
     60 H60         6.8870   56.0413   25.0200 H         1 UNK         0.0000 
     61 H61         6.7400   54.3016   20.0845 H         1 UNK         0.0000 
@<TRIPOS>BOND
     1    1    6 ar   
     2    1    2 ar   
     3    1   33 1    
     4    2    3 ar   
     5    2   34 1    
     6    3    4 ar   
     7    3   35 1    
     8    4    5 ar   
     9    4    7 1    
    10    5    6 ar   
    11    5   36 1    
    12    6   37 1    
    13    7    8 1    
    14    7   14 1    
    15    7   38 1    
    16    8   13 ar   
    17    8    9 ar   
    18    9   10 ar   
    19    9   39 1    
    20   10   11 ar   
    21   10   40 1    
    22   11   12 ar   
    23   11   41 1    
    24   12   13 ar   
    25   12   42 1    
    26   13   43 1    
    27   14   19 1    
    28   14   15 1    
    29   14   61 1    
    30   15   16 1    
    31   15   44 1    
    32   15   45 1    
    33   16   17 1    
    34   16   46 1    
    35   16   47 1    
    36   17   18 1    
    37   17   20 1    
    38   18   19 1    
    39   18   48 1    
    40   18   49 1    
    41   19   50 1    
    42   19   51 1    
    43   20   21 1    
    44   20   52 1    
    45   20   53 1    
    46   21   22 1    
    47   21   23 1    
    48   21   32 1    
    49   23   24 1    
    50   23   54 1    
    51   23   55 1    
    52   24   25 1    
    53   25   30 ar   
    54   25   26 ar   
    55   26   27 ar   
    56   26   56 1    
    57   27   28 ar   
    58   27   57 1    
    59   28   29 ar   
    60   28   58 1    
    61   29   30 ar   
    62   29   59 1    
    63   30   31 1    
    64   32   60 1    
@<TRIPOS>SUBSTRUCTURE
     1 UNK         1 GROUP             0       ****    0 ROOT    
