@<TRIPOS>MOLECULE
ZINC25336415_2502
62   65    1
SMALL
USER_CHARGES


@<TRIPOS>ATOM
      1 C1          2.4001   52.6002   21.9603 C.3       1 UNK         0.0000 
      2 C2          1.6498   51.2700   21.7280 C.3       1 UNK         0.0000 
      3 C3          2.4891   50.0831   22.2375 C.3       1 UNK         0.0000 
      4 C4          0.1505   51.2295   22.2070 C.3       1 UNK         0.0000 
      5 H5         -0.1463   50.1884   22.3568 H         1 UNK         0.0000 
      6 C6         -0.0552   51.9391   23.5801 C.2       1 UNK         0.0000 
      7 O7         -0.8291   52.8959   23.6819 O.2       1 UNK         0.0000 
      8 N8          0.6653   51.4300   24.6003 N.am      1 UNK         0.0000 
      9 N9          0.6066   51.9902   25.8818 N.am      1 UNK         0.0000 
     10 C10         1.5464   52.8975   26.2394 C.2       1 UNK         0.0000 
     11 O11         2.3124   53.4223   25.4245 O.2       1 UNK         0.0000 
     12 C12         1.7323   53.2242   27.7523 C.3       1 UNK         0.0000 
     13 C13         2.0705   54.7428   27.9427 C.3       1 UNK         0.0000 
     14 C14         2.4062   55.0425   29.4199 C.3       1 UNK         0.0000 
     15 C15         3.6174   54.1741   29.8542 C.3       1 UNK         0.0000 
     16 C16         3.2543   52.6746   29.7298 C.3       1 UNK         0.0000 
     17 C17         2.9356   52.3605   28.2480 C.3       1 UNK         0.0000 
     18 C18         2.0081   52.3532   30.5952 C.3       1 UNK         0.0000 
     19 C19         0.7980   53.2015   30.1229 C.3       1 UNK         0.0000 
     20 C20         1.1447   54.7066   30.2549 C.3       1 UNK         0.0000 
     21 C21         0.4867   52.8743   28.6339 C.3       1 UNK         0.0000 
     22 N22        -0.6988   51.7756   21.1395 N.am      1 UNK         0.0000 
     23 C23        -1.8881   51.2907   20.7449 C.2       1 UNK         0.0000 
     24 O24        -2.5555   50.5297   21.4395 O.2       1 UNK         0.0000 
     25 N25        -2.3552   51.6797   19.5379 N.am      1 UNK         0.0000 
     26 C26        -1.7553   52.4500   18.5189 C.ar      1 UNK         0.0000 
     27 C27        -2.6218   53.1569   17.6803 C.ar      1 UNK         0.0000 
     28 C28        -2.1118   53.9502   16.6543 C.ar      1 UNK         0.0000 
     29 C29        -0.7348   54.0208   16.4537 C.ar      1 UNK         0.0000 
     30 C30         0.1360   53.2913   17.2584 C.ar      1 UNK         0.0000 
     31 C31        -0.3716   52.4952   18.2831 C.ar      1 UNK         0.0000 
     32 H32         2.6886   52.7278   23.0020 H         1 UNK         0.0000 
     33 H33         3.3156   52.6393   21.3691 H         1 UNK         0.0000 
     34 H34         1.7891   53.4572   21.6794 H         1 UNK         0.0000 
     35 H35         1.6418   51.1351   20.6451 H         1 UNK         0.0000 
     36 H36         2.6345   50.1016   23.3164 H         1 UNK         0.0000 
     37 H37         2.0262   49.1293   21.9802 H         1 UNK         0.0000 
     38 H38         3.4759   50.0978   21.7732 H         1 UNK         0.0000 
     39 H39         1.2502   50.6095   24.5412 H         1 UNK         0.0000 
     40 H40         0.0111   51.4835   26.5205 H         1 UNK         0.0000 
     41 H41         2.8990   55.0587   27.3057 H         1 UNK         0.0000 
     42 H42         1.2082   55.3531   27.6814 H         1 UNK         0.0000 
     43 H43         2.6494   56.1005   29.5339 H         1 UNK         0.0000 
     44 H44         4.4806   54.4033   29.2274 H         1 UNK         0.0000 
     45 H45         3.9365   54.4040   30.8680 H         1 UNK         0.0000 
     46 H46         4.0982   52.0669   30.0592 H         1 UNK         0.0000 
     47 H47         2.7041   51.2984   28.1462 H         1 UNK         0.0000 
     48 H48         3.8264   52.5364   27.6413 H         1 UNK         0.0000 
     49 H49         1.7620   51.2993   30.5038 H         1 UNK         0.0000 
     50 H50         2.2143   52.5235   31.6526 H         1 UNK         0.0000 
     51 H51        -0.0739   52.9679   30.7376 H         1 UNK         0.0000 
     52 H52         1.2783   54.9950   31.2874 H         1 UNK         0.0000 
     53 H53         0.3047   55.3058   29.9169 H         1 UNK         0.0000 
     54 H54        -0.3900   53.4368   28.3052 H         1 UNK         0.0000 
     55 H55         0.2200   51.8190   28.5475 H         1 UNK         0.0000 
     56 H56        -0.3084   52.5584   20.6382 H         1 UNK         0.0000 
     57 H57        -3.2963   51.3745   19.3390 H         1 UNK         0.0000 
     58 H58        -3.6943   53.0942   17.8111 H         1 UNK         0.0000 
     59 H59        -2.7830   54.4994   16.0091 H         1 UNK         0.0000 
     60 H60        -0.3376   54.6287   15.6527 H         1 UNK         0.0000 
     61 H61         1.2016   53.3317   17.0804 H         1 UNK         0.0000 
     62 H62         0.3254   51.9099   18.8615 H         1 UNK         0.0000 
@<TRIPOS>BOND
     1    1    2 1    
     2    1   32 1    
     3    1   33 1    
     4    1   34 1    
     5    2    3 1    
     6    2    4 1    
     7    2   35 1    
     8    3   36 1    
     9    3   37 1    
    10    3   38 1    
    11    4    5 1    
    12    4    6 1    
    13    4   22 1    
    14    6    7 2    
    15    6    8 am   BACKBONE|DICT|INTERRES
    16    8    9 1    
    17    8   39 1    
    18    9   10 am   BACKBONE|DICT|INTERRES
    19    9   40 1    
    20   10   11 2    
    21   10   12 1    
    22   12   17 1    
    23   12   21 1    
    24   12   13 1    
    25   13   14 1    
    26   13   41 1    
    27   13   42 1    
    28   14   20 1    
    29   14   15 1    
    30   14   43 1    
    31   15   16 1    
    32   15   44 1    
    33   15   45 1    
    34   16   17 1    
    35   16   18 1    
    36   16   46 1    
    37   17   47 1    
    38   17   48 1    
    39   18   19 1    
    40   18   49 1    
    41   18   50 1    
    42   19   20 1    
    43   19   21 1    
    44   19   51 1    
    45   20   52 1    
    46   20   53 1    
    47   21   54 1    
    48   21   55 1    
    49   22   23 am   BACKBONE|DICT|INTERRES
    50   22   56 1    
    51   23   24 2    
    52   23   25 am   BACKBONE|DICT|INTERRES
    53   25   26 1    
    54   25   57 1    
    55   26   31 ar   
    56   26   27 ar   
    57   27   28 ar   
    58   27   58 1    
    59   28   29 ar   
    60   28   59 1    
    61   29   30 ar   
    62   29   60 1    
    63   30   31 ar   
    64   30   61 1    
    65   31   62 1    
@<TRIPOS>SUBSTRUCTURE
     1 UNK         1 GROUP             0       ****    0 ROOT    
