@<TRIPOS>MOLECULE
ZINC20616199_5434
68   72    1
SMALL
USER_CHARGES


@<TRIPOS>ATOM
      1 C1          3.7832   53.0059   29.4332 C.3       1 UNK         0.0000 
      2 C2          4.7882   53.3347   28.3194 C.3       1 UNK         0.0000 
      3 O3          4.0399   53.6444   27.1521 O.3       1 UNK         0.0000 
      4 C4          4.6903   53.8791   25.9569 C.ar      1 UNK         0.0000 
      5 C5          6.0844   53.8010   25.7960 C.ar      1 UNK         0.0000 
      6 C6          6.6758   54.1001   24.5674 C.ar      1 UNK         0.0000 
      7 C7          5.8956   54.4737   23.4691 C.ar      1 UNK         0.0000 
      8 C8          4.5053   54.4990   23.6232 C.ar      1 UNK         0.0000 
      9 C9          3.9000   54.2260   24.8482 C.ar      1 UNK         0.0000 
     10 C10         2.3943   54.4481   24.9895 C.3       1 UNK         0.0000 
     11 N11         1.3968   53.4452   24.3908 N.4       1 UNK         0.0000 
     12 C12         1.3317   53.4701   22.8506 C.3       1 UNK         0.0000 
     13 C13         0.2121   52.4926   22.4406 C.3       1 UNK         0.0000 
     14 H14         0.0747   52.5717   21.3600 H         1 UNK         0.0000 
     15 C15         0.6959   51.0722   22.7565 C.3       1 UNK         0.0000 
     16 C16         0.7564   50.9496   24.2845 C.3       1 UNK         0.0000 
     17 H17         1.1927   49.9749   24.5169 H         1 UNK         0.0000 
     18 C18         1.6382   52.0512   24.9655 C.3       1 UNK         0.0000 
     19 C19        -0.6895   50.9585   24.8000 C.ar      1 UNK         0.0000 
     20 C20        -1.1134   50.0794   25.7354 C.ar      1 UNK         0.0000 
     21 C21        -2.4966   50.1275   26.1597 C.ar      1 UNK         0.0000 
     22 C22        -3.3125   51.0641   25.6374 C.ar      1 UNK         0.0000 
     23 C23        -2.8648   52.0496   24.6651 C.ar      1 UNK         0.0000 
     24 O24        -3.6270   52.9473   24.2949 O.2       1 UNK         0.0000 
     25 N25        -1.5622   51.8995   24.2248 N.pl3     1 UNK         0.0000 
     26 C26        -1.1442   52.8331   23.1509 C.3       1 UNK         0.0000 
     27 C27         6.5360   54.8705   22.2113 C.2       1 UNK         0.0000 
     28 N28         5.8717   55.2561   21.1848 N.2       1 UNK         0.0000 
     29 N29         6.4502   55.7021   20.0142 N.am      1 UNK         0.0000 
     30 C30         7.7414   55.9678   19.6911 C.2       1 UNK         0.0000 
     31 O31         8.7166   55.6812   20.3815 O.2       1 UNK         0.0000 
     32 C32         7.9346   56.7015   18.3845 C.ar      1 UNK         0.0000 
     33 C33         7.1598   57.8528   18.1481 C.ar      1 UNK         0.0000 
     34 C34         7.3771   58.6488   17.0277 C.ar      1 UNK         0.0000 
     35 C35         8.3757   58.3134   16.1232 C.ar      1 UNK         0.0000 
     36 C36         9.1486   57.1748   16.3334 C.ar      1 UNK         0.0000 
     37 C37         8.9386   56.3380   17.4438 C.ar      1 UNK         0.0000 
     38 N38         9.7661   55.1019   17.5501 N.pl3     1 UNK         0.0000 
     39 O39        10.8858   55.1120   17.0461 O.co2     1 UNK         0.0000 
     40 O40         9.2840   54.0983   18.0657 O.co2     1 UNK         0.0000 
     41 H41         4.2862   52.7195   30.3572 H         1 UNK         0.0000 
     42 H42         3.1393   53.8596   29.6460 H         1 UNK         0.0000 
     43 H43         3.1452   52.1743   29.1383 H         1 UNK         0.0000 
     44 H44         5.4372   52.4761   28.1522 H         1 UNK         0.0000 
     45 H45         5.4118   54.1834   28.6048 H         1 UNK         0.0000 
     46 H46         6.7262   53.5240   26.6190 H         1 UNK         0.0000 
     47 H47         7.7523   54.0505   24.4695 H         1 UNK         0.0000 
     48 H48         3.8853   54.8049   22.7908 H         1 UNK         0.0000 
     49 H49         2.0929   54.4957   26.0373 H         1 UNK         0.0000 
     50 H50         2.0880   55.3292   24.4542 H         1 UNK         0.0000 
     51 H51         1.1067   54.4976   22.5617 H         1 UNK         0.0000 
     52 H52         2.3142   53.1849   22.4643 H         1 UNK         0.0000 
     53 H53         0.0243   50.3233   22.3278 H         1 UNK         0.0000 
     54 H54         1.6791   50.8820   22.3172 H         1 UNK         0.0000 
     55 H55         2.7050   51.9472   24.7844 H         1 UNK         0.0000 
     56 H56         1.4409   52.1092   26.0384 H         1 UNK         0.0000 
     57 H57        -0.4524   49.3461   26.1783 H         1 UNK         0.0000 
     58 H58        -2.8652   49.4059   26.8769 H         1 UNK         0.0000 
     59 H59        -4.3476   51.0998   25.9414 H         1 UNK         0.0000 
     60 H60        -1.1394   53.8199   23.6254 H         1 UNK         0.0000 
     61 H61        -1.9274   52.8946   22.3925 H         1 UNK         0.0000 
     62 H62         7.6195   54.8107   22.2412 H         1 UNK         0.0000 
     63 H63         5.7585   55.9398   19.3173 H         1 UNK         0.0000 
     64 H64         6.4015   58.1758   18.8478 H         1 UNK         0.0000 
     65 H65         6.7829   59.5427   16.8741 H         1 UNK         0.0000 
     66 H66         8.5471   58.9316   15.2542 H         1 UNK         0.0000 
     67 H67         9.9052   56.9295   15.6009 H         1 UNK         0.0000 
     68 H68         0.4706   53.7143   24.6945 H         1 UNK         0.0000 
@<TRIPOS>BOND
     1    1    2 1    
     2    1   41 1    
     3    1   42 1    
     4    1   43 1    
     5    2    3 1    
     6    2   44 1    
     7    2   45 1    
     8    3    4 1    
     9    4    9 ar   
    10    4    5 ar   
    11    5    6 ar   
    12    5   46 1    
    13    6    7 ar   
    14    6   47 1    
    15    7    8 ar   
    16    7   27 1    
    17    8    9 ar   
    18    8   48 1    
    19    9   10 1    
    20   10   11 1    
    21   10   49 1    
    22   10   50 1    
    23   11   18 1    
    24   11   12 1    
    25   11   68 1    
    26   12   13 1    
    27   12   51 1    
    28   12   52 1    
    29   13   14 1    
    30   13   26 1    
    31   13   15 1    
    32   15   16 1    
    33   15   53 1    
    34   15   54 1    
    35   16   17 1    
    36   16   18 1    
    37   16   19 1    
    38   18   55 1    
    39   18   56 1    
    40   19   25 ar   
    41   19   20 ar   
    42   20   21 ar   
    43   20   57 1    
    44   21   22 ar   
    45   21   58 1    
    46   22   23 ar   
    47   22   59 1    
    48   23   24 2    
    49   23   25 ar   
    50   25   26 1    
    51   26   60 1    
    52   26   61 1    
    53   27   28 2    
    54   27   62 1    
    55   28   29 1    
    56   29   30 am   BACKBONE|DICT|INTERRES
    57   29   63 1    
    58   30   31 2    
    59   30   32 1    
    60   32   37 ar   
    61   32   33 ar   
    62   33   34 ar   
    63   33   64 1    
    64   34   35 ar   
    65   34   65 1    
    66   35   36 ar   
    67   35   66 1    
    68   36   37 ar   
    69   36   67 1    
    70   37   38 1    
    71   38   39 2    
    72   38   40 1    
@<TRIPOS>SUBSTRUCTURE
     1 UNK         1 GROUP             0       ****    0 ROOT    
