@<TRIPOS>MOLECULE
ZINC47136010_2780
55   59    1
SMALL
USER_CHARGES


@<TRIPOS>ATOM
      1 C1          6.0163   53.3207   27.5804 C.3       1 UNK         0.0000 
      2 C2          5.3318   54.5932   27.0558 C.3       1 UNK         0.0000 
      3 H3          5.3680   55.2968   27.8886 H         1 UNK         0.0000 
      4 C4          6.0795   55.2962   25.8989 C.3       1 UNK         0.0000 
      5 C5          6.0894   54.4777   24.5978 C.3       1 UNK         0.0000 
      6 C6          4.6428   54.0964   24.2518 C.2       1 UNK         0.0000 
      7 C7          3.6435   54.0532   25.2422 C.2       1 UNK         0.0000 
      8 S8          2.1153   53.5474   24.6087 S.3       1 UNK         0.0000 
      9 C9          2.7919   53.3626   23.0246 C.2       1 UNK         0.0000 
     10 C10         4.1389   53.7526   22.9682 C.2       1 UNK         0.0000 
     11 C11         4.9351   53.6956   21.7665 C.2       1 UNK         0.0000 
     12 O12         5.1031   52.6320   21.1711 O.2       1 UNK         0.0000 
     13 N13         5.4836   54.8691   21.4021 N.am      1 UNK         0.0000 
     14 C14         6.4095   55.0609   20.2853 C.3       1 UNK         0.0000 
     15 H15         6.6324   54.1390   19.7361 H         1 UNK         0.0000 
     16 C16         7.7446   55.6193   20.8351 C.3       1 UNK         0.0000 
     17 C17         8.6187   56.0225   19.6436 C.3       1 UNK         0.0000 
     18 S18         7.4128   56.8531   18.4832 S.o2      1 UNK         0.0000 
     19 O19         7.6072   56.3179   17.1327 O.2       1 UNK         0.0000 
     20 O20         7.4029   58.2957   18.7326 O.2       1 UNK         0.0000 
     21 C21         5.8916   56.1010   19.2807 C.3       1 UNK         0.0000 
     22 N22         1.9939   52.8971   22.0080 N.pl3     1 UNK         0.0000 
     23 C23         1.1424   51.7522   22.0719 C.3       1 UNK         0.0000 
     24 H24         1.3167   51.1487   22.9661 H         1 UNK         0.0000 
     25 C25         1.2638   50.9209   20.8188 C.ar      1 UNK         0.0000 
     26 C26         2.3596   50.2729   20.2464 C.ar      1 UNK         0.0000 
     27 C27         2.1820   49.5923   19.0402 C.ar      1 UNK         0.0000 
     28 C28         0.9281   49.5707   18.4186 C.ar      1 UNK         0.0000 
     29 C29        -0.1599   50.2309   19.0005 C.ar      1 UNK         0.0000 
     30 C30         0.0255   50.9026   20.2101 C.ar      1 UNK         0.0000 
     31 C31        -0.8966   51.6954   21.0386 C.2       1 UNK         0.0000 
     32 O32        -2.0793   51.9834   20.8503 O.2       1 UNK         0.0000 
     33 O33        -0.2067   52.0972   22.1398 O.3       1 UNK         0.0000 
     34 C34         3.8284   54.3955   26.7200 C.3       1 UNK         0.0000 
     35 H35         5.8998   52.4967   26.8812 H         1 UNK         0.0000 
     36 H36         7.0817   53.4760   27.7495 H         1 UNK         0.0000 
     37 H37         5.5788   52.9983   28.5257 H         1 UNK         0.0000 
     38 H38         5.6082   56.2512   25.6811 H         1 UNK         0.0000 
     39 H39         7.1043   55.5099   26.1965 H         1 UNK         0.0000 
     40 H40         6.6982   53.5819   24.7179 H         1 UNK         0.0000 
     41 H41         6.5655   55.0654   23.8133 H         1 UNK         0.0000 
     42 H42         5.2233   55.6906   21.9235 H         1 UNK         0.0000 
     43 H43         8.2497   54.8961   21.4731 H         1 UNK         0.0000 
     44 H44         7.5615   56.4793   21.4837 H         1 UNK         0.0000 
     45 H45         8.9588   55.1085   19.1539 H         1 UNK         0.0000 
     46 H46         9.4980   56.6435   19.8160 H         1 UNK         0.0000 
     47 H47         5.5045   56.9385   19.8551 H         1 UNK         0.0000 
     48 H48         5.1241   55.8138   18.5654 H         1 UNK         0.0000 
     49 H49         1.9803   53.3631   21.1091 H         1 UNK         0.0000 
     50 H50         3.3361   50.3088   20.7062 H         1 UNK         0.0000 
     51 H51         3.0268   49.1021   18.5745 H         1 UNK         0.0000 
     52 H52         0.8098   49.0518   17.4768 H         1 UNK         0.0000 
     53 H53        -1.1204   50.2198   18.5061 H         1 UNK         0.0000 
     54 H54         3.2740   55.2970   26.9718 H         1 UNK         0.0000 
     55 H55         3.4103   53.6051   27.3451 H         1 UNK         0.0000 
@<TRIPOS>BOND
     1    1    2 1    
     2    1   35 1    
     3    1   36 1    
     4    1   37 1    
     5    2    3 1    
     6    2   34 1    
     7    2    4 1    
     8    4    5 1    
     9    4   38 1    
    10    4   39 1    
    11    5    6 1    
    12    5   40 1    
    13    5   41 1    
    14    6   10 1    
    15    6    7 2    
    16    7    8 1    
    17    7   34 1    
    18    8    9 1    
    19    9   10 2    
    20    9   22 1    
    21   10   11 1    
    22   11   12 2    
    23   11   13 am   BACKBONE|DICT|INTERRES
    24   13   14 1    
    25   13   42 1    
    26   14   15 1    
    27   14   21 1    
    28   14   16 1    
    29   16   17 1    
    30   16   43 1    
    31   16   44 1    
    32   17   18 1    
    33   17   45 1    
    34   17   46 1    
    35   18   19 2    
    36   18   20 2    
    37   18   21 1    
    38   21   47 1    
    39   21   48 1    
    40   22   23 1    
    41   22   49 1    
    42   23   24 1    
    43   23   33 1    
    44   23   25 1    
    45   25   30 ar   
    46   25   26 ar   
    47   26   27 ar   
    48   26   50 1    
    49   27   28 ar   
    50   27   51 1    
    51   28   29 ar   
    52   28   52 1    
    53   29   30 ar   
    54   29   53 1    
    55   30   31 1    
    56   31   32 2    
    57   31   33 1    
    58   34   54 1    
    59   34   55 1    
@<TRIPOS>SUBSTRUCTURE
     1 UNK         1 GROUP             0       ****    0 ROOT    
