@<TRIPOS>MOLECULE
ZINC20720968_194
49   52    1
SMALL
USER_CHARGES


@<TRIPOS>ATOM
      1 C1          4.9581   53.5889   28.0704 C.3       1 UNK         0.0000 
      2 O2          4.8036   53.7767   26.6696 O.3       1 UNK         0.0000 
      3 C3          5.7114   54.4916   25.9626 C.2       1 UNK         0.0000 
      4 O4          6.7033   55.0187   26.4838 O.2       1 UNK         0.0000 
      5 C5          5.4728   54.4883   24.4698 C.ar      1 UNK         0.0000 
      6 C6          6.5733   54.8943   23.6901 C.ar      1 UNK         0.0000 
      7 C7          6.5272   54.8978   22.3014 C.ar      1 UNK         0.0000 
      8 C8          5.3756   54.4886   21.6483 C.ar      1 UNK         0.0000 
      9 C9          4.2686   54.0876   22.3873 C.ar      1 UNK         0.0000 
     10 C10         4.2751   54.0972   23.7974 C.ar      1 UNK         0.0000 
     11 N11         3.1042   53.7017   24.5059 N.am      1 UNK         0.0000 
     12 C12         1.8110   53.8124   24.0951 C.2       1 UNK         0.0000 
     13 O13         1.5045   54.4967   23.1193 O.2       1 UNK         0.0000 
     14 N14         0.8456   53.1780   24.8296 N.am      1 UNK         0.0000 
     15 C15        -0.5689   53.2430   24.3634 C.3       1 UNK         0.0000 
     16 C16        -0.9147   51.9478   23.5772 C.3       1 UNK         0.0000 
     17 C17        -0.5343   50.7901   24.4751 C.ar      1 UNK         0.0000 
     18 C18         0.3143   50.9214   25.5735 C.ar      1 UNK         0.0000 
     19 N19         0.3534   49.6807   26.1918 N.pl3     1 UNK         0.0000 
     20 C20        -0.5179   48.8263   25.5583 C.ar      1 UNK         0.0000 
     21 N21        -1.0792   49.5177   24.5072 N.pl3     1 UNK         0.0000 
     22 H22        -1.7838   49.1671   23.8753 H         1 UNK         0.0000 
     23 C23         1.0868   52.2099   25.9414 C.3       1 UNK         0.0000 
     24 H24         2.1577   52.0437   25.9467 H         1 UNK         0.0000 
     25 C25         0.8630   52.7589   27.3632 C.ar      1 UNK         0.0000 
     26 C26         1.5097   53.9426   27.7412 C.ar      1 UNK         0.0000 
     27 C27         1.3473   54.4613   29.0216 C.ar      1 UNK         0.0000 
     28 C28         0.5443   53.7891   29.9383 C.ar      1 UNK         0.0000 
     29 C29        -0.0969   52.6065   29.5877 C.ar      1 UNK         0.0000 
     30 C30         0.0489   52.1006   28.3001 C.ar      1 UNK         0.0000 
     31 Br31        0.3044   54.4961   31.6833 Br        1 UNK         0.0000 
     32 H32         4.1456   52.9699   28.4541 H         1 UNK         0.0000 
     33 H33         5.9009   53.0869   28.2966 H         1 UNK         0.0000 
     34 H34         4.9403   54.5454   28.5975 H         1 UNK         0.0000 
     35 H35         7.5036   55.2019   24.1472 H         1 UNK         0.0000 
     36 H36         7.3941   55.2047   21.7365 H         1 UNK         0.0000 
     37 H37         5.3364   54.4771   20.5684 H         1 UNK         0.0000 
     38 H38         3.4032   53.7607   21.8295 H         1 UNK         0.0000 
     39 H39         3.2782   53.3056   25.4183 H         1 UNK         0.0000 
     40 H40        -1.1994   53.2966   25.2539 H         1 UNK         0.0000 
     41 H41        -0.8027   54.1730   23.8458 H         1 UNK         0.0000 
     42 H42        -1.9724   51.9282   23.3150 H         1 UNK         0.0000 
     43 H43        -0.3648   51.9204   22.6353 H         1 UNK         0.0000 
     44 H44        -0.7529   47.8190   25.8799 H         1 UNK         0.0000 
     45 H45         2.1380   54.4725   27.0421 H         1 UNK         0.0000 
     46 H46         1.8370   55.3838   29.2990 H         1 UNK         0.0000 
     47 H47        -0.7174   52.0905   30.3084 H         1 UNK         0.0000 
     48 H48        -0.4857   51.1938   28.0619 H         1 UNK         0.0000 
     49 H49         0.8743   49.4526   27.0274 H         1 UNK         0.0000 
@<TRIPOS>BOND
     1    1    2 1    
     2    1   32 1    
     3    1   33 1    
     4    1   34 1    
     5    2    3 1    
     6    3    4 2    
     7    3    5 1    
     8    5   10 ar   
     9    5    6 ar   
    10    6    7 ar   
    11    6   35 1    
    12    7    8 ar   
    13    7   36 1    
    14    8    9 ar   
    15    8   37 1    
    16    9   10 ar   
    17    9   38 1    
    18   10   11 1    
    19   11   12 am   BACKBONE|DICT|INTERRES
    20   11   39 1    
    21   12   13 2    
    22   12   14 am   BACKBONE|DICT|INTERRES
    23   14   23 1    
    24   14   15 1    
    25   15   16 1    
    26   15   40 1    
    27   15   41 1    
    28   16   17 1    
    29   16   42 1    
    30   16   43 1    
    31   17   21 ar   
    32   17   18 ar   
    33   18   19 ar   
    34   18   23 1    
    35   19   20 ar   
    36   19   49 1    
    37   20   21 ar   
    38   20   44 1    
    39   21   22 1    
    40   23   24 1    
    41   23   25 1    
    42   25   30 ar   
    43   25   26 ar   
    44   26   27 ar   
    45   26   45 1    
    46   27   28 ar   
    47   27   46 1    
    48   28   29 ar   
    49   28   31 1    
    50   29   30 ar   
    51   29   47 1    
    52   30   48 1    
@<TRIPOS>SUBSTRUCTURE
     1 UNK         1 GROUP             0       ****    0 ROOT    
