@<TRIPOS>MOLECULE
ZINC35024451_4391
70   73    1
SMALL
USER_CHARGES


@<TRIPOS>ATOM
      1 C1         -4.9278   48.7101   22.7743 C.3       1 UNK         0.0000 
      2 C2         -3.6342   48.1339   23.3880 C.3       1 UNK         0.0000 
      3 H3         -3.9239   47.2768   23.9966 H         1 UNK         0.0000 
      4 C4         -2.8994   49.1311   24.3129 C.3       1 UNK         0.0000 
      5 C5         -3.7417   49.8341   25.3998 C.3       1 UNK         0.0000 
      6 C6         -2.9089   50.7347   26.3423 C.3       1 UNK         0.0000 
      7 C7         -1.9724   51.7076   25.6086 C.2       1 UNK         0.0000 
      8 O8         -2.4472   52.5491   24.8451 O.2       1 UNK         0.0000 
      9 C9         -0.5382   51.5380   25.8366 C.2       1 UNK         0.0000 
     10 C10         0.4803   51.8491   24.9991 C.2       1 UNK         0.0000 
     11 C11         0.4152   52.3677   23.6422 C.2       1 UNK         0.0000 
     12 O12         0.7103   53.5346   23.4097 O.2       1 UNK         0.0000 
     13 O13         0.1066   51.4099   22.6981 O.3       1 UNK         0.0000 
     14 C14         0.8103   51.1636   21.4341 C.3       1 UNK         0.0000 
     15 C15        -0.1362   50.2194   20.5780 C.3       1 UNK         0.0000 
     16 H16         0.5099   49.6636   19.8999 H         1 UNK         0.0000 
     17 C17        -0.7994   49.0992   21.4073 C.2       1 UNK         0.0000 
     18 C18        -2.0924   48.7163   21.4103 C.2       1 UNK         0.0000 
     19 C19        -2.6676   47.6181   22.2940 C.3       1 UNK         0.0000 
     20 C20        -1.1130   51.0115   19.6445 C.3       1 UNK         0.0000 
     21 H21        -1.8612   51.4973   20.2747 H         1 UNK         0.0000 
     22 C22        -0.4161   52.1123   18.8265 C.2       1 UNK         0.0000 
     23 C23        -1.0816   52.8751   17.9379 C.2       1 UNK         0.0000 
     24 C24         1.0752   52.3175   19.1032 C.3       1 UNK         0.0000 
     25 H25         1.3412   53.2974   18.7037 H         1 UNK         0.0000 
     26 C26         1.2700   52.4273   20.6464 C.3       1 UNK         0.0000 
     27 H27         0.6651   53.2867   20.9461 H         1 UNK         0.0000 
     28 C28         2.7047   52.6984   21.1526 C.3       1 UNK         0.0000 
     29 H29         2.6351   53.3765   22.0001 H         1 UNK         0.0000 
     30 N30         3.1213   51.3914   21.6369 N.am      1 UNK         0.0000 
     31 C31         2.1575   50.4658   21.7601 C.2       1 UNK         0.0000 
     32 O32         2.3114   49.2922   22.0816 O.2       1 UNK         0.0000 
     33 C33         3.7500   53.3331   20.1962 C.3       1 UNK         0.0000 
     34 C34         4.9393   54.0304   20.8674 C.ar      1 UNK         0.0000 
     35 C35         5.2604   53.8407   22.2201 C.ar      1 UNK         0.0000 
     36 C36         6.3306   54.5211   22.7894 C.ar      1 UNK         0.0000 
     37 C37         7.0852   55.3905   22.0077 C.ar      1 UNK         0.0000 
     38 C38         6.7896   55.5764   20.6603 C.ar      1 UNK         0.0000 
     39 C39         5.7190   54.8939   20.0917 C.ar      1 UNK         0.0000 
     40 C40         1.9032   51.3092   18.2619 C.3       1 UNK         0.0000 
     41 O41        -1.8290   50.1733   18.7516 O.3       1 UNK         0.0000 
     42 H42        -5.3809   48.0065   22.0775 H         1 UNK         0.0000 
     43 H43        -5.6733   48.9242   23.5392 H         1 UNK         0.0000 
     44 H44        -4.7394   49.6365   22.2337 H         1 UNK         0.0000 
     45 H45        -2.0628   48.6191   24.7906 H         1 UNK         0.0000 
     46 H46        -2.4552   49.9054   23.6903 H         1 UNK         0.0000 
     47 H47        -4.5204   50.4391   24.9326 H         1 UNK         0.0000 
     48 H48        -4.2580   49.0806   25.9976 H         1 UNK         0.0000 
     49 H49        -3.5688   51.3108   26.9906 H         1 UNK         0.0000 
     50 H50        -2.3118   50.0960   26.9974 H         1 UNK         0.0000 
     51 H51        -0.2890   51.1206   26.8016 H         1 UNK         0.0000 
     52 H52         1.4926   51.7012   25.3392 H         1 UNK         0.0000 
     53 H53        -0.1272   48.5708   22.0689 H         1 UNK         0.0000 
     54 H54        -2.8171   49.2156   20.7849 H         1 UNK         0.0000 
     55 H55        -1.8478   47.0733   22.7670 H         1 UNK         0.0000 
     56 H56        -3.1730   46.8926   21.6539 H         1 UNK         0.0000 
     57 H57        -2.1362   52.7295   17.7552 H         1 UNK         0.0000 
     58 H58        -0.5807   53.6536   17.3792 H         1 UNK         0.0000 
     59 H59         4.0725   51.2100   21.9150 H         1 UNK         0.0000 
     60 H60         4.1477   52.5996   19.4958 H         1 UNK         0.0000 
     61 H61         3.2546   54.0925   19.5936 H         1 UNK         0.0000 
     62 H62         4.6896   53.1788   22.8525 H         1 UNK         0.0000 
     63 H63         6.5735   54.3792   23.8317 H         1 UNK         0.0000 
     64 H64         7.9045   55.9301   22.4554 H         1 UNK         0.0000 
     65 H65         7.3871   56.2417   20.0547 H         1 UNK         0.0000 
     66 H66         5.4891   55.0436   19.0467 H         1 UNK         0.0000 
     67 H67         2.1568   51.7322   17.2897 H         1 UNK         0.0000 
     68 H68         2.8390   51.0263   18.7391 H         1 UNK         0.0000 
     69 H69         1.3743   50.3812   18.0532 H         1 UNK         0.0000 
     70 H70        -1.1951   49.7527   18.1648 H         1 UNK         0.0000 
@<TRIPOS>BOND
     1    1    2 1    
     2    1   42 1    
     3    1   43 1    
     4    1   44 1    
     5    2    3 1    
     6    2   19 1    
     7    2    4 1    
     8    4    5 1    
     9    4   45 1    
    10    4   46 1    
    11    5    6 1    
    12    5   47 1    
    13    5   48 1    
    14    6    7 1    
    15    6   49 1    
    16    6   50 1    
    17    7    8 2    
    18    7    9 1    
    19    9   10 2    
    20    9   51 1    
    21   10   11 1    
    22   10   52 1    
    23   11   12 2    
    24   11   13 1    
    25   13   14 1    
    26   14   26 1    
    27   14   31 1    
    28   14   15 1    
    29   15   16 1    
    30   15   17 1    
    31   15   20 1    
    32   17   18 2    
    33   17   53 1    
    34   18   19 1    
    35   18   54 1    
    36   19   55 1    
    37   19   56 1    
    38   20   21 1    
    39   20   22 1    
    40   20   41 1    
    41   22   23 2    
    42   22   24 1    
    43   23   57 1    
    44   23   58 1    
    45   24   25 1    
    46   24   26 1    
    47   24   40 1    
    48   26   27 1    
    49   26   28 1    
    50   28   29 1    
    51   28   30 1    
    52   28   33 1    
    53   30   31 am   BACKBONE|DICT|INTERRES
    54   30   59 1    
    55   31   32 2    
    56   33   34 1    
    57   33   60 1    
    58   33   61 1    
    59   34   39 ar   
    60   34   35 ar   
    61   35   36 ar   
    62   35   62 1    
    63   36   37 ar   
    64   36   63 1    
    65   37   38 ar   
    66   37   64 1    
    67   38   39 ar   
    68   38   65 1    
    69   39   66 1    
    70   40   67 1    
    71   40   68 1    
    72   40   69 1    
    73   41   70 1    
@<TRIPOS>SUBSTRUCTURE
     1 UNK         1 GROUP             0       ****    0 ROOT    
