@<TRIPOS>MOLECULE
ZINC25529585_24
54   58    1
SMALL
USER_CHARGES


@<TRIPOS>ATOM
      1 C1          4.2757   54.0914   22.9161 C.ar      1 UNK         0.0000 
      2 C2          5.4859   54.2983   23.5807 C.ar      1 UNK         0.0000 
      3 C3          5.5548   54.3118   24.9743 C.ar      1 UNK         0.0000 
      4 C4          4.3692   54.0969   25.6885 C.ar      1 UNK         0.0000 
      5 C5          3.1342   53.8780   25.0215 C.ar      1 UNK         0.0000 
      6 C6          3.0884   53.8782   23.6208 C.ar      1 UNK         0.0000 
      7 N7          2.0627   53.6976   25.8377 N.2       1 UNK         0.0000 
      8 C8          2.3761   53.7767   27.1068 C.2       1 UNK         0.0000 
      9 S9          4.0926   54.0305   27.4201 S.3       1 UNK         0.0000 
     10 C10         1.3093   53.6812   28.2081 C.3       1 UNK         0.0000 
     11 H11         0.4177   54.2140   27.8726 H         1 UNK         0.0000 
     12 C12         1.7694   54.4100   29.5021 C.3       1 UNK         0.0000 
     13 C13         0.7038   54.3562   30.6071 C.3       1 UNK         0.0000 
     14 C14         0.3048   52.9124   30.9277 C.3       1 UNK         0.0000 
     15 C15        -0.2136   52.2054   29.6696 C.3       1 UNK         0.0000 
     16 C16         0.8517   52.2147   28.5325 C.3       1 UNK         0.0000 
     17 H17         1.7023   51.5929   28.8174 H         1 UNK         0.0000 
     18 C18         0.1249   51.5866   27.3169 C.2       1 UNK         0.0000 
     19 O19        -0.9063   52.0960   26.8645 O.2       1 UNK         0.0000 
     20 N20         0.7030   50.4772   26.8214 N.am      1 UNK         0.0000 
     21 N21         0.0401   49.7141   25.8666 N.am      1 UNK         0.0000 
     22 C22         0.3678   49.8428   24.5599 C.2       1 UNK         0.0000 
     23 O23         1.1007   50.7338   24.1186 O.2       1 UNK         0.0000 
     24 C24        -0.2310   48.8283   23.5530 C.3       1 UNK         0.0000 
     25 H25         0.6136   48.5658   22.9179 H         1 UNK         0.0000 
     26 C26        -1.3768   49.4515   22.7142 C.3       1 UNK         0.0000 
     27 O27        -2.5106   49.7563   23.5334 O.3       1 UNK         0.0000 
     28 C28        -2.8708   48.7225   24.3794 C.ar      1 UNK         0.0000 
     29 C29        -4.1503   48.7538   24.9294 C.ar      1 UNK         0.0000 
     30 C30        -4.5314   47.7692   25.8456 C.ar      1 UNK         0.0000 
     31 C31        -3.6340   46.7669   26.2189 C.ar      1 UNK         0.0000 
     32 C32        -2.3476   46.7393   25.6755 C.ar      1 UNK         0.0000 
     33 C33        -1.9667   47.7145   24.7564 C.ar      1 UNK         0.0000 
     34 O34        -0.6839   47.6409   24.2381 O.3       1 UNK         0.0000 
     35 H35         4.2574   54.0923   21.8345 H         1 UNK         0.0000 
     36 H36         6.3853   54.4551   23.0028 H         1 UNK         0.0000 
     37 H37         6.4937   54.4685   25.4839 H         1 UNK         0.0000 
     38 H38         2.1582   53.7095   23.0990 H         1 UNK         0.0000 
     39 H39         2.6674   53.9384   29.8997 H         1 UNK         0.0000 
     40 H40         1.9785   55.4606   29.2914 H         1 UNK         0.0000 
     41 H41         1.0543   54.8640   31.5020 H         1 UNK         0.0000 
     42 H42        -0.1808   54.8975   30.2838 H         1 UNK         0.0000 
     43 H43         1.1474   52.3674   31.3582 H         1 UNK         0.0000 
     44 H44        -0.4791   52.9114   31.6823 H         1 UNK         0.0000 
     45 H45        -0.4927   51.1922   29.9637 H         1 UNK         0.0000 
     46 H46        -1.1025   52.7721   29.3909 H         1 UNK         0.0000 
     47 H47         1.4767   49.9943   27.2539 H         1 UNK         0.0000 
     48 H48        -0.4968   48.9504   26.2612 H         1 UNK         0.0000 
     49 H49        -1.0406   50.3410   22.1808 H         1 UNK         0.0000 
     50 H50        -1.6742   48.7271   21.9568 H         1 UNK         0.0000 
     51 H51        -4.8354   49.5450   24.6640 H         1 UNK         0.0000 
     52 H52        -5.5183   47.7957   26.2827 H         1 UNK         0.0000 
     53 H53        -3.9240   46.0255   26.9486 H         1 UNK         0.0000 
     54 H54        -1.6435   45.9869   25.9927 H         1 UNK         0.0000 
@<TRIPOS>BOND
     1    1    6 ar   
     2    1    2 ar   
     3    1   35 1    
     4    2    3 ar   
     5    2   36 1    
     6    3    4 ar   
     7    3   37 1    
     8    4    9 1    
     9    4    5 ar   
    10    5    6 ar   
    11    5    7 1    
    12    6   38 1    
    13    7    8 2    
    14    8    9 1    
    15    8   10 1    
    16   10   11 1    
    17   10   16 1    
    18   10   12 1    
    19   12   13 1    
    20   12   39 1    
    21   12   40 1    
    22   13   14 1    
    23   13   41 1    
    24   13   42 1    
    25   14   15 1    
    26   14   43 1    
    27   14   44 1    
    28   15   16 1    
    29   15   45 1    
    30   15   46 1    
    31   16   17 1    
    32   16   18 1    
    33   18   19 2    
    34   18   20 am   BACKBONE|DICT|INTERRES
    35   20   21 1    
    36   20   47 1    
    37   21   22 am   BACKBONE|DICT|INTERRES
    38   21   48 1    
    39   22   23 2    
    40   22   24 1    
    41   24   25 1    
    42   24   34 1    
    43   24   26 1    
    44   26   27 1    
    45   26   49 1    
    46   26   50 1    
    47   27   28 1    
    48   28   33 ar   
    49   28   29 ar   
    50   29   30 ar   
    51   29   51 1    
    52   30   31 ar   
    53   30   52 1    
    54   31   32 ar   
    55   31   53 1    
    56   32   33 ar   
    57   32   54 1    
    58   33   34 1    
@<TRIPOS>SUBSTRUCTURE
     1 UNK         1 GROUP             0       ****    0 ROOT    
