ZINC26786641_4232
                    3D
 Schrodinger Suite 2024-2.
 50 53  0  0  1  0            999 V2000
    7.3867   55.1462   16.3961 C   0  0  0  0  0  0
    6.3461   55.9802   16.7952 C   0  0  0  0  0  0
    6.1857   56.2875   18.1436 C   0  0  0  0  0  0
    7.0606   55.7566   19.1021 C   0  0  0  0  0  0
    8.1145   54.9279   18.6812 C   0  0  0  0  0  0
    8.2730   54.6214   17.3326 C   0  0  0  0  0  0
    6.8565   56.0961   20.5595 C   0  0  0  0  0  0
    6.3045   57.1459   20.8817 O   0  0  0  0  0  0
    7.2749   55.1677   21.4393 N   0  0  0  0  0  0
    7.1044   55.2728   22.8340 N   0  0  0  0  0  0
    5.9846   54.7553   23.5247 C   0  0  0  0  0  0
    4.8672   54.2506   22.9481 C   0  0  0  0  0  0
    3.6913   53.7587   23.6262 C   0  0  0  0  0  0
    2.7960   53.2781   22.8478 N   0  0  0  0  0  0
    1.3825   52.3293   23.3122 S   0  0  0  0  0  0
    1.5044   51.2942   24.3389 O   0  0  0  0  0  0
    0.0852   53.0080   23.2819 O   0  0  0  0  0  0
    1.3753   51.3519   21.8048 C   0  0  0  0  0  0
    0.7912   51.8671   20.6447 C   0  0  0  0  0  0
    0.7367   51.0865   19.4925 C   0  0  0  0  0  0
    1.2732   49.8000   19.5020 C   0  0  0  0  0  0
    1.8928   49.2972   20.6435 C   0  0  0  0  0  0
    1.9435   50.0722   21.7977 C   0  0  0  0  0  0
    1.1343   48.7061   17.9520 Br  0  0  0  0  0  0
    3.7603   53.9020   25.1047 C   0  0  0  0  0  0
    4.8988   54.3622   25.7369 C   0  0  0  0  0  0
    6.1101   54.8332   25.0002 C   0  0  0  0  0  0
    7.1044   55.2756   25.5785 O   0  0  0  0  0  0
    5.0431   54.4631   27.2734 C   0  0  0  0  0  0
    3.7003   54.4963   27.9652 C   0  0  0  0  0  0
    2.5675   54.1117   27.3731 C   0  0  0  0  0  0
    2.5068   53.5844   25.9542 C   0  0  0  0  0  0
    7.5099   54.9074   15.3497 H   0  0  0  0  0  0
    5.6646   56.3873   16.0627 H   0  0  0  0  0  0
    5.3708   56.9363   18.4368 H   0  0  0  0  0  0
    8.8282   54.5181   19.3805 H   0  0  0  0  0  0
    9.0817   53.9800   17.0136 H   0  0  0  0  0  0
    7.7943   54.3538   21.1470 H   0  0  0  0  0  0
    8.0280   55.3489   23.2818 H   0  0  0  0  0  0
    4.8544   54.2417   21.8669 H   0  0  0  0  0  0
    0.3754   52.8649   20.6405 H   0  0  0  0  0  0
    0.2732   51.4732   18.5969 H   0  0  0  0  0  0
    2.3231   48.3064   20.6363 H   0  0  0  0  0  0
    2.4095   49.6670   22.6851 H   0  0  0  0  0  0
    5.5983   53.5954   27.6335 H   0  0  0  0  0  0
    5.6043   55.3457   27.5790 H   0  0  0  0  0  0
    3.6473   54.8566   28.9824 H   0  0  0  0  0  0
    1.6505   54.1742   27.9423 H   0  0  0  0  0  0
    1.6093   53.9928   25.4886 H   0  0  0  0  0  0
    2.4056   52.5100   26.0701 H   0  0  0  0  0  0
  1  6  2  0  0  0
  1  2  1  0  0  0
  1 33  1  0  0  0
  2  3  2  0  0  0
  2 34  1  0  0  0
  3  4  1  0  0  0
  3 35  1  0  0  0
  4  5  2  0  0  0
  4  7  1  0  0  0
  5  6  1  0  0  0
  5 36  1  0  0  0
  6 37  1  0  0  0
  7  8  2  0  0  0
  7  9  1  0  0  0
  9 10  1  0  0  0
  9 38  1  0  0  0
 10 11  1  0  0  0
 10 39  1  0  0  0
 11 27  1  0  0  0
 11 12  2  0  0  0
 12 13  1  0  0  0
 12 40  1  0  0  0
 13 14  2  3  0  0
 13 25  1  0  0  0
 14 15  1  0  0  0
 15 16  2  0  0  0
 15 17  2  0  0  0
 15 18  1  0  0  0
 18 23  2  0  0  0
 18 19  1  0  0  0
 19 20  2  0  0  0
 19 41  1  0  0  0
 20 21  1  0  0  0
 20 42  1  0  0  0
 21 22  2  0  0  0
 21 24  1  0  0  0
 22 23  1  0  0  0
 22 43  1  0  0  0
 23 44  1  0  0  0
 25 32  1  0  0  0
 25 26  2  0  0  0
 26 27  1  0  0  0
 26 29  1  0  0  0
 27 28  2  0  0  0
 29 30  1  0  0  0
 29 45  1  0  0  0
 29 46  1  0  0  0
 30 31  2  0  0  0
 30 47  1  0  0  0
 31 32  1  0  0  0
 31 48  1  0  0  0
 32 49  1  0  0  0
 32 50  1  0  0  0
M  END
> <i_i_glide_confnum>
7

> <i_i_glide_lignum>
4233

> <i_i_glide_posenum>
378

> <i_i_glide_rotatable_bonds>
6

> <i_m_Source_File_Index>
5430

> <b_m_subgroup_collapsed>
0

> <r_i_docking_score>
-8.61018

> <r_i_glide_ecoul>
-11.384

> <r_i_glide_eff_state_penalty>
0

> <r_i_glide_einternal>
10.1036

> <r_i_glide_emodel>
-67.3396

> <r_i_glide_energy>
-51.0087

> <r_i_glide_erotb>
0.218633

> <r_i_glide_esite>
-0.00927362

> <r_i_glide_evdw>
-39.6247

> <r_i_glide_gscore>
-8.61018

> <r_i_glide_hbond>
-0.864

> <r_i_glide_ligand_efficiency>
-0.269068

> <r_i_glide_ligand_efficiency_ln>
-1.92805

> <r_i_glide_ligand_efficiency_sa>
-0.854238

> <r_i_glide_lipo>
-2.32878

> <r_i_glide_metal>
0

> <r_i_glide_rewards>
-1.93794

> <s_i_glide_gridfile>
wee1_glide-grid

> <s_m_Source_File>
wee1_decoys_glide_SP.sdf

> <s_m_Source_Path>
/Users/zhangxujun/Desktop

> <s_m_entry_id>
5705

> <s_m_entry_name>
wee1_decoys_glide_SP.5430

> <s_m_subgroup_title>
wee1_decoys_glide_SP

> <s_m_subgroupid>
wee1_decoys_glide_SP


$$$$
