@<TRIPOS>MOLECULE
ZINC49741062_3786
44   47    1
SMALL
USER_CHARGES


@<TRIPOS>ATOM
      1 C1          5.6501   54.4991   26.8707 C.ar      1 UNK         0.0000 
      2 C2          6.5959   54.8969   25.9337 C.ar      1 UNK         0.0000 
      3 C3          6.3342   54.7225   24.5796 C.ar      1 UNK         0.0000 
      4 C4          5.1571   54.1484   24.1421 C.ar      1 UNK         0.0000 
      5 C5          4.1849   53.7776   25.0781 C.ar      1 UNK         0.0000 
      6 C6          4.4294   53.9472   26.4499 C.ar      1 UNK         0.0000 
      7 N7          3.4508   53.4702   27.3345 N.am      1 UNK         0.0000 
      8 C8          3.3078   53.6948   28.6579 C.2       1 UNK         0.0000 
      9 O9          3.9853   54.4890   29.3125 O.2       1 UNK         0.0000 
     10 C10         2.2358   52.8791   29.4065 C.3       1 UNK         0.0000 
     11 C11         1.1623   53.7906   30.0083 C.3       1 UNK         0.0000 
     12 C12         0.0452   52.8065   30.3239 C.3       1 UNK         0.0000 
     13 C13         0.0135   51.8737   29.1123 C.3       1 UNK         0.0000 
     14 C14         1.4664   51.7879   28.6144 C.3       1 UNK         0.0000 
     15 C15         5.2077   54.0414   22.6360 C.3       1 UNK         0.0000 
     16 C16         3.9804   54.4928   21.8393 C.3       1 UNK         0.0000 
     17 C17         3.9316   53.7292   20.5006 C.3       1 UNK         0.0000 
     18 C18         5.0404   52.6845   20.5777 C.3       1 UNK         0.0000 
     19 C19         5.3544   52.6196   22.0752 C.3       1 UNK         0.0000 
     20 C20         6.4743   54.8961   22.3262 C.2       1 UNK         0.0000 
     21 O21         6.8767   55.2628   21.2229 O.2       1 UNK         0.0000 
     22 N22         7.1034   55.0880   23.4928 N.am      1 UNK         0.0000 
     23 H23         5.8949   54.6240   27.9142 H         1 UNK         0.0000 
     24 H24         7.5044   55.3391   26.2883 H         1 UNK         0.0000 
     25 H25         3.2615   53.3266   24.7443 H         1 UNK         0.0000 
     26 H26         2.7544   52.8768   26.9107 H         1 UNK         0.0000 
     27 H27         2.7957   52.4229   30.2252 H         1 UNK         0.0000 
     28 H28         0.8142   54.5376   29.2910 H         1 UNK         0.0000 
     29 H29         1.5048   54.3221   30.8930 H         1 UNK         0.0000 
     30 H30        -0.8956   53.3162   30.4839 H         1 UNK         0.0000 
     31 H31         0.2697   52.2444   31.2326 H         1 UNK         0.0000 
     32 H32        -0.6243   52.2999   28.3361 H         1 UNK         0.0000 
     33 H33        -0.4026   50.8967   29.3607 H         1 UNK         0.0000 
     34 H34         1.8908   50.8036   28.8119 H         1 UNK         0.0000 
     35 H35         1.4579   51.9272   27.5333 H         1 UNK         0.0000 
     36 H36         3.0585   54.3145   22.3945 H         1 UNK         0.0000 
     37 H37         4.0659   55.5465   21.6822 H         1 UNK         0.0000 
     38 H38         2.9564   53.2596   20.3645 H         1 UNK         0.0000 
     39 H39         4.0828   54.3993   19.6527 H         1 UNK         0.0000 
     40 H40         4.7316   51.7200   20.1703 H         1 UNK         0.0000 
     41 H41         5.9043   53.0155   20.0018 H         1 UNK         0.0000 
     42 H42         6.2976   52.1375   22.3316 H         1 UNK         0.0000 
     43 H43         4.5570   52.0164   22.4815 H         1 UNK         0.0000 
     44 H44         8.0581   55.4410   23.5414 H         1 UNK         0.0000 
@<TRIPOS>BOND
     1    1    6 ar   
     2    1    2 ar   
     3    1   23 1    
     4    2    3 ar   
     5    2   24 1    
     6    3   22 1    
     7    3    4 ar   
     8    4    5 ar   
     9    4   15 1    
    10    5    6 ar   
    11    5   25 1    
    12    6    7 1    
    13    7    8 am   BACKBONE|DICT|INTERRES
    14    7   26 1    
    15    8    9 2    
    16    8   10 1    
    17   10   14 1    
    18   10   11 1    
    19   10   27 1    
    20   11   12 1    
    21   11   28 1    
    22   11   29 1    
    23   12   13 1    
    24   12   30 1    
    25   12   31 1    
    26   13   14 1    
    27   13   32 1    
    28   13   33 1    
    29   14   34 1    
    30   14   35 1    
    31   15   19 1    
    32   15   16 1    
    33   15   20 1    
    34   16   17 1    
    35   16   36 1    
    36   16   37 1    
    37   17   18 1    
    38   17   38 1    
    39   17   39 1    
    40   18   19 1    
    41   18   40 1    
    42   18   41 1    
    43   19   42 1    
    44   19   43 1    
    45   20   21 2    
    46   20   22 am   BACKBONE|DICT|INTERRES
    47   22   44 1    
@<TRIPOS>SUBSTRUCTURE
     1 UNK         1 GROUP             0       ****    0 ROOT    
