@<TRIPOS>MOLECULE
ZINC12937388_3136
68   70    1
SMALL
USER_CHARGES


@<TRIPOS>ATOM
      1 C1          7.5024   53.7683   14.8266 C.3       1 UNK         0.0000 
      2 C2          8.9449   53.9707   15.3154 C.3       1 UNK         0.0000 
      3 C3          9.1767   53.6509   16.8109 C.3       1 UNK         0.0000 
      4 N4          8.3778   54.4869   17.7449 N.pl3     1 UNK         0.0000 
      5 C5          7.1800   54.1066   18.3481 C.ar      1 UNK         0.0000 
      6 C6          6.5559   54.8598   19.3020 C.ar      1 UNK         0.0000 
      7 C7          7.1512   56.1486   19.6783 C.ar      1 UNK         0.0000 
      8 O8          6.7043   56.9676   20.4817 O.2       1 UNK         0.0000 
      9 N9          8.3066   56.4125   19.0228 N.pl3     1 UNK         0.0000 
     10 H10         8.7432   57.2899   19.2572 H         1 UNK         0.0000 
     11 C11         8.9678   55.6925   18.0775 C.ar      1 UNK         0.0000 
     12 O12         9.9912   56.1685   17.5830 O.2       1 UNK         0.0000 
     13 N13         5.3332   54.4734   19.8461 N.am      1 UNK         0.0000 
     14 C14         4.1676   54.4311   18.9224 C.3       1 UNK         0.0000 
     15 C15         3.9087   55.7448   18.1595 C.3       1 UNK         0.0000 
     16 O16         4.8913   55.9573   17.1552 O.3       1 UNK         0.0000 
     17 C17         4.8167   57.2398   16.5482 C.3       1 UNK         0.0000 
     18 C18         5.1909   54.2165   21.1892 C.2       1 UNK         0.0000 
     19 O19         6.0463   54.4969   22.0349 O.2       1 UNK         0.0000 
     20 C20         3.9472   53.5188   21.6810 C.ar      1 UNK         0.0000 
     21 C21         3.1912   54.0972   22.6990 C.ar      1 UNK         0.0000 
     22 C22         2.0427   53.4679   23.1646 C.ar      1 UNK         0.0000 
     23 C23         1.6550   52.2200   22.6640 C.ar      1 UNK         0.0000 
     24 C24         2.4363   51.6314   21.6578 C.ar      1 UNK         0.0000 
     25 C25         3.5712   52.2728   21.1670 C.ar      1 UNK         0.0000 
     26 N26         0.4791   51.6008   23.1505 N.pl3     1 UNK         0.0000 
     27 C27        -0.1709   50.5893   22.3154 C.3       1 UNK         0.0000 
     28 S28         0.1217   51.4512   24.9066 S.o2      1 UNK         0.0000 
     29 O29         0.3033   50.0411   25.2665 O.2       1 UNK         0.0000 
     30 O30         0.8352   52.4959   25.6493 O.2       1 UNK         0.0000 
     31 C31        -1.6216   51.8279   25.0667 C.ar      1 UNK         0.0000 
     32 C32        -2.4134   51.0906   25.9503 C.ar      1 UNK         0.0000 
     33 C33        -3.7633   51.4070   26.0865 C.ar      1 UNK         0.0000 
     34 C34        -4.3141   52.4579   25.3499 C.ar      1 UNK         0.0000 
     35 C35        -3.5136   53.2040   24.4830 C.ar      1 UNK         0.0000 
     36 C36        -2.1636   52.8953   24.3479 C.ar      1 UNK         0.0000 
     37 C37        -5.7821   52.8031   25.5092 C.3       1 UNK         0.0000 
     38 N38         6.7044   52.8966   17.8869 N.pl3     1 UNK         0.0000 
     39 H39         7.4208   53.9848   13.7615 H         1 UNK         0.0000 
     40 H40         7.1695   52.7415   14.9749 H         1 UNK         0.0000 
     41 H41         6.8062   54.4276   15.3462 H         1 UNK         0.0000 
     42 H42         9.2642   54.9919   15.1022 H         1 UNK         0.0000 
     43 H43         9.6004   53.3330   14.7226 H         1 UNK         0.0000 
     44 H44        10.2423   53.7608   17.0238 H         1 UNK         0.0000 
     45 H45         8.9716   52.5973   17.0006 H         1 UNK         0.0000 
     46 H46         4.3659   53.6607   18.1793 H         1 UNK         0.0000 
     47 H47         3.2320   54.1063   19.3781 H         1 UNK         0.0000 
     48 H48         2.9148   55.7206   17.7100 H         1 UNK         0.0000 
     49 H49         3.9045   56.5669   18.8761 H         1 UNK         0.0000 
     50 H50         5.5863   57.3244   15.7815 H         1 UNK         0.0000 
     51 H51         3.8500   57.4006   16.0697 H         1 UNK         0.0000 
     52 H52         4.9821   58.0344   17.2778 H         1 UNK         0.0000 
     53 H53         3.4737   55.0531   23.1144 H         1 UNK         0.0000 
     54 H54         1.4559   53.9824   23.9099 H         1 UNK         0.0000 
     55 H55         2.1829   50.6686   21.2425 H         1 UNK         0.0000 
     56 H56         4.1534   51.7941   20.3911 H         1 UNK         0.0000 
     57 H57        -0.2715   50.9328   21.2858 H         1 UNK         0.0000 
     58 H58         0.4023   49.6613   22.3226 H         1 UNK         0.0000 
     59 H59        -1.1702   50.3622   22.6868 H         1 UNK         0.0000 
     60 H60        -1.9892   50.2774   26.5274 H         1 UNK         0.0000 
     61 H61        -4.3743   50.8333   26.7696 H         1 UNK         0.0000 
     62 H62        -3.9303   54.0284   23.9229 H         1 UNK         0.0000 
     63 H63        -1.5410   53.4820   23.6881 H         1 UNK         0.0000 
     64 H64        -6.0979   52.6633   26.5427 H         1 UNK         0.0000 
     65 H65        -5.9790   53.8454   25.2576 H         1 UNK         0.0000 
     66 H66        -6.3983   52.1653   24.8749 H         1 UNK         0.0000 
     67 H67         5.9102   52.4189   18.2988 H         1 UNK         0.0000 
     68 H68         7.1278   52.4379   17.0940 H         1 UNK         0.0000 
@<TRIPOS>BOND
     1    1    2 1    
     2    1   39 1    
     3    1   40 1    
     4    1   41 1    
     5    2    3 1    
     6    2   42 1    
     7    2   43 1    
     8    3    4 1    
     9    3   44 1    
    10    3   45 1    
    11    4   11 ar   
    12    4    5 ar   
    13    5    6 ar   
    14    5   38 1    
    15    6    7 ar   
    16    6   13 1    
    17    7    8 2    
    18    7    9 ar   
    19    9   10 1    
    20    9   11 ar   
    21   11   12 2    
    22   13   14 1    
    23   13   18 am   BACKBONE|DICT|INTERRES
    24   14   15 1    
    25   14   46 1    
    26   14   47 1    
    27   15   16 1    
    28   15   48 1    
    29   15   49 1    
    30   16   17 1    
    31   17   50 1    
    32   17   51 1    
    33   17   52 1    
    34   18   19 2    
    35   18   20 1    
    36   20   25 ar   
    37   20   21 ar   
    38   21   22 ar   
    39   21   53 1    
    40   22   23 ar   
    41   22   54 1    
    42   23   24 ar   
    43   23   26 1    
    44   24   25 ar   
    45   24   55 1    
    46   25   56 1    
    47   26   27 1    
    48   26   28 1    
    49   27   57 1    
    50   27   58 1    
    51   27   59 1    
    52   28   29 2    
    53   28   30 2    
    54   28   31 1    
    55   31   36 ar   
    56   31   32 ar   
    57   32   33 ar   
    58   32   60 1    
    59   33   34 ar   
    60   33   61 1    
    61   34   35 ar   
    62   34   37 1    
    63   35   36 ar   
    64   35   62 1    
    65   36   63 1    
    66   37   64 1    
    67   37   65 1    
    68   37   66 1    
    69   38   67 1    
    70   38   68 1    
@<TRIPOS>SUBSTRUCTURE
     1 UNK         1 GROUP             0       ****    0 ROOT    
