@<TRIPOS>MOLECULE
ZINC13389882_5891
64   66    1
SMALL
USER_CHARGES


@<TRIPOS>ATOM
      1 C1         -1.0487   51.3739   26.7977 C.3       1 UNK         0.0000 
      2 C2          0.3040   52.0193   27.0524 C.ar      1 UNK         0.0000 
      3 C3          0.7486   52.0696   28.3741 C.ar      1 UNK         0.0000 
      4 C4          1.9582   52.6747   28.6959 C.ar      1 UNK         0.0000 
      5 C5          2.7555   53.2692   27.7091 C.ar      1 UNK         0.0000 
      6 C6          2.3041   53.2118   26.3786 C.ar      1 UNK         0.0000 
      7 C7          1.1011   52.5790   26.0325 C.ar      1 UNK         0.0000 
      8 S8          0.6644   52.4909   24.2742 S.o2      1 UNK         0.0000 
      9 O9         -0.5399   53.3060   24.0817 O.2       1 UNK         0.0000 
     10 O10         1.8895   52.7718   23.5158 O.2       1 UNK         0.0000 
     11 N11         0.2207   50.8025   23.9706 N.pl3     1 UNK         0.0000 
     12 C12         1.2694   49.7942   23.6778 C.3       1 UNK         0.0000 
     13 C13         1.1538   49.2894   22.2225 C.3       1 UNK         0.0000 
     14 C14        -0.2982   48.7750   22.0148 C.3       1 UNK         0.0000 
     15 C15        -1.3086   49.9315   22.1921 C.3       1 UNK         0.0000 
     16 C16        -1.1856   50.4330   23.6423 C.3       1 UNK         0.0000 
     17 C17        -0.4960   48.1589   20.6173 C.2       1 UNK         0.0000 
     18 O18         0.0208   48.6624   19.6206 O.2       1 UNK         0.0000 
     19 N19        -1.2543   47.0488   20.5821 N.am      1 UNK         0.0000 
     20 C20        -1.5309   46.1908   19.4250 C.3       1 UNK         0.0000 
     21 H21        -0.5686   45.7935   19.0901 H         1 UNK         0.0000 
     22 C22        -2.4207   44.9892   19.8398 C.3       1 UNK         0.0000 
     23 C23        -1.7440   44.0965   20.8869 C.2       1 UNK         0.0000 
     24 O24        -0.8947   43.2736   20.4811 O.co2     1 UNK         0.0000 
     25 C25        -2.1579   46.9678   18.2715 C.2       1 UNK         0.0000 
     26 C26        -1.6155   47.2590   17.0190 C.2       1 UNK         0.0000 
     27 C27        -2.4608   47.9843   16.1752 C.2       1 UNK         0.0000 
     28 C28        -3.6811   48.2629   16.7618 C.2       1 UNK         0.0000 
     29 S29        -3.7744   47.6265   18.3674 S.3       1 UNK         0.0000 
     30 C30         4.0886   53.9489   28.1144 C.3       1 UNK         0.0000 
     31 C31         4.7967   54.6579   26.9326 C.3       1 UNK         0.0000 
     32 C32         5.0694   52.8957   28.6705 C.3       1 UNK         0.0000 
     33 C33         3.8374   55.0004   29.2206 C.3       1 UNK         0.0000 
     34 H34        -1.6773   51.4056   27.6887 H         1 UNK         0.0000 
     35 H35        -1.6033   51.9031   26.0249 H         1 UNK         0.0000 
     36 H36        -0.9271   50.3288   26.5137 H         1 UNK         0.0000 
     37 H37         0.1531   51.6305   29.1628 H         1 UNK         0.0000 
     38 H38         2.2678   52.6779   29.7294 H         1 UNK         0.0000 
     39 H39         2.8984   53.6411   25.5870 H         1 UNK         0.0000 
     40 H40         2.2493   50.2443   23.8380 H         1 UNK         0.0000 
     41 H41         1.1727   48.9858   24.4048 H         1 UNK         0.0000 
     42 H42         1.3917   50.1330   21.5707 H         1 UNK         0.0000 
     43 H43         1.8965   48.4966   22.1170 H         1 UNK         0.0000 
     44 H44        -0.5215   47.9731   22.7231 H         1 UNK         0.0000 
     45 H45        -2.3419   49.5986   22.0757 H         1 UNK         0.0000 
     46 H46        -1.0874   50.7780   21.5376 H         1 UNK         0.0000 
     47 H47        -1.5197   49.6809   24.3584 H         1 UNK         0.0000 
     48 H48        -1.8347   51.2970   23.7841 H         1 UNK         0.0000 
     49 H49        -1.4575   46.6187   21.4735 H         1 UNK         0.0000 
     50 H50        -3.3778   45.3357   20.2332 H         1 UNK         0.0000 
     51 H51        -2.6525   44.3734   18.9701 H         1 UNK         0.0000 
     52 H52        -0.6195   46.9556   16.7286 H         1 UNK         0.0000 
     53 H53        -2.1878   48.2931   15.1769 H         1 UNK         0.0000 
     54 H54        -4.5125   48.8052   16.3374 H         1 UNK         0.0000 
     55 H55         5.6959   55.1835   27.2579 H         1 UNK         0.0000 
     56 H56         4.1453   55.3935   26.4626 H         1 UNK         0.0000 
     57 H57         5.1087   53.9483   26.1641 H         1 UNK         0.0000 
     58 H58         4.7048   52.4362   29.5902 H         1 UNK         0.0000 
     59 H59         5.2348   52.0968   27.9538 H         1 UNK         0.0000 
     60 H60         6.0466   53.3321   28.8817 H         1 UNK         0.0000 
     61 H61         3.3788   54.5643   30.1046 H         1 UNK         0.0000 
     62 H62         4.7727   55.4505   29.5573 H         1 UNK         0.0000 
     63 H63         3.1757   55.7977   28.8810 H         1 UNK         0.0000 
     64 O64        -2.0964   44.2252   22.0815 O.co2     1 UNK         0.0000 
@<TRIPOS>BOND
     1    1    2 1    
     2    1   34 1    
     3    1   35 1    
     4    1   36 1    
     5    2    7 ar   
     6    2    3 ar   
     7    3    4 ar   
     8    3   37 1    
     9    4    5 ar   
    10    4   38 1    
    11    5    6 ar   
    12    5   30 1    
    13    6    7 ar   
    14    6   39 1    
    15    7    8 1    
    16    8    9 2    
    17    8   10 2    
    18    8   11 1    
    19   11   16 1    
    20   11   12 1    
    21   12   13 1    
    22   12   40 1    
    23   12   41 1    
    24   13   14 1    
    25   13   42 1    
    26   13   43 1    
    27   14   15 1    
    28   14   17 1    
    29   14   44 1    
    30   15   16 1    
    31   15   45 1    
    32   15   46 1    
    33   16   47 1    
    34   16   48 1    
    35   17   18 2    
    36   17   19 am   BACKBONE|DICT|INTERRES
    37   19   20 1    
    38   19   49 1    
    39   20   21 1    
    40   20   22 1    
    41   20   25 1    
    42   22   23 1    
    43   22   50 1    
    44   22   51 1    
    45   23   24 2    
    46   23   64 1    
    47   25   29 1    
    48   25   26 2    
    49   26   27 1    
    50   26   52 1    
    51   27   28 2    
    52   27   53 1    
    53   28   29 1    
    54   28   54 1    
    55   30   31 1    
    56   30   32 1    
    57   30   33 1    
    58   31   55 1    
    59   31   56 1    
    60   31   57 1    
    61   32   58 1    
    62   32   59 1    
    63   32   60 1    
    64   33   61 1    
    65   33   62 1    
    66   33   63 1    
@<TRIPOS>SUBSTRUCTURE
     1 UNK         1 GROUP             0       ****    0 ROOT    
