@<TRIPOS>MOLECULE
ZINC39696196_792
66   69    1
SMALL
USER_CHARGES


@<TRIPOS>ATOM
      1 C1          6.7781   53.3146   27.8913 C.3       1 UNK         0.0000 
      2 C2          6.4419   54.6743   27.2723 C.3       1 UNK         0.0000 
      3 C3          5.8643   54.5595   25.8704 C.ar      1 UNK         0.0000 
      4 C4          6.7085   54.5000   24.7618 C.ar      1 UNK         0.0000 
      5 C5          6.1837   54.4418   23.4738 C.ar      1 UNK         0.0000 
      6 C6          4.7961   54.4384   23.2839 C.ar      1 UNK         0.0000 
      7 C7          3.9588   54.4765   24.3975 C.ar      1 UNK         0.0000 
      8 C8          4.4837   54.5272   25.6853 C.ar      1 UNK         0.0000 
      9 C9          4.1430   54.4849   21.8932 C.3       1 UNK         0.0000 
     10 H10         3.3987   55.2794   21.9603 H         1 UNK         0.0000 
     11 C11         5.0859   54.9070   20.7377 C.3       1 UNK         0.0000 
     12 N12         3.3722   53.2794   21.5684 N.am      1 UNK         0.0000 
     13 C13         3.9005   52.0784   21.2818 C.2       1 UNK         0.0000 
     14 O14         5.1045   51.8711   21.2834 O.2       1 UNK         0.0000 
     15 C15         2.9702   50.9265   20.8680 C.3       1 UNK         0.0000 
     16 H16         3.6440   50.0825   20.7505 H         1 UNK         0.0000 
     17 C17         1.9441   50.5477   21.9256 C.3       1 UNK         0.0000 
     18 N18         0.7225   51.2168   21.4619 N.am      1 UNK         0.0000 
     19 C19         0.8280   51.6993   20.0744 C.3       1 UNK         0.0000 
     20 C20         2.1804   51.1478   19.5506 C.3       1 UNK         0.0000 
     21 C21         2.0106   49.7339   18.9067 C.3       1 UNK         0.0000 
     22 C22         1.1718   49.7393   17.6202 C.3       1 UNK         0.0000 
     23 N23         1.9044   50.6492   16.6203 N.4       1 UNK         0.0000 
     24 C24         2.0853   52.0905   17.1423 C.3       1 UNK         0.0000 
     25 C25         2.8688   52.0370   18.4680 C.3       1 UNK         0.0000 
     26 C26        -0.3672   51.4438   22.2360 C.2       1 UNK         0.0000 
     27 O27        -1.3460   52.0966   21.8676 O.2       1 UNK         0.0000 
     28 C28        -0.3611   50.8102   23.5313 C.2       1 UNK         0.0000 
     29 C29        -1.0112   49.6037   23.7766 C.2       1 UNK         0.0000 
     30 S30        -0.6944   48.9879   25.3606 S.3       1 UNK         0.0000 
     31 C31         0.3038   50.3571   25.7233 C.2       1 UNK         0.0000 
     32 C32         0.4065   51.2341   24.6380 C.2       1 UNK         0.0000 
     33 O33         1.2106   52.3448   24.5949 O.3       1 UNK         0.0000 
     34 C34         1.1045   53.2132   25.7117 C.3       1 UNK         0.0000 
     35 Cl35        1.0326   50.4968   27.2812 Cl        1 UNK         0.0000 
     36 H36         7.2112   53.4415   28.8815 H         1 UNK         0.0000 
     37 H37         7.5043   52.7816   27.2828 H         1 UNK         0.0000 
     38 H38         5.8918   52.6874   27.9881 H         1 UNK         0.0000 
     39 H39         5.7416   55.2135   27.9125 H         1 UNK         0.0000 
     40 H40         7.3380   55.2954   27.2497 H         1 UNK         0.0000 
     41 H41         7.7804   54.5085   24.8821 H         1 UNK         0.0000 
     42 H42         6.8669   54.4175   22.6382 H         1 UNK         0.0000 
     43 H43         2.8947   54.4990   24.2426 H         1 UNK         0.0000 
     44 H44         3.8206   54.5721   26.5359 H         1 UNK         0.0000 
     45 H45         5.5199   55.8881   20.9237 H         1 UNK         0.0000 
     46 H46         5.9060   54.2069   20.5839 H         1 UNK         0.0000 
     47 H47         4.5425   54.9705   19.7943 H         1 UNK         0.0000 
     48 H48         2.3677   53.3577   21.6195 H         1 UNK         0.0000 
     49 H49         1.8087   49.4648   21.9029 H         1 UNK         0.0000 
     50 H50         2.3029   50.8236   22.9188 H         1 UNK         0.0000 
     51 H51         0.9049   52.7866   20.1211 H         1 UNK         0.0000 
     52 H52        -0.0200   51.4684   19.4322 H         1 UNK         0.0000 
     53 H53         2.9862   49.2864   18.7055 H         1 UNK         0.0000 
     54 H54         1.5313   49.0512   19.6105 H         1 UNK         0.0000 
     55 H55         1.1335   48.7549   17.1541 H         1 UNK         0.0000 
     56 H56         0.1597   50.1258   17.7357 H         1 UNK         0.0000 
     57 H57         2.8327   50.2309   16.4817 H         1 UNK         0.0000 
     58 H58         2.6300   52.6330   16.3688 H         1 UNK         0.0000 
     59 H59         1.0883   52.5223   17.2489 H         1 UNK         0.0000 
     60 H60         2.9863   53.0567   18.8360 H         1 UNK         0.0000 
     61 H61         3.8895   51.6974   18.2824 H         1 UNK         0.0000 
     62 H62        -1.6361   49.0388   23.1005 H         1 UNK         0.0000 
     63 H63         1.1045   54.2381   25.3476 H         1 UNK         0.0000 
     64 H64         0.2054   53.0658   26.3133 H         1 UNK         0.0000 
     65 H65         1.9694   53.0913   26.3625 H         1 UNK         0.0000 
     66 H66         1.4437   50.6427   15.7214 H         1 UNK         0.0000 
@<TRIPOS>BOND
     1    1    2 1    
     2    1   36 1    
     3    1   37 1    
     4    1   38 1    
     5    2    3 1    
     6    2   39 1    
     7    2   40 1    
     8    3    8 ar   
     9    3    4 ar   
    10    4    5 ar   
    11    4   41 1    
    12    5    6 ar   
    13    5   42 1    
    14    6    7 ar   
    15    6    9 1    
    16    7    8 ar   
    17    7   43 1    
    18    8   44 1    
    19    9   10 1    
    20    9   11 1    
    21    9   12 1    
    22   11   45 1    
    23   11   46 1    
    24   11   47 1    
    25   12   13 am   BACKBONE|DICT|INTERRES
    26   12   48 1    
    27   13   14 2    
    28   13   15 1    
    29   15   16 1    
    30   15   20 1    
    31   15   17 1    
    32   17   18 1    
    33   17   49 1    
    34   17   50 1    
    35   18   19 1    
    36   18   26 am   BACKBONE|DICT|INTERRES
    37   19   20 1    
    38   19   51 1    
    39   19   52 1    
    40   20   25 1    
    41   20   21 1    
    42   21   22 1    
    43   21   53 1    
    44   21   54 1    
    45   22   23 1    
    46   22   55 1    
    47   22   56 1    
    48   23   24 1    
    49   23   57 1    
    50   23   66 1    
    51   24   25 1    
    52   24   58 1    
    53   24   59 1    
    54   25   60 1    
    55   25   61 1    
    56   26   27 2    
    57   26   28 1    
    58   28   32 1    
    59   28   29 2    
    60   29   30 1    
    61   29   62 1    
    62   30   31 1    
    63   31   32 2    
    64   31   35 1    
    65   32   33 1    
    66   33   34 1    
    67   34   63 1    
    68   34   64 1    
    69   34   65 1    
@<TRIPOS>SUBSTRUCTURE
     1 UNK         1 GROUP             0       ****    0 ROOT    
