ZINC39686562_5460
                    3D
 Schrodinger Suite 2024-2.
 66 69  0  0  1  0            999 V2000
    1.0974   52.2420   19.3848 C   0  0  0  0  0  0
    1.8511   51.6079   20.5738 C   0  0  1  0  0  0
    1.5024   50.5727   20.6359 H   0  0  0  0  0  0
    3.3719   51.5037   20.3138 C   0  0  0  0  0  0
    4.1096   52.8350   20.1163 C   0  0  0  0  0  0
    4.3406   53.2853   18.8113 C   0  0  0  0  0  0
    5.0582   54.4545   18.5767 C   0  0  0  0  0  0
    5.5599   55.1846   19.6473 C   0  0  0  0  0  0
    5.3306   54.7542   20.9527 C   0  0  0  0  0  0
    4.5953   53.5816   21.2067 C   0  0  0  0  0  0
    4.3318   53.1150   22.4815 O   0  0  0  0  0  0
    4.8551   53.8205   23.6042 C   0  0  0  0  0  0
    1.5620   52.1903   21.8918 N   0  0  0  0  0  0
    0.3564   52.2359   22.4938 C   0  0  0  0  0  0
   -0.6871   51.9941   21.8882 O   0  0  0  0  0  0
    0.2323   52.6033   23.9993 C   0  0  2  0  0  0
   -0.4388   53.4614   24.0622 H   0  0  0  0  0  0
    1.5784   53.0758   24.5957 C   0  0  0  0  0  0
    1.4142   52.8360   26.0314 N   0  0  0  0  0  0
    0.2939   51.9261   26.2973 C   0  0  0  0  0  0
   -0.2055   51.4226   24.9183 C   0  0  0  0  0  0
    0.4468   50.0587   24.5209 C   0  0  0  0  0  0
    0.1619   48.9383   25.5389 C   0  0  0  0  0  0
   -1.3680   48.7804   25.6816 N   0  3  0  0  0  0
   -2.1343   50.0979   25.9468 C   0  0  0  0  0  0
   -1.7276   51.1361   24.8786 C   0  0  0  0  0  0
    2.1905   53.4468   26.9693 C   0  0  0  0  0  0
    3.1029   54.2146   26.6594 O   0  0  0  0  0  0
    1.9436   53.1527   28.4395 C   0  0  0  0  0  0
    0.6610   53.3340   28.9839 C   0  0  0  0  0  0
    0.3872   52.9993   30.3082 C   0  0  0  0  0  0
    1.3956   52.4970   31.1208 C   0  0  0  0  0  0
    2.6870   52.3487   30.6189 C   0  0  0  0  0  0
    2.9745   52.6812   29.2854 C   0  0  0  0  0  0
    4.6084   52.4969   28.7218 Cl  0  0  0  0  0  0
    3.9044   51.7243   31.6800 Cl  0  0  0  0  0  0
    1.4037   51.7727   18.4500 H   0  0  0  0  0  0
    0.0193   52.1132   19.4500 H   0  0  0  0  0  0
    1.3290   53.2965   19.2794 H   0  0  0  0  0  0
    3.5061   50.8942   19.4183 H   0  0  0  0  0  0
    3.8624   50.9454   21.1130 H   0  0  0  0  0  0
    3.9824   52.7067   17.9702 H   0  0  0  0  0  0
    5.2359   54.7851   17.5637 H   0  0  0  0  0  0
    6.1241   56.0865   19.4632 H   0  0  0  0  0  0
    5.7306   55.3523   21.7563 H   0  0  0  0  0  0
    4.5892   53.2965   24.5223 H   0  0  0  0  0  0
    5.9443   53.8823   23.5712 H   0  0  0  0  0  0
    4.4386   54.8263   23.6719 H   0  0  0  0  0  0
    2.3739   52.5320   22.3899 H   0  0  0  0  0  0
    2.3877   52.4143   24.2837 H   0  0  0  0  0  0
    1.7942   54.1155   24.3407 H   0  0  0  0  0  0
   -0.5128   52.5425   26.6943 H   0  0  0  0  0  0
    0.4754   51.1464   27.0355 H   0  0  0  0  0  0
    0.1505   49.7357   23.5218 H   0  0  0  0  0  0
    1.5226   50.1783   24.4697 H   0  0  0  0  0  0
    0.5469   47.9723   25.2087 H   0  0  0  0  0  0
    0.5487   49.1232   26.5404 H   0  0  0  0  0  0
   -1.7410   48.3321   24.8577 H   0  0  0  0  0  0
   -3.1951   49.8472   25.9096 H   0  0  0  0  0  0
   -1.8809   50.3951   26.9666 H   0  0  0  0  0  0
   -2.2672   52.0583   25.0995 H   0  0  0  0  0  0
   -2.0598   50.8423   23.8819 H   0  0  0  0  0  0
   -0.1423   53.7404   28.3871 H   0  0  0  0  0  0
   -0.6070   53.1195   30.7114 H   0  0  0  0  0  0
    1.1696   52.2275   32.1443 H   0  0  0  0  0  0
   -1.5430   48.1627   26.4729 H   0  0  0  0  0  0
  1  2  1  0  0  0
  1 37  1  0  0  0
  1 38  1  0  0  0
  1 39  1  0  0  0
  2  3  1  0  0  0
  2  4  1  0  0  0
  2 13  1  0  0  0
  4  5  1  0  0  0
  4 40  1  0  0  0
  4 41  1  0  0  0
  5 10  2  0  0  0
  5  6  1  0  0  0
  6  7  2  0  0  0
  6 42  1  0  0  0
  7  8  1  0  0  0
  7 43  1  0  0  0
  8  9  2  0  0  0
  8 44  1  0  0  0
  9 10  1  0  0  0
  9 45  1  0  0  0
 10 11  1  0  0  0
 11 12  1  0  0  0
 12 46  1  0  0  0
 12 47  1  0  0  0
 12 48  1  0  0  0
 13 14  1  0  0  0
 13 49  1  0  0  0
 14 15  2  0  0  0
 14 16  1  0  0  0
 16 17  1  0  0  0
 16 21  1  0  0  0
 16 18  1  0  0  0
 18 19  1  0  0  0
 18 50  1  0  0  0
 18 51  1  0  0  0
 19 20  1  0  0  0
 19 27  1  0  0  0
 20 21  1  0  0  0
 20 52  1  0  0  0
 20 53  1  0  0  0
 21 26  1  0  0  0
 21 22  1  0  0  0
 22 23  1  0  0  0
 22 54  1  0  0  0
 22 55  1  0  0  0
 23 24  1  0  0  0
 23 56  1  0  0  0
 23 57  1  0  0  0
 24 25  1  0  0  0
 24 58  1  0  0  0
 24 66  1  0  0  0
 25 26  1  0  0  0
 25 59  1  0  0  0
 25 60  1  0  0  0
 26 61  1  0  0  0
 26 62  1  0  0  0
 27 28  2  0  0  0
 27 29  1  0  0  0
 29 34  2  0  0  0
 29 30  1  0  0  0
 30 31  2  0  0  0
 30 63  1  0  0  0
 31 32  1  0  0  0
 31 64  1  0  0  0
 32 33  2  0  0  0
 32 65  1  0  0  0
 33 34  1  0  0  0
 33 36  1  0  0  0
 34 35  1  0  0  0
M  CHG  1  24   1
M  END
> <i_i_glide_confnum>
372

> <i_i_glide_lignum>
5461

> <i_i_glide_posenum>
96

> <i_i_glide_rotatable_bonds>
8

> <i_m_Source_File_Index>
2776

> <b_m_subgroup_collapsed>
0

> <r_i_docking_score>
-5.07681

> <r_i_glide_ecoul>
-5.4777

> <r_i_glide_eff_state_penalty>
0

> <r_i_glide_einternal>
8.24444

> <r_i_glide_emodel>
-62.4163

> <r_i_glide_energy>
-48.962

> <r_i_glide_erotb>
0.5604

> <r_i_glide_esite>
-0.1

> <r_i_glide_evdw>
-43.4843

> <r_i_glide_gscore>
-5.07681

> <r_i_glide_hbond>
-0.143992

> <r_i_glide_ligand_efficiency>
-0.149318

> <r_i_glide_ligand_efficiency_ln>
-1.12161

> <r_i_glide_ligand_efficiency_sa>
-0.483732

> <r_i_glide_lipo>
-1.85677

> <r_i_glide_metal>
0

> <r_i_glide_rewards>
-0.540577

> <s_i_glide_gridfile>
wee1_glide-grid

> <s_m_Source_File>
wee1_decoys_glide_SP.sdf

> <s_m_Source_Path>
/Users/zhangxujun/Desktop

> <s_m_entry_id>
3051

> <s_m_entry_name>
wee1_decoys_glide_SP.2776

> <s_m_subgroup_title>
wee1_decoys_glide_SP

> <s_m_subgroupid>
wee1_decoys_glide_SP


$$$$
