ZINC50535150_1487
                    3D
 Schrodinger Suite 2024-2.
 42 45  0  0  1  0            999 V2000
    7.8317   55.8695   17.4299 C   0  0  0  0  0  0
    6.9497   54.7490   17.9309 C   0  0  0  0  0  0
    6.0944   54.9270   18.9290 N   0  0  0  0  0  0
    5.5556   53.7382   19.0770 C   0  0  0  0  0  0
    6.1137   52.8967   18.1609 N   0  0  0  0  0  0
    5.9044   51.8962   18.0729 H   0  0  0  0  0  0
    7.0181   53.5368   17.4228 N   0  0  0  0  0  0
    4.5523   53.3369   20.1089 C   0  0  0  0  0  0
    4.2528   54.2275   21.1348 C   0  0  0  0  0  0
    3.3316   53.8831   22.1114 C   0  0  0  0  0  0
    2.7538   52.6074   22.1374 C   0  0  0  0  0  0
    3.0375   51.7220   21.1024 C   0  0  0  0  0  0
    3.9044   52.0967   20.0823 C   0  0  0  0  0  0
    1.9044   52.1497   23.1591 N   0  0  0  0  0  0
    1.1440   53.1709   24.3863 S   0  0  0  0  0  0
    0.9899   54.4967   23.7898 O   0  0  0  0  0  0
   -0.0198   52.4263   24.8770 O   0  0  0  0  0  0
    2.3010   53.3233   25.7481 C   0  0  0  0  0  0
    1.9452   52.9346   27.0481 C   0  0  0  0  0  0
    2.8676   53.0503   28.0952 C   0  0  0  0  0  0
    4.1492   53.5412   27.8372 C   0  0  0  0  0  0
    4.4911   53.9546   26.5425 C   0  0  0  0  0  0
    3.5737   53.8467   25.5139 C   0  0  0  0  0  0
    5.7566   54.3747   26.1926 O   0  0  0  0  0  0
    6.5794   54.7113   27.3029 C   0  0  0  0  0  0
    6.4122   53.6967   28.4496 C   0  0  0  0  0  0
    5.0451   53.6374   28.8817 O   0  0  0  0  0  0
    7.5639   56.1845   16.4213 H   0  0  0  0  0  0
    8.8606   55.5192   17.3410 H   0  0  0  0  0  0
    7.8738   56.7272   18.1019 H   0  0  0  0  0  0
    4.7098   55.2054   21.1673 H   0  0  0  0  0  0
    3.0884   54.6527   22.8187 H   0  0  0  0  0  0
    2.5822   50.7426   21.0727 H   0  0  0  0  0  0
    4.0556   51.3986   19.2817 H   0  0  0  0  0  0
    1.6583   51.1721   23.1726 H   0  0  0  0  0  0
    0.9603   52.5370   27.2496 H   0  0  0  0  0  0
    2.5954   52.7451   29.0943 H   0  0  0  0  0  0
    3.9104   54.1418   24.5435 H   0  0  0  0  0  0
    6.3044   55.6968   27.6727 H   0  0  0  0  0  0
    7.6164   54.7454   26.9836 H   0  0  0  0  0  0
    7.0636   53.9605   29.2817 H   0  0  0  0  0  0
    6.7187   52.7148   28.0817 H   0  0  0  0  0  0
  1  2  1  0  0  0
  1 28  1  0  0  0
  1 29  1  0  0  0
  1 30  1  0  0  0
  2  7  2  0  0  0
  2  3  1  0  0  0
  3  4  2  0  0  0
  4  5  1  0  0  0
  4  8  1  0  0  0
  5  6  1  0  0  0
  5  7  1  0  0  0
  8 13  2  0  0  0
  8  9  1  0  0  0
  9 10  2  0  0  0
  9 31  1  0  0  0
 10 11  1  0  0  0
 10 32  1  0  0  0
 11 12  2  0  0  0
 11 14  1  0  0  0
 12 13  1  0  0  0
 12 33  1  0  0  0
 13 34  1  0  0  0
 14 15  1  0  0  0
 14 35  1  0  0  0
 15 16  2  0  0  0
 15 17  2  0  0  0
 15 18  1  0  0  0
 18 23  2  0  0  0
 18 19  1  0  0  0
 19 20  2  0  0  0
 19 36  1  0  0  0
 20 21  1  0  0  0
 20 37  1  0  0  0
 21 27  1  0  0  0
 21 22  2  0  0  0
 22 23  1  0  0  0
 22 24  1  0  0  0
 23 38  1  0  0  0
 24 25  1  0  0  0
 25 26  1  0  0  0
 25 39  1  0  0  0
 25 40  1  0  0  0
 26 27  1  0  0  0
 26 41  1  0  0  0
 26 42  1  0  0  0
M  END
> <i_i_glide_confnum>
42

> <i_i_glide_lignum>
1488

> <i_i_glide_posenum>
66

> <i_i_glide_rotatable_bonds>
4

> <i_m_Source_File_Index>
3809

> <b_m_subgroup_collapsed>
0

> <r_i_docking_score>
-4.5819

> <r_i_glide_ecoul>
-5.84902

> <r_i_glide_eff_state_penalty>
0

> <r_i_glide_einternal>
1.50423

> <r_i_glide_emodel>
-47.4806

> <r_i_glide_energy>
-37.7266

> <r_i_glide_erotb>
0.557068

> <r_i_glide_esite>
-0.137122

> <r_i_glide_evdw>
-31.8776

> <r_i_glide_gscore>
-4.5819

> <r_i_glide_hbond>
-0.16

> <r_i_glide_ligand_efficiency>
-0.176227

> <r_i_glide_ligand_efficiency_ln>
-1.07604

> <r_i_glide_ligand_efficiency_sa>
-0.522072

> <r_i_glide_lipo>
-1.96608

> <r_i_glide_metal>
0

> <r_i_glide_rewards>
-0.404539

> <s_i_glide_gridfile>
wee1_glide-grid

> <s_m_Source_File>
wee1_decoys_glide_SP.sdf

> <s_m_Source_Path>
/Users/zhangxujun/Desktop

> <s_m_entry_id>
4084

> <s_m_entry_name>
wee1_decoys_glide_SP.3809

> <s_m_subgroup_title>
wee1_decoys_glide_SP

> <s_m_subgroupid>
wee1_decoys_glide_SP


$$$$
