@<TRIPOS>MOLECULE
ZINC39667559_3687
65   68    1
SMALL
USER_CHARGES


@<TRIPOS>ATOM
      1 C1          7.1738   55.0636   22.1786 C.3       1 UNK         0.0000 
      2 C2          5.8506   54.5109   21.6792 C.ar      1 UNK         0.0000 
      3 C3          5.7055   54.2693   20.3106 C.ar      1 UNK         0.0000 
      4 C4          4.5479   53.6828   19.8199 C.ar      1 UNK         0.0000 
      5 C5          3.5043   53.3954   20.6891 C.ar      1 UNK         0.0000 
      6 C6          3.5879   53.7053   22.0539 C.ar      1 UNK         0.0000 
      7 C7          4.7964   54.2176   22.5658 C.ar      1 UNK         0.0000 
      8 C8          4.9443   54.4995   24.0651 C.3       1 UNK         0.0000 
      9 C9          2.3802   53.4975   22.9804 C.3       1 UNK         0.0000 
     10 N10         1.2804   52.6495   22.5159 N.am      1 UNK         0.0000 
     11 C11         1.3888   51.3350   22.2879 C.2       1 UNK         0.0000 
     12 O12         2.4715   50.7469   22.3179 O.2       1 UNK         0.0000 
     13 C13         0.0760   50.5858   21.9494 C.3       1 UNK         0.0000 
     14 H14        -0.6439   51.2879   21.5253 H         1 UNK         0.0000 
     15 C15         0.4044   49.4987   20.9099 C.3       1 UNK         0.0000 
     16 N16        -0.5999   48.4631   21.1536 N.am      1 UNK         0.0000 
     17 C17        -1.3368   48.6941   22.4063 C.3       1 UNK         0.0000 
     18 C18        -0.5584   49.8097   23.1447 C.3       1 UNK         0.0000 
     19 C19         0.5162   49.1725   24.0855 C.3       1 UNK         0.0000 
     20 C20        -0.0555   48.3972   25.2788 C.3       1 UNK         0.0000 
     21 N21        -0.9559   49.3526   26.0817 N.4       1 UNK         0.0000 
     22 C22        -2.0880   49.9545   25.2235 C.3       1 UNK         0.0000 
     23 C23        -1.4307   50.7214   24.0532 C.3       1 UNK         0.0000 
     24 C24        -0.9517   47.4798   20.2815 C.2       1 UNK         0.0000 
     25 O25        -1.9112   46.7381   20.5076 O.2       1 UNK         0.0000 
     26 C26        -0.1749   47.2846   18.9889 C.ar      1 UNK         0.0000 
     27 C27         1.2252   47.3898   18.9218 C.ar      1 UNK         0.0000 
     28 C28         1.9019   47.2059   17.7170 C.ar      1 UNK         0.0000 
     29 C29         1.2031   46.8641   16.5628 C.ar      1 UNK         0.0000 
     30 C30        -0.1907   46.7219   16.6095 C.ar      1 UNK         0.0000 
     31 C31        -0.8634   46.9298   17.8192 C.ar      1 UNK         0.0000 
     32 C32        -0.9802   46.3467   15.3653 C.3       1 UNK         0.0000 
     33 Br33        2.1849   46.5742   14.9518 Br        1 UNK         0.0000 
     34 H34         7.5050   54.4774   23.0356 H         1 UNK         0.0000 
     35 H35         7.0651   56.0971   22.5031 H         1 UNK         0.0000 
     36 H36         7.9646   55.0085   21.4281 H         1 UNK         0.0000 
     37 H37         6.5093   54.4950   19.6244 H         1 UNK         0.0000 
     38 H38         4.4513   53.4612   18.7665 H         1 UNK         0.0000 
     39 H39         2.6022   52.9781   20.2722 H         1 UNK         0.0000 
     40 H40         4.0241   54.8963   24.4892 H         1 UNK         0.0000 
     41 H41         5.1999   53.5850   24.5993 H         1 UNK         0.0000 
     42 H42         5.6955   55.2549   24.2856 H         1 UNK         0.0000 
     43 H43         2.7138   53.0820   23.9335 H         1 UNK         0.0000 
     44 H44         1.9664   54.4826   23.1992 H         1 UNK         0.0000 
     45 H45         0.3911   53.1003   22.3724 H         1 UNK         0.0000 
     46 H46         0.3849   49.9104   19.8985 H         1 UNK         0.0000 
     47 H47         1.3586   49.0360   21.1611 H         1 UNK         0.0000 
     48 H48        -1.5397   47.8111   23.0121 H         1 UNK         0.0000 
     49 H49        -2.3104   49.0965   22.1229 H         1 UNK         0.0000 
     50 H50         1.1346   48.4970   23.5007 H         1 UNK         0.0000 
     51 H51         1.2064   49.9167   24.4834 H         1 UNK         0.0000 
     52 H52        -0.6508   47.5227   25.0179 H         1 UNK         0.0000 
     53 H53         0.7488   48.0971   25.9492 H         1 UNK         0.0000 
     54 H54        -1.2957   48.8955   26.9455 H         1 UNK         0.0000 
     55 H55        -2.7266   49.1287   24.9053 H         1 UNK         0.0000 
     56 H56        -2.6581   50.6082   25.8870 H         1 UNK         0.0000 
     57 H57        -0.8406   51.5558   24.4360 H         1 UNK         0.0000 
     58 H58        -2.2215   51.1833   23.4596 H         1 UNK         0.0000 
     59 H59         1.8216   47.5976   19.7947 H         1 UNK         0.0000 
     60 H60         2.9786   47.3132   17.6792 H         1 UNK         0.0000 
     61 H61        -1.9390   46.8218   17.8456 H         1 UNK         0.0000 
     62 H62        -0.8140   47.0857   14.5795 H         1 UNK         0.0000 
     63 H63        -0.6451   45.3834   14.9812 H         1 UNK         0.0000 
     64 H64        -2.0522   46.2863   15.5521 H         1 UNK         0.0000 
     65 H65        -0.3836   50.1085   26.4263 H         1 UNK         0.0000 
@<TRIPOS>BOND
     1    1    2 1    
     2    1   34 1    
     3    1   35 1    
     4    1   36 1    
     5    2    7 ar   
     6    2    3 ar   
     7    3    4 ar   
     8    3   37 1    
     9    4    5 ar   
    10    4   38 1    
    11    5    6 ar   
    12    5   39 1    
    13    6    7 ar   
    14    6    9 1    
    15    7    8 1    
    16    8   40 1    
    17    8   41 1    
    18    8   42 1    
    19    9   10 1    
    20    9   43 1    
    21    9   44 1    
    22   10   11 am   BACKBONE|DICT|INTERRES
    23   10   45 1    
    24   11   12 2    
    25   11   13 1    
    26   13   14 1    
    27   13   18 1    
    28   13   15 1    
    29   15   16 1    
    30   15   46 1    
    31   15   47 1    
    32   16   17 1    
    33   16   24 am   BACKBONE|DICT|INTERRES
    34   17   18 1    
    35   17   48 1    
    36   17   49 1    
    37   18   23 1    
    38   18   19 1    
    39   19   20 1    
    40   19   50 1    
    41   19   51 1    
    42   20   21 1    
    43   20   52 1    
    44   20   53 1    
    45   21   22 1    
    46   21   54 1    
    47   21   65 1    
    48   22   23 1    
    49   22   55 1    
    50   22   56 1    
    51   23   57 1    
    52   23   58 1    
    53   24   25 2    
    54   24   26 1    
    55   26   31 ar   
    56   26   27 ar   
    57   27   28 ar   
    58   27   59 1    
    59   28   29 ar   
    60   28   60 1    
    61   29   30 ar   
    62   29   33 1    
    63   30   31 ar   
    64   30   32 1    
    65   31   61 1    
    66   32   62 1    
    67   32   63 1    
    68   32   64 1    
@<TRIPOS>SUBSTRUCTURE
     1 UNK         1 GROUP             0       ****    0 ROOT    
