@<TRIPOS>MOLECULE
ZINC09292103_2377
52   56    1
SMALL
USER_CHARGES


@<TRIPOS>ATOM
      1 C1         -0.5228   52.1964   24.4406 C.3       1 UNK         0.0000 
      2 C2          0.6802   52.7666   23.7275 C.2       1 UNK         0.0000 
      3 C3          1.1508   54.0723   23.6803 C.2       1 UNK         0.0000 
      4 C4          2.2769   54.2392   22.8815 C.2       1 UNK         0.0000 
      5 C5          2.8207   53.0593   22.4049 C.2       1 UNK         0.0000 
      6 S6          1.7495   51.7465   22.8107 S.3       1 UNK         0.0000 
      7 C7          4.1562   52.8405   21.7207 C.3       1 UNK         0.0000 
      8 H8          4.5718   51.8995   22.0802 H         1 UNK         0.0000 
      9 C9          5.2180   53.9275   21.9876 C.ar      1 UNK         0.0000 
     10 C10         5.8304   54.4965   23.1262 C.ar      1 UNK         0.0000 
     11 N11         6.7699   55.3426   22.5862 N.pl3     1 UNK         0.0000 
     12 H12         7.4233   55.8750   23.1418 H         1 UNK         0.0000 
     13 N13         6.7667   55.4354   21.2592 N.2       1 UNK         0.0000 
     14 C14         5.8359   54.5899   20.9081 C.ar      1 UNK         0.0000 
     15 O15         5.5760   54.3878   19.5757 O.3       1 UNK         0.0000 
     16 C16         4.6699   53.4128   19.3032 C.2       1 UNK         0.0000 
     17 C17         3.9859   52.6693   20.2037 C.2       1 UNK         0.0000 
     18 C18         3.0708   51.6699   19.7432 C.1       1 UNK         0.0000 
     19 N19         2.3016   50.8728   19.4057 N.1       1 UNK         0.0000 
     20 N20         4.5970   53.2966   17.9424 N.pl3     1 UNK         0.0000 
     21 C21         5.6611   54.3806   24.6210 C.ar      1 UNK         0.0000 
     22 C22         6.6314   54.8657   25.5078 C.ar      1 UNK         0.0000 
     23 C23         6.4851   54.7095   26.8898 C.ar      1 UNK         0.0000 
     24 C24         5.3493   54.0902   27.4129 C.ar      1 UNK         0.0000 
     25 C25         4.3385   53.6966   26.5375 C.ar      1 UNK         0.0000 
     26 C26         4.5184   53.8043   25.1712 C.ar      1 UNK         0.0000 
     27 O27         5.2893   53.8654   28.7753 O.3       1 UNK         0.0000 
     28 C28         4.3081   52.9458   29.2830 C.3       1 UNK         0.0000 
     29 C29         2.9886   53.6222   29.6443 C.ar      1 UNK         0.0000 
     30 C30         1.9864   52.8536   30.2457 C.ar      1 UNK         0.0000 
     31 C31         0.8062   53.4553   30.6697 C.ar      1 UNK         0.0000 
     32 C32         0.6343   54.8245   30.4819 C.ar      1 UNK         0.0000 
     33 C33         1.6013   55.5937   29.8441 C.ar      1 UNK         0.0000 
     34 C34         2.7797   54.9888   29.4217 C.ar      1 UNK         0.0000 
     35 H35        -1.0865   52.9612   24.9762 H         1 UNK         0.0000 
     36 H36        -0.2323   51.4401   25.1718 H         1 UNK         0.0000 
     37 H37        -1.2130   51.7177   23.7441 H         1 UNK         0.0000 
     38 H38         0.7044   54.8940   24.2092 H         1 UNK         0.0000 
     39 H39         2.7752   55.1855   22.7369 H         1 UNK         0.0000 
     40 H40         4.1882   52.4467   17.5744 H         1 UNK         0.0000 
     41 H41         5.3357   53.6926   17.3814 H         1 UNK         0.0000 
     42 H42         7.5125   55.3435   25.1163 H         1 UNK         0.0000 
     43 H43         7.2615   55.0406   27.5640 H         1 UNK         0.0000 
     44 H44         3.4300   53.2297   26.8849 H         1 UNK         0.0000 
     45 H45         3.7637   53.3493   24.5781 H         1 UNK         0.0000 
     46 H46         4.1413   52.0965   28.6181 H         1 UNK         0.0000 
     47 H47         4.7044   52.5033   30.1954 H         1 UNK         0.0000 
     48 H48         2.1280   51.7955   30.4090 H         1 UNK         0.0000 
     49 H49         0.0415   52.8696   31.1622 H         1 UNK         0.0000 
     50 H50        -0.2641   55.2953   30.8483 H         1 UNK         0.0000 
     51 H51         1.4499   56.6545   29.6997 H         1 UNK         0.0000 
     52 H52         3.5386   55.5983   28.9520 H         1 UNK         0.0000 
@<TRIPOS>BOND
     1    1    2 1    
     2    1   35 1    
     3    1   36 1    
     4    1   37 1    
     5    2    6 1    
     6    2    3 2    
     7    3    4 1    
     8    3   38 1    
     9    4    5 2    
    10    4   39 1    
    11    5    6 1    
    12    5    7 1    
    13    7    8 1    
    14    7   17 1    
    15    7    9 1    
    16    9   14 ar   
    17    9   10 ar   
    18   10   11 ar   
    19   10   21 1    
    20   11   12 1    
    21   11   13 ar   
    22   13   14 ar   
    23   14   15 1    
    24   15   16 1    
    25   16   17 2    
    26   16   20 1    
    27   17   18 1    
    28   18   19 3    
    29   20   40 1    
    30   20   41 1    
    31   21   26 ar   
    32   21   22 ar   
    33   22   23 ar   
    34   22   42 1    
    35   23   24 ar   
    36   23   43 1    
    37   24   25 ar   
    38   24   27 1    
    39   25   26 ar   
    40   25   44 1    
    41   26   45 1    
    42   27   28 1    
    43   28   29 1    
    44   28   46 1    
    45   28   47 1    
    46   29   34 ar   
    47   29   30 ar   
    48   30   31 ar   
    49   30   48 1    
    50   31   32 ar   
    51   31   49 1    
    52   32   33 ar   
    53   32   50 1    
    54   33   34 ar   
    55   33   51 1    
    56   34   52 1    
@<TRIPOS>SUBSTRUCTURE
     1 UNK         1 GROUP             0       ****    0 ROOT    
