ZINC09599725_4217
                    3D
 Schrodinger Suite 2024-2.
 62 66  0  0  1  0            999 V2000
    1.6917   47.6731   19.2760 C   0  0  0  0  0  0
    1.9043   48.8710   18.4812 N   0  0  0  0  0  0
    1.4609   50.0854   18.8345 C   0  0  0  0  0  0
    0.8241   50.3122   19.8666 O   0  0  0  0  0  0
    1.8163   51.1473   17.9181 C   0  0  0  0  0  0
    1.6193   51.1121   16.5060 C   0  0  0  0  0  0
    1.9389   52.3385   15.8973 C   0  0  0  0  0  0
    2.4659   53.5272   17.0331 S   0  0  0  0  0  0
    2.3011   52.4038   18.3327 C   0  0  0  0  0  0
    2.6789   52.8966   19.5696 N   0  0  0  0  0  0
    3.4536   52.2552   20.4660 C   0  0  0  0  0  0
    3.9046   51.1171   20.3554 O   0  0  0  0  0  0
    3.7744   53.0295   21.7038 C   0  0  0  0  0  0
    2.7541   53.5885   22.4789 C   0  0  0  0  0  0
    3.0552   54.1000   23.7329 C   0  0  0  0  0  0
    4.3664   54.0381   24.2089 C   0  0  0  0  0  0
    5.4078   53.6404   23.3744 C   0  0  0  0  0  0
    5.1034   53.1040   22.1303 C   0  0  0  0  0  0
    4.6991   54.4974   25.8939 S   0  0  0  0  0  0
    6.1556   54.5326   26.0841 O   0  0  0  0  0  0
    3.9042   55.6935   26.0816 O   0  0  0  0  0  0
    4.0143   53.2968   27.0416 N   0  0  0  0  0  0
    4.7007   53.2113   28.3413 C   0  0  0  0  0  0
    4.1914   54.3388   29.2617 C   0  0  0  0  0  0
    2.6774   54.2549   29.5124 C   0  0  0  0  0  0
    1.9367   53.5572   28.3801 C   0  0  0  0  0  0
    2.5995   53.1842   27.1843 C   0  0  0  0  0  0
    1.8753   52.4974   26.2018 C   0  0  0  0  0  0
    0.5364   52.1634   26.3838 C   0  0  0  0  0  0
   -0.1089   52.5212   27.5604 C   0  0  0  0  0  0
    0.5845   53.2281   28.5398 C   0  0  0  0  0  0
    1.8901   52.6240   14.4033 C   0  0  0  0  0  0
    1.0009   51.5714   13.7149 C   0  0  0  0  0  0
    1.3660   50.1483   14.1648 C   0  0  0  0  0  0
    1.1190   49.9203   15.6727 C   0  0  0  0  0  0
    1.9045   46.7879   18.6775 H   0  0  0  0  0  0
    2.3583   47.6832   20.1394 H   0  0  0  0  0  0
    0.6625   47.6077   19.6328 H   0  0  0  0  0  0
    2.6338   48.8415   17.7723 H   0  0  0  0  0  0
    2.5303   53.8894   19.7123 H   0  0  0  0  0  0
    1.7244   53.5643   22.1480 H   0  0  0  0  0  0
    2.2613   54.4866   24.3559 H   0  0  0  0  0  0
    6.4316   53.6407   23.7215 H   0  0  0  0  0  0
    5.8976   52.6833   21.5330 H   0  0  0  0  0  0
    4.4580   52.2335   28.7595 H   0  0  0  0  0  0
    5.7851   53.2512   28.2257 H   0  0  0  0  0  0
    4.7043   54.3347   30.2184 H   0  0  0  0  0  0
    4.4353   55.2959   28.8042 H   0  0  0  0  0  0
    2.5000   53.6764   30.4200 H   0  0  0  0  0  0
    2.2620   55.2494   29.6869 H   0  0  0  0  0  0
    2.3629   52.1529   25.3017 H   0  0  0  0  0  0
    0.0074   51.6069   25.6235 H   0  0  0  0  0  0
   -1.1431   52.2494   27.7141 H   0  0  0  0  0  0
    0.0697   53.4972   29.4521 H   0  0  0  0  0  0
    2.8982   52.5763   13.9891 H   0  0  0  0  0  0
    1.5161   53.6280   14.1996 H   0  0  0  0  0  0
    1.1024   51.6585   12.6321 H   0  0  0  0  0  0
   -0.0495   51.7680   13.9381 H   0  0  0  0  0  0
    2.4174   49.9601   13.9393 H   0  0  0  0  0  0
    0.8016   49.4162   13.5860 H   0  0  0  0  0  0
    0.0550   49.7682   15.8552 H   0  0  0  0  0  0
    1.6181   48.9927   15.9500 H   0  0  0  0  0  0
  1  2  1  0  0  0
  1 36  1  0  0  0
  1 37  1  0  0  0
  1 38  1  0  0  0
  2  3  1  0  0  0
  2 39  1  0  0  0
  3  4  2  0  0  0
  3  5  1  0  0  0
  5  9  2  0  0  0
  5  6  1  0  0  0
  6 35  1  0  0  0
  6  7  2  0  0  0
  7  8  1  0  0  0
  7 32  1  0  0  0
  8  9  1  0  0  0
  9 10  1  0  0  0
 10 11  1  0  0  0
 10 40  1  0  0  0
 11 12  2  0  0  0
 11 13  1  0  0  0
 13 18  2  0  0  0
 13 14  1  0  0  0
 14 15  2  0  0  0
 14 41  1  0  0  0
 15 16  1  0  0  0
 15 42  1  0  0  0
 16 17  2  0  0  0
 16 19  1  0  0  0
 17 18  1  0  0  0
 17 43  1  0  0  0
 18 44  1  0  0  0
 19 20  2  0  0  0
 19 21  2  0  0  0
 19 22  1  0  0  0
 22 27  1  0  0  0
 22 23  1  0  0  0
 23 24  1  0  0  0
 23 45  1  0  0  0
 23 46  1  0  0  0
 24 25  1  0  0  0
 24 47  1  0  0  0
 24 48  1  0  0  0
 25 26  1  0  0  0
 25 49  1  0  0  0
 25 50  1  0  0  0
 26 31  2  0  0  0
 26 27  1  0  0  0
 27 28  2  0  0  0
 28 29  1  0  0  0
 28 51  1  0  0  0
 29 30  2  0  0  0
 29 52  1  0  0  0
 30 31  1  0  0  0
 30 53  1  0  0  0
 31 54  1  0  0  0
 32 33  1  0  0  0
 32 55  1  0  0  0
 32 56  1  0  0  0
 33 34  1  0  0  0
 33 57  1  0  0  0
 33 58  1  0  0  0
 34 35  1  0  0  0
 34 59  1  0  0  0
 34 60  1  0  0  0
 35 61  1  0  0  0
 35 62  1  0  0  0
M  END
> <i_i_glide_confnum>
124

> <i_i_glide_lignum>
4218

> <i_i_glide_posenum>
170

> <i_i_glide_rotatable_bonds>
7

> <i_m_Source_File_Index>
950

> <b_m_subgroup_collapsed>
0

> <r_i_docking_score>
-3.87441

> <r_i_glide_ecoul>
-6.10699

> <r_i_glide_eff_state_penalty>
0

> <r_i_glide_einternal>
28.0052

> <r_i_glide_emodel>
-25.6779

> <r_i_glide_energy>
-33.6866

> <r_i_glide_erotb>
0.473126

> <r_i_glide_esite>
-0.177238

> <r_i_glide_evdw>
-27.5796

> <r_i_glide_gscore>
-3.87441

> <r_i_glide_hbond>
-0.457827

> <r_i_glide_ligand_efficiency>
-0.110698

> <r_i_glide_ligand_efficiency_ln>
-0.85052

> <r_i_glide_ligand_efficiency_sa>
-0.362099

> <r_i_glide_lipo>
-2.28179

> <r_i_glide_metal>
0

> <r_i_glide_rewards>
0.864343

> <s_i_glide_gridfile>
wee1_glide-grid

> <s_m_Source_File>
wee1_decoys_glide_SP.sdf

> <s_m_Source_Path>
/Users/zhangxujun/Desktop

> <s_m_entry_id>
1225

> <s_m_entry_name>
wee1_decoys_glide_SP.950

> <s_m_subgroup_title>
wee1_decoys_glide_SP

> <s_m_subgroupid>
wee1_decoys_glide_SP


$$$$
