@<TRIPOS>MOLECULE
ZINC02310865_558
56   59    1
SMALL
USER_CHARGES


@<TRIPOS>ATOM
      1 C1          4.7224   53.9324   26.6437 C.3       1 UNK         0.0000 
      2 C2          5.3238   54.0994   25.2715 C.2       1 UNK         0.0000 
      3 C3          6.6108   54.2663   24.7974 C.2       1 UNK         0.0000 
      4 C4          6.5249   54.3584   23.4088 C.2       1 UNK         0.0000 
      5 C5          5.1778   54.2589   23.0773 C.2       1 UNK         0.0000 
      6 O6          4.4618   54.0975   24.2239 O.3       1 UNK         0.0000 
      7 C7          4.3740   54.3790   21.7829 C.3       1 UNK         0.0000 
      8 H8          3.7364   55.2515   21.9312 H         1 UNK         0.0000 
      9 C9          5.2880   54.6429   20.5681 C.2       1 UNK         0.0000 
     10 C10         5.5144   53.6825   19.6482 C.2       1 UNK         0.0000 
     11 N11         4.8244   52.4968   19.6817 N.pl3     1 UNK         0.0000 
     12 C12         3.7980   52.2291   20.5618 C.2       1 UNK         0.0000 
     13 C13         3.4649   53.1444   21.5180 C.2       1 UNK         0.0000 
     14 C14         2.2118   53.0115   22.2994 C.2       1 UNK         0.0000 
     15 O15         1.8295   53.8717   23.0929 O.2       1 UNK         0.0000 
     16 C16         1.3740   51.7435   22.0696 C.3       1 UNK         0.0000 
     17 C17         1.4953   51.2261   20.6245 C.3       1 UNK         0.0000 
     18 C18         2.9666   50.9898   20.2376 C.3       1 UNK         0.0000 
     19 S19         6.7336   53.7669   18.3386 S.3       1 UNK         0.0000 
     20 C20         5.8475   53.2548   16.8319 C.3       1 UNK         0.0000 
     21 C21         4.6515   54.1574   16.5394 C.2       1 UNK         0.0000 
     22 O22         4.8420   55.2538   16.0135 O.2       1 UNK         0.0000 
     23 N23         3.4474   53.6630   16.8908 N.am      1 UNK         0.0000 
     24 C24         2.1987   54.3043   16.8685 C.ar      1 UNK         0.0000 
     25 C25         2.0340   55.6969   16.8563 C.ar      1 UNK         0.0000 
     26 C26         0.7566   56.2472   16.8819 C.ar      1 UNK         0.0000 
     27 C27        -0.3710   55.4179   16.9111 C.ar      1 UNK         0.0000 
     28 C28        -0.1991   54.0265   16.9309 C.ar      1 UNK         0.0000 
     29 C29         1.0785   53.4759   16.9171 C.ar      1 UNK         0.0000 
     30 C30        -1.7296   56.0337   16.9759 C.2       1 UNK         0.0000 
     31 O31        -1.9358   57.2188   17.2364 O.2       1 UNK         0.0000 
     32 C32        -2.9252   55.1563   16.6104 C.3       1 UNK         0.0000 
     33 C33         6.0523   55.8509   20.5225 C.1       1 UNK         0.0000 
     34 N34         6.6993   56.8114   20.4814 N.1       1 UNK         0.0000 
     35 H35         5.4785   53.9875   27.4269 H         1 UNK         0.0000 
     36 H36         4.2251   52.9681   26.7450 H         1 UNK         0.0000 
     37 H37         3.9814   54.7041   26.8522 H         1 UNK         0.0000 
     38 H38         7.5045   54.3158   25.3948 H         1 UNK         0.0000 
     39 H39         7.3502   54.5110   22.7281 H         1 UNK         0.0000 
     40 H40         5.1046   51.7584   19.0344 H         1 UNK         0.0000 
     41 H41         0.3418   51.9278   22.3678 H         1 UNK         0.0000 
     42 H42         1.7720   50.9889   22.7486 H         1 UNK         0.0000 
     43 H43         1.0451   51.9513   19.9421 H         1 UNK         0.0000 
     44 H44         0.9260   50.3031   20.5050 H         1 UNK         0.0000 
     45 H45         2.9445   50.8297   19.1572 H         1 UNK         0.0000 
     46 H46         3.3992   50.0915   20.6769 H         1 UNK         0.0000 
     47 H47         6.5447   53.3280   15.9972 H         1 UNK         0.0000 
     48 H48         5.5615   52.2049   16.8814 H         1 UNK         0.0000 
     49 H49         3.4275   52.6951   17.1766 H         1 UNK         0.0000 
     50 H50         2.8783   56.3692   16.8572 H         1 UNK         0.0000 
     51 H51         0.6586   57.3254   16.8873 H         1 UNK         0.0000 
     52 H52        -1.0417   53.3517   16.9712 H         1 UNK         0.0000 
     53 H53         1.1908   52.4011   16.9430 H         1 UNK         0.0000 
     54 H54        -3.0992   54.4027   17.3771 H         1 UNK         0.0000 
     55 H55        -3.8251   55.7581   16.4818 H         1 UNK         0.0000 
     56 H56        -2.7318   54.6416   15.6694 H         1 UNK         0.0000 
@<TRIPOS>BOND
     1    1    2 1    
     2    1   35 1    
     3    1   36 1    
     4    1   37 1    
     5    2    6 1    
     6    2    3 2    
     7    3    4 1    
     8    3   38 1    
     9    4    5 2    
    10    4   39 1    
    11    5    6 1    
    12    5    7 1    
    13    7    8 1    
    14    7   13 1    
    15    7    9 1    
    16    9   10 2    
    17    9   33 1    
    18   10   11 1    
    19   10   19 1    
    20   11   12 1    
    21   11   40 1    
    22   12   18 1    
    23   12   13 2    
    24   13   14 1    
    25   14   15 2    
    26   14   16 1    
    27   16   17 1    
    28   16   41 1    
    29   16   42 1    
    30   17   18 1    
    31   17   43 1    
    32   17   44 1    
    33   18   45 1    
    34   18   46 1    
    35   19   20 1    
    36   20   21 1    
    37   20   47 1    
    38   20   48 1    
    39   21   22 2    
    40   21   23 am   BACKBONE|DICT|INTERRES
    41   23   24 1    
    42   23   49 1    
    43   24   29 ar   
    44   24   25 ar   
    45   25   26 ar   
    46   25   50 1    
    47   26   27 ar   
    48   26   51 1    
    49   27   28 ar   
    50   27   30 1    
    51   28   29 ar   
    52   28   52 1    
    53   29   53 1    
    54   30   31 2    
    55   30   32 1    
    56   32   54 1    
    57   32   55 1    
    58   32   56 1    
    59   33   34 3    
@<TRIPOS>SUBSTRUCTURE
     1 UNK         1 GROUP             0       ****    0 ROOT    
