@<TRIPOS>MOLECULE
ZINC36720933_4680
39   40    1
SMALL
USER_CHARGES


@<TRIPOS>ATOM
      1 C1          3.1871   53.0227   30.2497 C.3       1 UNK         0.0000 
      2 C2          2.0922   52.8290   29.2020 C.ar      1 UNK         0.0000 
      3 C3          0.7592   52.5440   29.5615 C.ar      1 UNK         0.0000 
      4 C4         -0.1983   52.3163   28.5746 C.ar      1 UNK         0.0000 
      5 C5          0.1393   52.4047   27.2258 C.ar      1 UNK         0.0000 
      6 C6          1.4508   52.7089   26.8625 C.ar      1 UNK         0.0000 
      7 C7          2.4237   52.9185   27.8391 C.ar      1 UNK         0.0000 
      8 Cl8         4.0316   53.2962   27.3216 Cl        1 UNK         0.0000 
      9 S9         -1.1087   52.0974   25.9799 S.o2      1 UNK         0.0000 
     10 O10        -0.5568   52.4929   24.6782 O.2       1 UNK         0.0000 
     11 O11        -2.3555   52.7033   26.4612 O.2       1 UNK         0.0000 
     12 N12        -1.3098   50.3450   25.9824 N.pl3     1 UNK         0.0000 
     13 C13        -2.6802   49.7550   25.9449 C.3       1 UNK         0.0000 
     14 C14        -2.9148   48.9407   24.6539 C.3       1 UNK         0.0000 
     15 C15        -1.7806   47.9114   24.4230 C.3       1 UNK         0.0000 
     16 C16        -0.4509   48.6886   24.3010 C.3       1 UNK         0.0000 
     17 C17        -0.1584   49.4900   25.5869 C.3       1 UNK         0.0000 
     18 C18        -1.7070   46.7879   25.4873 C.3       1 UNK         0.0000 
     19 O19        -2.9185   46.0686   25.5553 O.3       1 UNK         0.0000 
     20 N20         0.3367   52.4966   30.8892 N.pl3     1 UNK         0.0000 
     21 H21         2.8872   52.7283   31.2555 H         1 UNK         0.0000 
     22 H22         4.0569   52.4129   30.0000 H         1 UNK         0.0000 
     23 H23         3.5220   54.0604   30.2545 H         1 UNK         0.0000 
     24 H24        -1.2141   52.0727   28.8531 H         1 UNK         0.0000 
     25 H25         1.7192   52.7818   25.8183 H         1 UNK         0.0000 
     26 H26        -3.4115   50.5595   25.9972 H         1 UNK         0.0000 
     27 H27        -2.8348   49.1683   26.8527 H         1 UNK         0.0000 
     28 H28        -2.9868   49.6251   23.8072 H         1 UNK         0.0000 
     29 H29        -3.8821   48.4409   24.7313 H         1 UNK         0.0000 
     30 H30        -1.9631   47.4411   23.4542 H         1 UNK         0.0000 
     31 H31         0.3797   48.0036   24.1221 H         1 UNK         0.0000 
     32 H32        -0.4784   49.3690   23.4485 H         1 UNK         0.0000 
     33 H33         0.7054   50.1348   25.4222 H         1 UNK         0.0000 
     34 H34         0.1028   48.8511   26.4340 H         1 UNK         0.0000 
     35 H35        -1.4810   47.1731   26.4817 H         1 UNK         0.0000 
     36 H36        -0.9075   46.0962   25.2315 H         1 UNK         0.0000 
     37 H37        -3.4805   46.5180   26.1967 H         1 UNK         0.0000 
     38 H38         1.0164   52.5611   31.6310 H         1 UNK         0.0000 
     39 H39        -0.5843   52.1378   31.1254 H         1 UNK         0.0000 
@<TRIPOS>BOND
     1    1    2 1    
     2    1   21 1    
     3    1   22 1    
     4    1   23 1    
     5    2    7 ar   
     6    2    3 ar   
     7    3    4 ar   
     8    3   20 1    
     9    4    5 ar   
    10    4   24 1    
    11    5    6 ar   
    12    5    9 1    
    13    6    7 ar   
    14    6   25 1    
    15    7    8 1    
    16    9   10 2    
    17    9   11 2    
    18    9   12 1    
    19   12   17 1    
    20   12   13 1    
    21   13   14 1    
    22   13   26 1    
    23   13   27 1    
    24   14   15 1    
    25   14   28 1    
    26   14   29 1    
    27   15   16 1    
    28   15   18 1    
    29   15   30 1    
    30   16   17 1    
    31   16   31 1    
    32   16   32 1    
    33   17   33 1    
    34   17   34 1    
    35   18   19 1    
    36   18   35 1    
    37   18   36 1    
    38   19   37 1    
    39   20   38 1    
    40   20   39 1    
@<TRIPOS>SUBSTRUCTURE
     1 UNK         1 GROUP             0       ****    0 ROOT    
