@<TRIPOS>MOLECULE
ZINC39676895_3688
68   71    1
SMALL
USER_CHARGES


@<TRIPOS>ATOM
      1 C1          1.6670   51.8925   27.7498 C.3       1 UNK         0.0000 
      2 C2          0.2857   51.4778   27.2835 C.ar      1 UNK         0.0000 
      3 C3         -0.8500   52.0846   27.8172 C.ar      1 UNK         0.0000 
      4 C4         -2.1175   51.6682   27.4130 C.ar      1 UNK         0.0000 
      5 C5         -2.2705   50.6589   26.4641 C.ar      1 UNK         0.0000 
      6 C6         -1.1318   50.0421   25.9135 C.ar      1 UNK         0.0000 
      7 C7          0.1391   50.4608   26.3375 C.ar      1 UNK         0.0000 
      8 C8         -1.2995   48.8657   24.9408 C.3       1 UNK         0.0000 
      9 C9         -0.0957   48.4815   24.0525 C.3       1 UNK         0.0000 
     10 N10         0.5080   49.6076   23.3387 N.am      1 UNK         0.0000 
     11 C11        -0.0933   50.3649   22.4006 C.2       1 UNK         0.0000 
     12 O12        -1.2427   50.1539   22.0166 O.2       1 UNK         0.0000 
     13 C13         0.6815   51.5507   21.7675 C.3       1 UNK         0.0000 
     14 H14         0.0051   52.4067   21.7616 H         1 UNK         0.0000 
     15 C15         1.8913   51.9663   22.6354 C.3       1 UNK         0.0000 
     16 N16         2.7141   52.7391   21.7018 N.am      1 UNK         0.0000 
     17 C17         2.3668   52.4120   20.3137 C.3       1 UNK         0.0000 
     18 C18         1.2994   51.2782   20.3720 C.3       1 UNK         0.0000 
     19 C19         0.2862   51.3334   19.2004 C.3       1 UNK         0.0000 
     20 C20         1.0109   51.2488   17.8354 C.3       1 UNK         0.0000 
     21 N21         1.7994   49.9169   17.7683 N.4       1 UNK         0.0000 
     22 C22         2.7044   49.6459   18.9860 C.3       1 UNK         0.0000 
     23 C23         1.9194   49.8466   20.2825 C.3       1 UNK         0.0000 
     24 C24         3.6757   53.6647   21.9854 C.2       1 UNK         0.0000 
     25 O25         4.3083   54.2357   21.0950 O.2       1 UNK         0.0000 
     26 C26         4.0667   53.9385   23.4228 C.ar      1 UNK         0.0000 
     27 C27         3.1182   54.1816   24.4237 C.ar      1 UNK         0.0000 
     28 C28         3.5175   54.3014   25.7515 C.ar      1 UNK         0.0000 
     29 C29         4.8696   54.2187   26.0957 C.ar      1 UNK         0.0000 
     30 C30         5.8258   54.0972   25.0848 C.ar      1 UNK         0.0000 
     31 C31         5.4264   53.9632   23.7583 C.ar      1 UNK         0.0000 
     32 C32         5.3018   54.2710   27.5613 C.3       1 UNK         0.0000 
     33 F33         4.4048   54.8959   28.3255 F         1 UNK         0.0000 
     34 F34         5.4418   53.0293   28.0211 F         1 UNK         0.0000 
     35 F35         6.4708   54.8967   27.6813 F         1 UNK         0.0000 
     36 C36        -3.6824   50.2160   26.0984 C.3       1 UNK         0.0000 
     37 H37         1.6423   52.7928   28.3663 H         1 UNK         0.0000 
     38 H38         2.3034   52.0991   26.8906 H         1 UNK         0.0000 
     39 H39         2.1293   51.0849   28.3191 H         1 UNK         0.0000 
     40 H40        -0.7534   52.8548   28.5689 H         1 UNK         0.0000 
     41 H41        -2.9969   52.0955   27.8674 H         1 UNK         0.0000 
     42 H42         1.0228   49.9705   25.9637 H         1 UNK         0.0000 
     43 H43        -1.6139   47.9962   25.5202 H         1 UNK         0.0000 
     44 H44        -2.1245   49.0918   24.2659 H         1 UNK         0.0000 
     45 H45         0.7028   48.0960   24.6875 H         1 UNK         0.0000 
     46 H46        -0.3787   47.7024   23.3425 H         1 UNK         0.0000 
     47 H47         1.4602   49.8210   23.5950 H         1 UNK         0.0000 
     48 H48         1.5373   52.4682   23.5306 H         1 UNK         0.0000 
     49 H49         2.4953   51.1018   22.9125 H         1 UNK         0.0000 
     50 H50         3.2126   52.2133   19.6577 H         1 UNK         0.0000 
     51 H51         1.8722   53.2961   19.9107 H         1 UNK         0.0000 
     52 H52        -0.4921   50.5760   19.3017 H         1 UNK         0.0000 
     53 H53        -0.2346   52.2907   19.2336 H         1 UNK         0.0000 
     54 H54         0.3204   51.2403   16.9891 H         1 UNK         0.0000 
     55 H55         1.7420   52.0456   17.6857 H         1 UNK         0.0000 
     56 H56         1.1564   49.1446   17.6684 H         1 UNK         0.0000 
     57 H57         3.1042   48.6373   18.8713 H         1 UNK         0.0000 
     58 H58         3.5043   50.3615   18.8825 H         1 UNK         0.0000 
     59 H59         2.6256   49.6968   21.1006 H         1 UNK         0.0000 
     60 H60         1.1700   49.0609   20.3952 H         1 UNK         0.0000 
     61 H61         2.0666   54.2791   24.1914 H         1 UNK         0.0000 
     62 H62         2.7642   54.4292   26.5164 H         1 UNK         0.0000 
     63 H63         6.8781   54.0576   25.3224 H         1 UNK         0.0000 
     64 H64         6.1850   53.8269   22.9995 H         1 UNK         0.0000 
     65 H65        -3.7820   49.1367   26.2219 H         1 UNK         0.0000 
     66 H66        -4.4416   50.6815   26.7287 H         1 UNK         0.0000 
     67 H67        -3.8986   50.4557   25.0569 H         1 UNK         0.0000 
     68 H68         2.4183   49.8849   16.9569 H         1 UNK         0.0000 
@<TRIPOS>BOND
     1    1    2 1    
     2    1   37 1    
     3    1   38 1    
     4    1   39 1    
     5    2    7 ar   
     6    2    3 ar   
     7    3    4 ar   
     8    3   40 1    
     9    4    5 ar   
    10    4   41 1    
    11    5    6 ar   
    12    5   36 1    
    13    6    7 ar   
    14    6    8 1    
    15    7   42 1    
    16    8    9 1    
    17    8   43 1    
    18    8   44 1    
    19    9   10 1    
    20    9   45 1    
    21    9   46 1    
    22   10   11 am   BACKBONE|DICT|INTERRES
    23   10   47 1    
    24   11   12 2    
    25   11   13 1    
    26   13   14 1    
    27   13   18 1    
    28   13   15 1    
    29   15   16 1    
    30   15   48 1    
    31   15   49 1    
    32   16   17 1    
    33   16   24 am   BACKBONE|DICT|INTERRES
    34   17   18 1    
    35   17   50 1    
    36   17   51 1    
    37   18   23 1    
    38   18   19 1    
    39   19   20 1    
    40   19   52 1    
    41   19   53 1    
    42   20   21 1    
    43   20   54 1    
    44   20   55 1    
    45   21   22 1    
    46   21   56 1    
    47   21   68 1    
    48   22   23 1    
    49   22   57 1    
    50   22   58 1    
    51   23   59 1    
    52   23   60 1    
    53   24   25 2    
    54   24   26 1    
    55   26   31 ar   
    56   26   27 ar   
    57   27   28 ar   
    58   27   61 1    
    59   28   29 ar   
    60   28   62 1    
    61   29   30 ar   
    62   29   32 1    
    63   30   31 ar   
    64   30   63 1    
    65   31   64 1    
    66   32   33 1    
    67   32   34 1    
    68   32   35 1    
    69   36   65 1    
    70   36   66 1    
    71   36   67 1    
@<TRIPOS>SUBSTRUCTURE
     1 UNK         1 GROUP             0       ****    0 ROOT    
