ZINC39560819_2149
                    3D
 Schrodinger Suite 2024-2.
 61 65  0  0  1  0            999 V2000
   -3.4028   50.8815   18.4914 C   0  0  0  0  0  0
   -2.1700   50.4454   19.0472 O   0  0  0  0  0  0
   -1.6227   51.0963   20.0998 C   0  0  0  0  0  0
   -2.0997   52.0975   20.6397 O   0  0  0  0  0  0
   -0.2897   50.4817   20.6211 C   0  0  2  0  0  0
    0.3470   51.3553   20.7497 H   0  0  0  0  0  0
    0.4605   49.5698   19.6078 C   0  0  0  0  0  0
   -0.0714   48.1435   19.6101 C   0  0  0  0  0  0
    0.0787   47.1149   18.7733 C   0  0  0  0  0  0
    0.8906   46.9741   17.4716 C   0  0  0  0  0  0
    0.6779   45.5742   16.8760 C   0  0  0  0  0  0
   -0.0953   44.6278   17.4458 C   0  0  0  0  0  0
   -0.8069   44.8671   18.6876 C   0  0  0  0  0  0
   -0.7262   46.0536   19.3241 C   0  0  0  0  0  0
   -1.3223   46.4467   20.4649 N   0  0  0  0  0  0
   -0.9463   47.6526   20.6424 C   0  0  0  0  0  0
   -1.3480   48.5757   21.8250 C   0  0  2  0  0  0
   -2.3503   48.9448   21.6084 H   0  0  0  0  0  0
   -0.4402   49.7558   21.9233 N   0  0  0  0  0  0
   -0.6002   50.6141   23.1229 C   0  0  1  0  0  0
   -1.5508   51.1441   23.0261 H   0  0  0  0  0  0
   -0.6606   49.7724   24.4246 C   0  0  0  0  0  0
   -1.7685   48.7115   24.3684 C   0  0  1  0  0  0
   -2.7316   49.2157   24.2559 H   0  0  0  0  0  0
   -1.4453   47.7990   23.1636 C   0  0  0  0  0  0
   -1.7431   47.8924   25.6815 N   0  3  0  0  0  0
   -2.9478   46.9479   25.8396 C   0  0  0  0  0  0
   -2.7543   46.0518   27.0657 C   0  0  0  0  0  0
   -3.5405   44.8967   26.8817 O   0  0  0  0  0  0
    0.4735   51.7008   23.2703 C   0  0  0  0  0  0
    1.7704   51.4996   22.7866 C   0  0  0  0  0  0
    2.7039   52.5265   22.8417 C   0  0  0  0  0  0
    2.3800   53.7185   23.4752 C   0  0  0  0  0  0
    1.1087   53.9096   24.0047 C   0  0  0  0  0  0
    0.1490   52.9083   23.8944 C   0  0  0  0  0  0
    3.3091   54.6927   23.5853 F   0  0  0  0  0  0
   -4.2051   50.8312   19.2313 H   0  0  0  0  0  0
   -3.3324   51.9086   18.1262 H   0  0  0  0  0  0
   -3.6798   50.2445   17.6484 H   0  0  0  0  0  0
    0.4459   49.9962   18.6037 H   0  0  0  0  0  0
    1.5138   49.5499   19.8856 H   0  0  0  0  0  0
    0.5750   47.7311   16.7534 H   0  0  0  0  0  0
    1.9516   47.1290   17.6759 H   0  0  0  0  0  0
    1.1772   45.3330   15.9465 H   0  0  0  0  0  0
   -0.1979   43.6697   16.9523 H   0  0  0  0  0  0
   -1.4186   44.0833   19.0996 H   0  0  0  0  0  0
    0.3087   49.2876   24.5660 H   0  0  0  0  0  0
   -0.7757   50.3987   25.3097 H   0  0  0  0  0  0
   -2.1599   46.9815   23.0745 H   0  0  0  0  0  0
   -0.4965   47.2995   23.3534 H   0  0  0  0  0  0
   -0.8795   47.3661   25.7283 H   0  0  0  0  0  0
   -3.8172   47.6010   25.9384 H   0  0  0  0  0  0
   -3.0202   46.3644   24.9229 H   0  0  0  0  0  0
   -1.7106   45.7624   27.2045 H   0  0  0  0  0  0
   -3.0872   46.5481   27.9784 H   0  0  0  0  0  0
   -3.2955   44.2636   27.6034 H   0  0  0  0  0  0
    2.0423   50.5632   22.3171 H   0  0  0  0  0  0
    3.6925   52.3894   22.4293 H   0  0  0  0  0  0
    0.8803   54.8517   24.4806 H   0  0  0  0  0  0
   -0.8432   53.0806   24.2877 H   0  0  0  0  0  0
   -1.6917   48.4799   26.5222 H   0  0  0  0  0  0
  1  2  1  0  0  0
  1 37  1  0  0  0
  1 38  1  0  0  0
  1 39  1  0  0  0
  2  3  1  0  0  0
  3  4  2  0  0  0
  3  5  1  0  0  0
  5  6  1  0  0  0
  5 19  1  0  0  0
  5  7  1  0  0  0
  7  8  1  0  0  0
  7 40  1  0  0  0
  7 41  1  0  0  0
  8 16  1  0  0  0
  8  9  2  0  0  0
  9 14  1  0  0  0
  9 10  1  0  0  0
 10 11  1  0  0  0
 10 42  1  0  0  0
 10 43  1  0  0  0
 11 12  2  0  0  0
 11 44  1  0  0  0
 12 13  1  0  0  0
 12 45  1  0  0  0
 13 14  2  0  0  0
 13 46  1  0  0  0
 14 15  1  0  0  0
 15 16  2  0  0  0
 16 17  1  0  0  0
 17 18  1  0  0  0
 17 25  1  0  0  0
 17 19  1  0  0  0
 19 20  1  0  0  0
 20 21  1  0  0  0
 20 22  1  0  0  0
 20 30  1  0  0  0
 22 23  1  0  0  0
 22 47  1  0  0  0
 22 48  1  0  0  0
 23 24  1  0  0  0
 23 25  1  0  0  0
 23 26  1  0  0  0
 25 49  1  0  0  0
 25 50  1  0  0  0
 26 27  1  0  0  0
 26 51  1  0  0  0
 26 61  1  0  0  0
 27 28  1  0  0  0
 27 52  1  0  0  0
 27 53  1  0  0  0
 28 29  1  0  0  0
 28 54  1  0  0  0
 28 55  1  0  0  0
 29 56  1  0  0  0
 30 35  2  0  0  0
 30 31  1  0  0  0
 31 32  2  0  0  0
 31 57  1  0  0  0
 32 33  1  0  0  0
 32 58  1  0  0  0
 33 34  2  0  0  0
 33 36  1  0  0  0
 34 35  1  0  0  0
 34 59  1  0  0  0
 35 60  1  0  0  0
M  CHG  1  26   1
M  END
> <i_i_glide_confnum>
19

> <i_i_glide_lignum>
2150

> <i_i_glide_posenum>
101

> <i_i_glide_rotatable_bonds>
7

> <i_m_Source_File_Index>
5139

> <b_m_subgroup_collapsed>
0

> <r_i_docking_score>
-5.21784

> <r_i_glide_ecoul>
-17.0194

> <r_i_glide_eff_state_penalty>
0

> <r_i_glide_einternal>
7.5215

> <r_i_glide_emodel>
-47.1905

> <r_i_glide_energy>
-36.0758

> <r_i_glide_erotb>
0.518746

> <r_i_glide_esite>
-0.107768

> <r_i_glide_evdw>
-19.0564

> <r_i_glide_gscore>
-5.21784

> <r_i_glide_hbond>
-0.663331

> <r_i_glide_ligand_efficiency>
-0.163057

> <r_i_glide_ligand_efficiency_ln>
-1.16842

> <r_i_glide_ligand_efficiency_sa>
-0.517675

> <r_i_glide_lipo>
-0.89602

> <r_i_glide_metal>
0

> <r_i_glide_rewards>
-0.563735

> <s_i_glide_gridfile>
wee1_glide-grid

> <s_m_Source_File>
wee1_decoys_glide_SP.sdf

> <s_m_Source_Path>
/Users/zhangxujun/Desktop

> <s_m_entry_id>
5414

> <s_m_entry_name>
wee1_decoys_glide_SP.5139

> <s_m_subgroup_title>
wee1_decoys_glide_SP

> <s_m_subgroupid>
wee1_decoys_glide_SP


$$$$
