ZINC07086430_1517
                    3D
 Schrodinger Suite 2024-2.
 55 58  0  0  1  0            999 V2000
    1.1141   50.2606   15.9435 C   0  0  0  0  0  0
    1.6528   51.6565   16.3015 C   0  0  1  0  0  0
    2.2088   51.7003   17.7450 C   0  0  0  0  0  0
    2.6922   53.1256   18.0909 C   0  0  0  0  0  0
    3.8114   53.5853   17.1123 C   0  0  1  0  0  0
    3.2419   53.5426   15.6650 C   0  0  0  0  0  0
    2.7478   52.1205   15.3102 C   0  0  0  0  0  0
    4.2395   54.9981   17.4838 C   0  0  0  0  0  0
    3.5046   55.9794   17.6121 O   0  0  0  0  0  0
    5.5773   54.9298   17.6707 N   0  0  0  0  0  0
    6.1100   53.7005   17.4587 C   0  0  0  0  0  0
    7.2898   53.4197   17.2626 O   0  0  0  0  0  0
    5.0604   52.8968   17.2804 N   0  0  0  0  0  0
    6.3428   56.0129   18.3243 C   0  0  0  0  0  0
    6.3077   55.9512   19.8692 C   0  0  0  0  0  0
    6.7961   56.8980   20.4815 O   0  0  0  0  0  0
    5.7351   54.8900   20.4834 N   0  0  0  0  0  0
    5.6240   54.6931   21.8649 C   0  0  0  0  0  0
    4.4173   54.2009   22.3560 C   0  0  0  0  0  0
    4.2239   54.0931   23.7313 C   0  0  0  0  0  0
    5.2413   54.4321   24.6406 C   0  0  0  0  0  0
    6.4714   54.8731   24.1170 C   0  0  0  0  0  0
    6.6665   54.9926   22.7465 C   0  0  0  0  0  0
    4.9806   54.3289   26.0433 N   0  0  0  0  0  0
    3.6630   53.9523   26.5844 C   0  0  0  0  0  0
    3.7227   54.2160   28.0697 C   0  0  0  0  0  0
    5.1938   54.1400   28.3712 C   0  0  0  0  0  0
    5.9048   54.4132   27.0496 C   0  0  0  0  0  0
    7.1044   54.6620   26.9815 O   0  0  0  0  0  0
    1.9026   49.5078   15.9896 H   0  0  0  0  0  0
    0.3243   49.9532   16.6299 H   0  0  0  0  0  0
    0.6977   50.2438   14.9356 H   0  0  0  0  0  0
    0.8301   52.3715   16.2430 H   0  0  0  0  0  0
    3.0172   50.9751   17.8590 H   0  0  0  0  0  0
    1.4431   51.3753   18.4505 H   0  0  0  0  0  0
    3.0803   53.0995   19.1115 H   0  0  0  0  0  0
    1.8696   53.8434   18.1246 H   0  0  0  0  0  0
    2.4786   54.3074   15.5057 H   0  0  0  0  0  0
    4.0337   53.7991   14.9585 H   0  0  0  0  0  0
    3.5772   51.4096   15.3152 H   0  0  0  0  0  0
    2.3636   52.0934   14.2896 H   0  0  0  0  0  0
    5.1035   51.8917   17.4608 H   0  0  0  0  0  0
    5.9280   56.9756   18.0198 H   0  0  0  0  0  0
    7.3819   55.9985   17.9924 H   0  0  0  0  0  0
    5.2262   54.2400   19.9061 H   0  0  0  0  0  0
    3.6077   53.9552   21.6835 H   0  0  0  0  0  0
    3.2636   53.7364   24.0697 H   0  0  0  0  0  0
    7.3040   55.1591   24.7353 H   0  0  0  0  0  0
    7.6182   55.3526   22.3819 H   0  0  0  0  0  0
    2.8596   54.5224   26.1188 H   0  0  0  0  0  0
    3.4788   52.8969   26.3803 H   0  0  0  0  0  0
    3.1181   53.5156   28.6471 H   0  0  0  0  0  0
    3.3530   55.2206   28.2837 H   0  0  0  0  0  0
    5.4760   53.1355   28.6898 H   0  0  0  0  0  0
    5.5040   54.8387   29.1496 H   0  0  0  0  0  0
  1  2  1  0  0  0
  1 30  1  0  0  0
  1 31  1  0  0  0
  1 32  1  0  0  0
  2  7  1  0  0  0
  2  3  1  0  0  0
  2 33  1  0  0  0
  3  4  1  0  0  0
  3 34  1  0  0  0
  3 35  1  0  0  0
  4  5  1  0  0  0
  4 36  1  0  0  0
  4 37  1  0  0  0
  5 13  1  0  0  0
  5  6  1  0  0  0
  5  8  1  0  0  0
  6  7  1  0  0  0
  6 38  1  0  0  0
  6 39  1  0  0  0
  7 40  1  0  0  0
  7 41  1  0  0  0
  8  9  2  0  0  0
  8 10  1  0  0  0
 10 11  1  0  0  0
 10 14  1  0  0  0
 11 12  2  0  0  0
 11 13  1  0  0  0
 13 42  1  0  0  0
 14 15  1  0  0  0
 14 43  1  0  0  0
 14 44  1  0  0  0
 15 16  2  0  0  0
 15 17  1  0  0  0
 17 18  1  0  0  0
 17 45  1  0  0  0
 18 23  2  0  0  0
 18 19  1  0  0  0
 19 20  2  0  0  0
 19 46  1  0  0  0
 20 21  1  0  0  0
 20 47  1  0  0  0
 21 22  2  0  0  0
 21 24  1  0  0  0
 22 23  1  0  0  0
 22 48  1  0  0  0
 23 49  1  0  0  0
 24 28  1  0  0  0
 24 25  1  0  0  0
 25 26  1  0  0  0
 25 50  1  0  0  0
 25 51  1  0  0  0
 26 27  1  0  0  0
 26 52  1  0  0  0
 26 53  1  0  0  0
 27 28  1  0  0  0
 27 54  1  0  0  0
 27 55  1  0  0  0
 28 29  2  0  0  0
M  END
> <i_i_glide_confnum>
70

> <i_i_glide_lignum>
1518

> <i_i_glide_posenum>
261

> <i_i_glide_rotatable_bonds>
5

> <i_m_Source_File_Index>
4754

> <b_m_subgroup_collapsed>
0

> <r_i_docking_score>
-7.39646

> <r_i_glide_ecoul>
-10.4857

> <r_i_glide_eff_state_penalty>
0

> <r_i_glide_einternal>
7.29075

> <r_i_glide_emodel>
-63.2956

> <r_i_glide_energy>
-46.0357

> <r_i_glide_erotb>
0.616779

> <r_i_glide_esite>
-0.129443

> <r_i_glide_evdw>
-35.55

> <r_i_glide_gscore>
-7.39646

> <r_i_glide_hbond>
-0.655205

> <r_i_glide_ligand_efficiency>
-0.25505

> <r_i_glide_ligand_efficiency_ln>
-1.6936

> <r_i_glide_ligand_efficiency_sa>
-0.783595

> <r_i_glide_lipo>
-2.10973

> <r_i_glide_metal>
0

> <r_i_glide_rewards>
-1.7685

> <s_i_glide_gridfile>
wee1_glide-grid

> <s_m_Source_File>
wee1_decoys_glide_SP.sdf

> <s_m_Source_Path>
/Users/zhangxujun/Desktop

> <s_m_entry_id>
5029

> <s_m_entry_name>
wee1_decoys_glide_SP.4754

> <s_m_subgroup_title>
wee1_decoys_glide_SP

> <s_m_subgroupid>
wee1_decoys_glide_SP


$$$$
