@<TRIPOS>MOLECULE
ZINC14031773_3521
50   52    1
SMALL
USER_CHARGES


@<TRIPOS>ATOM
      1 C1         -5.1763   45.2202   24.1036 C.3       1 UNK         0.0000 
      2 C2         -3.9509   46.0996   24.3095 C.ar      1 UNK         0.0000 
      3 C3         -3.8850   46.9366   25.4249 C.ar      1 UNK         0.0000 
      4 C4         -2.7867   47.7737   25.6179 C.ar      1 UNK         0.0000 
      5 C5         -1.7200   47.7910   24.7044 C.ar      1 UNK         0.0000 
      6 C6         -1.7908   46.9354   23.5951 C.ar      1 UNK         0.0000 
      7 C7         -2.8884   46.0969   23.3946 C.ar      1 UNK         0.0000 
      8 Br8        -2.8898   44.9422   21.8770 Br        1 UNK         0.0000 
      9 C9         -0.5480   48.7431   24.8535 C.2       1 UNK         0.0000 
     10 O10         0.2462   48.8871   23.9201 O.2       1 UNK         0.0000 
     11 N11        -0.4407   49.3951   26.0411 N.am      1 UNK         0.0000 
     12 C12        -0.0734   50.6887   26.3291 C.2       1 UNK         0.0000 
     13 S13         0.3048   51.8915   25.1986 S.2       1 UNK         0.0000 
     14 N14        -0.0955   50.8967   27.6817 N.pl3     1 UNK         0.0000 
     15 N15         0.0441   52.1557   28.2723 N.am      1 UNK         0.0000 
     16 C16         1.1153   52.4120   29.0494 C.2       1 UNK         0.0000 
     17 O17         2.0191   51.6037   29.2815 O.2       1 UNK         0.0000 
     18 C18         1.2016   53.8491   29.6212 C.3       1 UNK         0.0000 
     19 H19         0.6727   54.5545   28.9761 H         1 UNK         0.0000 
     20 C20         0.5584   53.9107   31.0194 C.3       1 UNK         0.0000 
     21 O21         2.5660   54.2782   29.7834 O.3       1 UNK         0.0000 
     22 C22         3.4291   54.3586   28.7015 C.ar      1 UNK         0.0000 
     23 C23         4.7819   54.4698   29.0010 C.ar      1 UNK         0.0000 
     24 C24         5.7494   54.4965   28.0015 C.ar      1 UNK         0.0000 
     25 C25         5.3704   54.4425   26.6411 C.ar      1 UNK         0.0000 
     26 C26         6.3268   54.4694   25.5958 C.ar      1 UNK         0.0000 
     27 C27         5.9209   54.4056   24.2660 C.ar      1 UNK         0.0000 
     28 C28         4.5703   54.3044   23.9459 C.ar      1 UNK         0.0000 
     29 C29         3.6042   54.2808   24.9490 C.ar      1 UNK         0.0000 
     30 C30         3.9845   54.3505   26.3126 C.ar      1 UNK         0.0000 
     31 C31         3.0284   54.3194   27.3586 C.ar      1 UNK         0.0000 
     32 H32        -5.8746   45.2817   24.9392 H         1 UNK         0.0000 
     33 H33        -5.7012   45.5191   23.1957 H         1 UNK         0.0000 
     34 H34        -4.8957   44.1746   23.9846 H         1 UNK         0.0000 
     35 H35        -4.6902   46.9565   26.1447 H         1 UNK         0.0000 
     36 H36        -2.7927   48.4217   26.4818 H         1 UNK         0.0000 
     37 H37        -0.9921   46.9205   22.8656 H         1 UNK         0.0000 
     38 H38        -0.9414   48.9331   26.7961 H         1 UNK         0.0000 
     39 H39        -0.6736   50.2931   28.2548 H         1 UNK         0.0000 
     40 H40        -0.7715   52.7418   28.1797 H         1 UNK         0.0000 
     41 H41        -0.4877   53.6039   31.0004 H         1 UNK         0.0000 
     42 H42         1.0761   53.2593   31.7257 H         1 UNK         0.0000 
     43 H43         0.5928   54.9237   31.4217 H         1 UNK         0.0000 
     44 H44         5.0869   54.4997   30.0359 H         1 UNK         0.0000 
     45 H45         6.7964   54.5498   28.2648 H         1 UNK         0.0000 
     46 H46         7.3763   54.5223   25.8385 H         1 UNK         0.0000 
     47 H47         6.6591   54.4194   23.4773 H         1 UNK         0.0000 
     48 H48         4.2664   54.2518   22.9100 H         1 UNK         0.0000 
     49 H49         2.5579   54.2039   24.6907 H         1 UNK         0.0000 
     50 H50         1.9854   54.2478   27.0901 H         1 UNK         0.0000 
@<TRIPOS>BOND
     1    1    2 1    
     2    1   32 1    
     3    1   33 1    
     4    1   34 1    
     5    2    7 ar   
     6    2    3 ar   
     7    3    4 ar   
     8    3   35 1    
     9    4    5 ar   
    10    4   36 1    
    11    5    6 ar   
    12    5    9 1    
    13    6    7 ar   
    14    6   37 1    
    15    7    8 1    
    16    9   10 2    
    17    9   11 am   BACKBONE|DICT|INTERRES
    18   11   12 am   BACKBONE|DICT|INTERRES
    19   11   38 1    
    20   12   13 2    
    21   12   14 1    
    22   14   15 1    
    23   14   39 1    
    24   15   16 am   BACKBONE|DICT|INTERRES
    25   15   40 1    
    26   16   17 2    
    27   16   18 1    
    28   18   19 1    
    29   18   20 1    
    30   18   21 1    
    31   20   41 1    
    32   20   42 1    
    33   20   43 1    
    34   21   22 1    
    35   22   31 ar   
    36   22   23 ar   
    37   23   24 ar   
    38   23   44 1    
    39   24   25 ar   
    40   24   45 1    
    41   25   30 ar   
    42   25   26 ar   
    43   26   27 ar   
    44   26   46 1    
    45   27   28 ar   
    46   27   47 1    
    47   28   29 ar   
    48   28   48 1    
    49   29   30 ar   
    50   29   49 1    
    51   30   31 ar   
    52   31   50 1    
@<TRIPOS>SUBSTRUCTURE
     1 UNK         1 GROUP             0       ****    0 ROOT    
