@<TRIPOS>MOLECULE
ZINC38597410_583
65   68    1
SMALL
USER_CHARGES


@<TRIPOS>ATOM
      1 C1         -2.4729   49.4680   20.3695 C.3       1 UNK         0.0000 
      2 C2         -1.1048   50.1771   20.4662 C.3       1 UNK         0.0000 
      3 H3         -0.3514   49.3868   20.4735 H         1 UNK         0.0000 
      4 C4         -0.9357   50.9820   21.8058 C.3       1 UNK         0.0000 
      5 H5         -1.8022   51.6477   21.8251 H         1 UNK         0.0000 
      6 C6         -0.9902   50.0835   23.0431 C.2       1 UNK         0.0000 
      7 C7         -0.1610   49.0268   23.4295 C.2       1 UNK         0.0000 
      8 C8         -0.4549   48.4908   24.6853 C.2       1 UNK         0.0000 
      9 C9         -1.5387   49.1036   25.2816 C.2       1 UNK         0.0000 
     10 S10        -2.1861   50.3588   24.2844 S.3       1 UNK         0.0000 
     11 N11         0.2276   51.8948   21.8260 N.3       1 UNK         0.0000 
     12 C12         1.5294   51.2732   21.5189 C.3       1 UNK         0.0000 
     13 C13         2.6466   52.3319   21.3825 C.3       1 UNK         0.0000 
     14 N14         2.7122   53.1722   22.6806 N.4       1 UNK         0.0000 
     15 C15         1.3269   53.8153   22.9303 C.3       1 UNK         0.0000 
     16 C16         0.2802   52.6981   23.0595 C.3       1 UNK         0.0000 
     17 C17         3.8305   54.2436   22.6245 C.3       1 UNK         0.0000 
     18 C18         4.6575   54.3437   23.9030 C.ar      1 UNK         0.0000 
     19 C19         6.0512   54.3823   23.8110 C.ar      1 UNK         0.0000 
     20 C20         6.8226   54.4829   24.9649 C.ar      1 UNK         0.0000 
     21 C21         6.2063   54.5361   26.2135 C.ar      1 UNK         0.0000 
     22 C22         4.8189   54.4977   26.3141 C.ar      1 UNK         0.0000 
     23 C23         4.0439   54.4145   25.1605 C.ar      1 UNK         0.0000 
     24 N24        -0.8173   50.9462   19.2412 N.am      1 UNK         0.0000 
     25 C25        -1.3964   52.0967   18.8528 C.2       1 UNK         0.0000 
     26 O26        -2.4807   52.4966   19.2824 O.2       1 UNK         0.0000 
     27 N27        -0.5909   52.7736   18.0091 N.am      1 UNK         0.0000 
     28 C28        -0.8112   54.0149   17.3833 C.ar      1 UNK         0.0000 
     29 C29        -2.0772   54.5925   17.2110 C.ar      1 UNK         0.0000 
     30 C30        -2.1965   55.8293   16.5821 C.ar      1 UNK         0.0000 
     31 C31        -1.0616   56.5016   16.1222 C.ar      1 UNK         0.0000 
     32 C32         0.1998   55.9233   16.2968 C.ar      1 UNK         0.0000 
     33 C33         0.3212   54.6810   16.9120 C.ar      1 UNK         0.0000 
     34 C34        -1.2092   57.8593   15.4383 C.3       1 UNK         0.0000 
     35 F35        -0.0564   58.5301   15.3884 F         1 UNK         0.0000 
     36 F36        -2.0964   58.6177   16.0820 F         1 UNK         0.0000 
     37 F37        -1.6401   57.6727   14.1906 F         1 UNK         0.0000 
     38 H38        -2.6811   48.8843   21.2642 H         1 UNK         0.0000 
     39 H39        -3.2897   50.1813   20.2805 H         1 UNK         0.0000 
     40 H40        -2.5076   48.7784   19.5231 H         1 UNK         0.0000 
     41 H41         0.6632   48.6741   22.8300 H         1 UNK         0.0000 
     42 H42         0.1091   47.6973   25.1519 H         1 UNK         0.0000 
     43 H43        -1.9703   48.8939   26.2552 H         1 UNK         0.0000 
     44 H44         1.7834   50.6112   22.3470 H         1 UNK         0.0000 
     45 H45         1.4985   50.6893   20.6011 H         1 UNK         0.0000 
     46 H46         2.4840   53.0130   20.5452 H         1 UNK         0.0000 
     47 H47         3.6172   51.8376   21.2880 H         1 UNK         0.0000 
     48 H48         1.1067   54.4760   22.0902 H         1 UNK         0.0000 
     49 H49         1.3770   54.3945   23.8507 H         1 UNK         0.0000 
     50 H50        -0.6957   53.1387   23.2810 H         1 UNK         0.0000 
     51 H51         0.5493   52.0493   23.8934 H         1 UNK         0.0000 
     52 H52         4.4724   53.9832   21.7801 H         1 UNK         0.0000 
     53 H53         3.3618   55.1971   22.3801 H         1 UNK         0.0000 
     54 H54         6.5514   54.3325   22.8513 H         1 UNK         0.0000 
     55 H55         7.9011   54.5043   24.8828 H         1 UNK         0.0000 
     56 H56         6.8042   54.6040   27.1147 H         1 UNK         0.0000 
     57 H57         4.3434   54.5448   27.2838 H         1 UNK         0.0000 
     58 H58         2.9706   54.3976   25.2691 H         1 UNK         0.0000 
     59 H59        -0.0870   50.5737   18.6567 H         1 UNK         0.0000 
     60 H60         0.3334   52.3934   17.8680 H         1 UNK         0.0000 
     61 H61        -2.9782   54.0897   17.5313 H         1 UNK         0.0000 
     62 H62        -3.1783   56.2611   16.4454 H         1 UNK         0.0000 
     63 H63         1.0905   56.4291   15.9513 H         1 UNK         0.0000 
     64 H64         1.3062   54.2536   17.0397 H         1 UNK         0.0000 
     65 H65         2.9192   52.5565   23.4540 H         1 UNK         0.0000 
@<TRIPOS>BOND
     1    1    2 1    
     2    1   38 1    
     3    1   39 1    
     4    1   40 1    
     5    2    3 1    
     6    2    4 1    
     7    2   24 1    
     8    4    5 1    
     9    4    6 1    
    10    4   11 1    
    11    6   10 1    
    12    6    7 2    
    13    7    8 1    
    14    7   41 1    
    15    8    9 2    
    16    8   42 1    
    17    9   10 1    
    18    9   43 1    
    19   11   16 1    
    20   11   12 1    
    21   12   13 1    
    22   12   44 1    
    23   12   45 1    
    24   13   14 1    
    25   13   46 1    
    26   13   47 1    
    27   14   15 1    
    28   14   17 1    
    29   14   65 1    
    30   15   16 1    
    31   15   48 1    
    32   15   49 1    
    33   16   50 1    
    34   16   51 1    
    35   17   18 1    
    36   17   52 1    
    37   17   53 1    
    38   18   23 ar   
    39   18   19 ar   
    40   19   20 ar   
    41   19   54 1    
    42   20   21 ar   
    43   20   55 1    
    44   21   22 ar   
    45   21   56 1    
    46   22   23 ar   
    47   22   57 1    
    48   23   58 1    
    49   24   25 am   BACKBONE|DICT|INTERRES
    50   24   59 1    
    51   25   26 2    
    52   25   27 am   BACKBONE|DICT|INTERRES
    53   27   28 1    
    54   27   60 1    
    55   28   33 ar   
    56   28   29 ar   
    57   29   30 ar   
    58   29   61 1    
    59   30   31 ar   
    60   30   62 1    
    61   31   32 ar   
    62   31   34 1    
    63   32   33 ar   
    64   32   63 1    
    65   33   64 1    
    66   34   35 1    
    67   34   36 1    
    68   34   37 1    
@<TRIPOS>SUBSTRUCTURE
     1 UNK         1 GROUP             0       ****    0 ROOT    
