@<TRIPOS>MOLECULE
ZINC10353145_5026
53   56    1
SMALL
USER_CHARGES


@<TRIPOS>ATOM
      1 C1          6.1859   55.7370   17.5071 C.3       1 UNK         0.0000 
      2 C2          5.5307   54.7427   18.4290 C.2       1 UNK         0.0000 
      3 C3          4.2840   54.6285   18.9968 C.2       1 UNK         0.0000 
      4 C4          4.3211   53.4722   19.7708 C.2       1 UNK         0.0000 
      5 N5          5.5041   52.8981   19.6815 N.2       1 UNK         0.0000 
      6 O6          6.2829   53.6961   18.8421 O.3       1 UNK         0.0000 
      7 N7          3.2527   53.0215   20.5345 N.am      1 UNK         0.0000 
      8 C8          3.2650   52.0070   21.4269 C.2       1 UNK         0.0000 
      9 O9          4.2425   51.2968   21.6533 O.2       1 UNK         0.0000 
     10 C10         2.0098   51.8416   22.1443 C.2       1 UNK         0.0000 
     11 C11         1.3455   50.6490   22.2657 C.2       1 UNK         0.0000 
     12 N12         0.1041   50.5873   22.9190 N.pl3     1 UNK         0.0000 
     13 C13        -0.5985   51.7327   23.2759 C.2       1 UNK         0.0000 
     14 S14        -2.1639   51.8789   23.8535 S.2       1 UNK         0.0000 
     15 N15         0.0939   52.8967   23.1982 N.pl3     1 UNK         0.0000 
     16 C16         1.5315   53.0771   22.9468 C.3       1 UNK         0.0000 
     17 H17         1.6266   53.9747   22.3326 H         1 UNK         0.0000 
     18 C18         2.3561   53.3807   24.2038 C.ar      1 UNK         0.0000 
     19 C19         3.5209   54.1410   24.0807 C.ar      1 UNK         0.0000 
     20 C20         4.2550   54.4909   25.2094 C.ar      1 UNK         0.0000 
     21 C21         3.8347   54.0974   26.4782 C.ar      1 UNK         0.0000 
     22 C22         2.6621   53.3381   26.6068 C.ar      1 UNK         0.0000 
     23 C23         1.9284   52.9849   25.4776 C.ar      1 UNK         0.0000 
     24 O24         4.6323   54.4969   27.5318 O.3       1 UNK         0.0000 
     25 C25         4.2040   54.3057   28.8773 C.3       1 UNK         0.0000 
     26 F26         5.1040   54.8967   29.6566 F         1 UNK         0.0000 
     27 F27         4.1621   53.0128   29.2049 F         1 UNK         0.0000 
     28 F28         3.0293   54.8922   29.1165 F         1 UNK         0.0000 
     29 C29        -0.4572   49.3227   23.2259 C.ar      1 UNK         0.0000 
     30 C30        -0.2929   48.8068   24.5154 C.ar      1 UNK         0.0000 
     31 C31        -0.9728   47.6528   24.8818 C.ar      1 UNK         0.0000 
     32 C32        -1.7697   46.9896   23.9519 C.ar      1 UNK         0.0000 
     33 C33        -1.9037   47.4769   22.6530 C.ar      1 UNK         0.0000 
     34 C34        -1.2550   48.6535   22.2887 C.ar      1 UNK         0.0000 
     35 C35         1.8343   49.3414   21.6059 C.3       1 UNK         0.0000 
     36 H36         5.5099   56.5495   17.2426 H         1 UNK         0.0000 
     37 H37         7.0680   56.1839   17.9637 H         1 UNK         0.0000 
     38 H38         6.5056   55.2655   16.5787 H         1 UNK         0.0000 
     39 H39         3.4524   55.3035   18.8730 H         1 UNK         0.0000 
     40 H40         2.3984   53.5522   20.4362 H         1 UNK         0.0000 
     41 H41        -0.4263   53.6862   23.5513 H         1 UNK         0.0000 
     42 H42         3.8602   54.4690   23.1082 H         1 UNK         0.0000 
     43 H43         5.1567   55.0754   25.1000 H         1 UNK         0.0000 
     44 H44         2.3062   53.0084   27.5705 H         1 UNK         0.0000 
     45 H45         1.0299   52.3997   25.6058 H         1 UNK         0.0000 
     46 H46         0.3050   49.3268   25.2508 H         1 UNK         0.0000 
     47 H47        -0.8960   47.2963   25.8992 H         1 UNK         0.0000 
     48 H48        -2.2996   46.0981   24.2480 H         1 UNK         0.0000 
     49 H49        -2.5321   46.9631   21.9408 H         1 UNK         0.0000 
     50 H50        -1.3961   49.0607   21.2975 H         1 UNK         0.0000 
     51 H51         2.7030   49.4583   20.9613 H         1 UNK         0.0000 
     52 H52         2.1072   48.6151   22.3719 H         1 UNK         0.0000 
     53 H53         1.0654   48.9061   20.9695 H         1 UNK         0.0000 
@<TRIPOS>BOND
     1    1    2 1    
     2    1   36 1    
     3    1   37 1    
     4    1   38 1    
     5    2    6 1    
     6    2    3 2    
     7    3    4 1    
     8    3   39 1    
     9    4    5 2    
    10    4    7 1    
    11    5    6 1    
    12    7    8 am   BACKBONE|DICT|INTERRES
    13    7   40 1    
    14    8    9 2    
    15    8   10 1    
    16   10   16 1    
    17   10   11 2    
    18   11   12 1    
    19   11   35 1    
    20   12   13 1    
    21   12   29 1    
    22   13   14 2    
    23   13   15 1    
    24   15   16 1    
    25   15   41 1    
    26   16   17 1    
    27   16   18 1    
    28   18   23 ar   
    29   18   19 ar   
    30   19   20 ar   
    31   19   42 1    
    32   20   21 ar   
    33   20   43 1    
    34   21   22 ar   
    35   21   24 1    
    36   22   23 ar   
    37   22   44 1    
    38   23   45 1    
    39   24   25 1    
    40   25   26 1    
    41   25   27 1    
    42   25   28 1    
    43   29   34 ar   
    44   29   30 ar   
    45   30   31 ar   
    46   30   46 1    
    47   31   32 ar   
    48   31   47 1    
    49   32   33 ar   
    50   32   48 1    
    51   33   34 ar   
    52   33   49 1    
    53   34   50 1    
    54   35   51 1    
    55   35   52 1    
    56   35   53 1    
@<TRIPOS>SUBSTRUCTURE
     1 UNK         1 GROUP             0       ****    0 ROOT    
