@<TRIPOS>MOLECULE
ZINC38653685_775
51   54    1
SMALL
USER_CHARGES


@<TRIPOS>ATOM
      1 C1          1.1149   55.2949   16.8814 C.3       1 UNK         0.0000 
      2 O2          2.2717   54.5755   17.2817 O.3       1 UNK         0.0000 
      3 C3          2.2507   53.2234   17.3609 C.2       1 UNK         0.0000 
      4 O4          1.2842   52.5043   17.1080 O.2       1 UNK         0.0000 
      5 C5          3.5740   52.6146   17.8607 C.3       1 UNK         0.0000 
      6 H6          3.4954   51.5275   17.9473 H         1 UNK         0.0000 
      7 C7          4.1619   53.2706   19.0983 C.2       1 UNK         0.0000 
      8 C8          5.3471   53.8248   18.7834 C.2       1 UNK         0.0000 
      9 C9          6.2968   54.6159   19.5752 C.2       1 UNK         0.0000 
     10 C10         7.4499   55.0576   19.0370 C.2       1 UNK         0.0000 
     11 C11         7.7131   54.7272   17.6425 C.2       1 UNK         0.0000 
     12 C12         6.8353   54.0171   16.8857 C.2       1 UNK         0.0000 
     13 C13         5.6309   53.5673   17.4386 C.2       1 UNK         0.0000 
     14 N14         4.6461   52.8967   16.8754 N.pl3     1 UNK         0.0000 
     15 Br15        8.7308   56.0967   20.1029 Br        1 UNK         0.0000 
     16 N16         3.4353   53.2968   20.2503 N.am      1 UNK         0.0000 
     17 C17         3.8815   52.9370   21.4766 C.2       1 UNK         0.0000 
     18 O18         4.9297   52.2957   21.6118 O.2       1 UNK         0.0000 
     19 C19         3.0195   53.3089   22.7560 C.3       1 UNK         0.0000 
     20 C20         1.9898   52.1599   23.0332 C.ar      1 UNK         0.0000 
     21 C21         2.3022   50.8028   22.8196 C.ar      1 UNK         0.0000 
     22 C22         1.3691   49.8017   23.0678 C.ar      1 UNK         0.0000 
     23 C23         0.1095   50.1334   23.5529 C.ar      1 UNK         0.0000 
     24 C24        -0.2273   51.4628   23.7804 C.ar      1 UNK         0.0000 
     25 C25         0.7029   52.4643   23.5188 C.ar      1 UNK         0.0000 
     26 C26         3.8891   53.6967   23.9970 C.ar      1 UNK         0.0000 
     27 C27         5.2124   54.1704   23.8809 C.ar      1 UNK         0.0000 
     28 C28         5.9442   54.5569   25.0000 C.ar      1 UNK         0.0000 
     29 C29         5.3553   54.5083   26.2586 C.ar      1 UNK         0.0000 
     30 C30         4.0360   54.0921   26.3998 C.ar      1 UNK         0.0000 
     31 C31         3.3103   53.6967   25.2785 C.ar      1 UNK         0.0000 
     32 O32         2.3051   54.4967   22.4817 O.3       1 UNK         0.0000 
     33 H33         1.3298   56.3637   16.8696 H         1 UNK         0.0000 
     34 H34         0.7951   55.0017   15.8802 H         1 UNK         0.0000 
     35 H35         0.2892   55.1236   17.5738 H         1 UNK         0.0000 
     36 H36         6.1017   54.8570   20.6095 H         1 UNK         0.0000 
     37 H37         8.6405   55.0605   17.1986 H         1 UNK         0.0000 
     38 H38         7.0875   53.8036   15.8570 H         1 UNK         0.0000 
     39 H39         2.5378   53.7528   20.1583 H         1 UNK         0.0000 
     40 H40         3.2712   50.4966   22.4571 H         1 UNK         0.0000 
     41 H41         1.6309   48.7690   22.8941 H         1 UNK         0.0000 
     42 H42        -0.6083   49.3532   23.7611 H         1 UNK         0.0000 
     43 H43        -1.2046   51.7154   24.1652 H         1 UNK         0.0000 
     44 H44         0.4159   53.4866   23.7183 H         1 UNK         0.0000 
     45 H45         5.7004   54.2559   22.9232 H         1 UNK         0.0000 
     46 H46         6.9623   54.8994   24.8854 H         1 UNK         0.0000 
     47 H47         5.9189   54.8087   27.1302 H         1 UNK         0.0000 
     48 H48         3.5760   54.0702   27.3768 H         1 UNK         0.0000 
     49 H49         2.2873   53.3868   25.4222 H         1 UNK         0.0000 
     50 H50         1.9043   54.4837   21.6050 H         1 UNK         0.0000 
     51 H51         4.6285   52.5733   15.9118 H         1 UNK         0.0000 
@<TRIPOS>BOND
     1    1    2 1    
     2    1   33 1    
     3    1   34 1    
     4    1   35 1    
     5    2    3 1    
     6    3    4 2    
     7    3    5 1    
     8    5    6 1    
     9    5   14 1    
    10    5    7 1    
    11    7    8 2    
    12    7   16 1    
    13    8   13 1    
    14    8    9 1    
    15    9   10 2    
    16    9   36 1    
    17   10   11 1    
    18   10   15 1    
    19   11   12 2    
    20   11   37 1    
    21   12   13 1    
    22   12   38 1    
    23   13   14 2    
    24   14   51 1    
    25   16   17 am   BACKBONE|DICT|INTERRES
    26   16   39 1    
    27   17   18 2    
    28   17   19 1    
    29   19   20 1    
    30   19   26 1    
    31   19   32 1    
    32   20   25 ar   
    33   20   21 ar   
    34   21   22 ar   
    35   21   40 1    
    36   22   23 ar   
    37   22   41 1    
    38   23   24 ar   
    39   23   42 1    
    40   24   25 ar   
    41   24   43 1    
    42   25   44 1    
    43   26   31 ar   
    44   26   27 ar   
    45   27   28 ar   
    46   27   45 1    
    47   28   29 ar   
    48   28   46 1    
    49   29   30 ar   
    50   29   47 1    
    51   30   31 ar   
    52   30   48 1    
    53   31   49 1    
    54   32   50 1    
@<TRIPOS>SUBSTRUCTURE
     1 UNK         1 GROUP             0       ****    0 ROOT    
