@<TRIPOS>MOLECULE
ZINC14474960_2248
60   62    1
SMALL
USER_CHARGES


@<TRIPOS>ATOM
      1 C1          1.6853   52.7250   26.9402 C.3       1 UNK         0.0000 
      2 C2          0.7048   51.5382   26.8678 C.3       1 UNK         0.0000 
      3 C3         -0.5258   51.7683   27.7614 C.3       1 UNK         0.0000 
      4 C4          0.2952   51.1768   25.4366 C.ar      1 UNK         0.0000 
      5 C5          0.3043   49.8351   25.0383 C.ar      1 UNK         0.0000 
      6 C6         -0.0989   49.4831   23.7535 C.ar      1 UNK         0.0000 
      7 C7         -0.5405   50.4704   22.8679 C.ar      1 UNK         0.0000 
      8 C8         -0.5464   51.8093   23.2549 C.ar      1 UNK         0.0000 
      9 C9         -0.1256   52.1613   24.5342 C.ar      1 UNK         0.0000 
     10 S10        -1.1309   50.0136   21.2366 S.o2      1 UNK         0.0000 
     11 O11        -1.3549   48.5623   21.2620 O.2       1 UNK         0.0000 
     12 O12        -2.2171   50.9452   20.8976 O.2       1 UNK         0.0000 
     13 N13         0.2312   50.3157   20.1433 N.pl3     1 UNK         0.0000 
     14 C14         1.5006   49.5692   20.3331 C.3       1 UNK         0.0000 
     15 C15         2.6029   50.4947   20.8926 C.3       1 UNK         0.0000 
     16 C16         2.7820   51.7084   19.9348 C.3       1 UNK         0.0000 
     17 C17         1.4452   52.4964   19.8539 C.3       1 UNK         0.0000 
     18 C18         0.3144   51.5724   19.3564 C.3       1 UNK         0.0000 
     19 C19         3.9043   52.6338   20.4627 C.2       1 UNK         0.0000 
     20 O20         4.8536   52.8968   19.7278 O.2       1 UNK         0.0000 
     21 N21         3.7736   53.0997   21.7246 N.am      1 UNK         0.0000 
     22 C22         4.6783   53.8544   22.4921 C.ar      1 UNK         0.0000 
     23 C23         5.8198   54.4973   21.9846 C.ar      1 UNK         0.0000 
     24 C24         6.7042   55.1429   22.8457 C.ar      1 UNK         0.0000 
     25 C25         6.4612   55.1574   24.2168 C.ar      1 UNK         0.0000 
     26 C26         5.3158   54.5378   24.7362 C.ar      1 UNK         0.0000 
     27 C27         4.4147   53.9212   23.8634 C.ar      1 UNK         0.0000 
     28 N28         5.0105   54.4969   26.1049 N.am      1 UNK         0.0000 
     29 C29         5.8791   54.4821   27.1354 C.2       1 UNK         0.0000 
     30 O30         7.1042   54.4989   27.0213 O.2       1 UNK         0.0000 
     31 C31         5.2550   54.4234   28.5218 C.3       1 UNK         0.0000 
     32 H32         2.5393   52.5674   26.2820 H         1 UNK         0.0000 
     33 H33         2.0807   52.8436   27.9503 H         1 UNK         0.0000 
     34 H34         1.2127   53.6689   26.6631 H         1 UNK         0.0000 
     35 H35         1.2382   50.6803   27.2819 H         1 UNK         0.0000 
     36 H36        -1.1784   50.8958   27.7615 H         1 UNK         0.0000 
     37 H37        -0.2411   51.9569   28.7965 H         1 UNK         0.0000 
     38 H38        -1.1170   52.6162   27.4187 H         1 UNK         0.0000 
     39 H39         0.6190   49.0582   25.7221 H         1 UNK         0.0000 
     40 H40        -0.0894   48.4402   23.4635 H         1 UNK         0.0000 
     41 H41        -0.8932   52.5726   22.5741 H         1 UNK         0.0000 
     42 H42        -0.1540   53.2009   24.8280 H         1 UNK         0.0000 
     43 H43         1.3235   48.7378   21.0148 H         1 UNK         0.0000 
     44 H44         1.7841   49.1296   19.3772 H         1 UNK         0.0000 
     45 H45         2.2703   50.7869   21.8896 H         1 UNK         0.0000 
     46 H46         3.5043   49.8885   20.9458 H         1 UNK         0.0000 
     47 H47         3.1204   51.3597   18.9558 H         1 UNK         0.0000 
     48 H48         1.5153   53.2966   19.1183 H         1 UNK         0.0000 
     49 H49         1.1205   52.8735   20.8263 H         1 UNK         0.0000 
     50 H50         0.4425   51.3044   18.3061 H         1 UNK         0.0000 
     51 H51        -0.6403   52.0953   19.4196 H         1 UNK         0.0000 
     52 H52         2.9372   52.8171   22.2091 H         1 UNK         0.0000 
     53 H53         6.0500   54.5079   20.9321 H         1 UNK         0.0000 
     54 H54         7.5847   55.6331   22.4558 H         1 UNK         0.0000 
     55 H55         7.1611   55.6721   24.8561 H         1 UNK         0.0000 
     56 H56         3.5386   53.4306   24.2628 H         1 UNK         0.0000 
     57 H57         4.0377   54.3618   26.3304 H         1 UNK         0.0000 
     58 H58         4.7249   53.4819   28.6667 H         1 UNK         0.0000 
     59 H59         6.0299   54.5024   29.2814 H         1 UNK         0.0000 
     60 H60         4.5585   55.2504   28.6687 H         1 UNK         0.0000 
@<TRIPOS>BOND
     1    1    2 1    
     2    1   32 1    
     3    1   33 1    
     4    1   34 1    
     5    2    3 1    
     6    2    4 1    
     7    2   35 1    
     8    3   36 1    
     9    3   37 1    
    10    3   38 1    
    11    4    9 ar   
    12    4    5 ar   
    13    5    6 ar   
    14    5   39 1    
    15    6    7 ar   
    16    6   40 1    
    17    7    8 ar   
    18    7   10 1    
    19    8    9 ar   
    20    8   41 1    
    21    9   42 1    
    22   10   11 2    
    23   10   12 2    
    24   10   13 1    
    25   13   18 1    
    26   13   14 1    
    27   14   15 1    
    28   14   43 1    
    29   14   44 1    
    30   15   16 1    
    31   15   45 1    
    32   15   46 1    
    33   16   17 1    
    34   16   19 1    
    35   16   47 1    
    36   17   18 1    
    37   17   48 1    
    38   17   49 1    
    39   18   50 1    
    40   18   51 1    
    41   19   20 2    
    42   19   21 am   BACKBONE|DICT|INTERRES
    43   21   22 1    
    44   21   52 1    
    45   22   27 ar   
    46   22   23 ar   
    47   23   24 ar   
    48   23   53 1    
    49   24   25 ar   
    50   24   54 1    
    51   25   26 ar   
    52   25   55 1    
    53   26   27 ar   
    54   26   28 1    
    55   27   56 1    
    56   28   29 am   BACKBONE|DICT|INTERRES
    57   28   57 1    
    58   29   30 2    
    59   29   31 1    
    60   31   58 1    
    61   31   59 1    
    62   31   60 1    
@<TRIPOS>SUBSTRUCTURE
     1 UNK         1 GROUP             0       ****    0 ROOT    
