@<TRIPOS>MOLECULE
ZINC36899399_3878
27   29    1
SMALL
USER_CHARGES


@<TRIPOS>ATOM
      1 C1          1.1044   55.6786   30.4814 C.ar      1 UNK         0.0000 
      2 C2          0.3843   54.5523   30.8818 C.ar      1 UNK         0.0000 
      3 C3          0.6185   53.3218   30.2741 C.ar      1 UNK         0.0000 
      4 C4          1.5772   53.2053   29.2662 C.ar      1 UNK         0.0000 
      5 C5          2.3057   54.3352   28.8576 C.ar      1 UNK         0.0000 
      6 C6          2.0587   55.5724   29.4709 C.ar      1 UNK         0.0000 
      7 N7          3.3162   54.2664   27.8709 N.pl3     1 UNK         0.0000 
      8 C8          3.1582   54.0183   26.5173 C.ar      1 UNK         0.0000 
      9 C9          2.0583   53.6965   25.7144 C.ar      1 UNK         0.0000 
     10 C10         2.2870   53.6017   24.3389 C.ar      1 UNK         0.0000 
     11 C11         3.5488   53.8047   23.7820 C.ar      1 UNK         0.0000 
     12 C12         4.6506   54.0975   24.5827 C.ar      1 UNK         0.0000 
     13 C13         4.4538   54.2032   25.9653 C.ar      1 UNK         0.0000 
     14 N14         5.3686   54.4960   26.9350 N.2       1 UNK         0.0000 
     15 C15         4.6668   54.5369   28.0340 C.ar      1 UNK         0.0000 
     16 N16         5.2115   54.8860   29.2313 N.pl3     1 UNK         0.0000 
     17 F17         3.7079   53.7027   22.4446 F         1 UNK         0.0000 
     18 I18         1.9041   51.2969   28.4790 I         1 UNK         0.0000 
     19 H19         0.9306   56.6315   30.9568 H         1 UNK         0.0000 
     20 H20        -0.3401   54.6253   31.6780 H         1 UNK         0.0000 
     21 H21         0.0669   52.4505   30.6038 H         1 UNK         0.0000 
     22 H22         2.6107   56.4528   29.1727 H         1 UNK         0.0000 
     23 H23         1.0775   53.5403   26.1350 H         1 UNK         0.0000 
     24 H24         1.4660   53.3676   23.6768 H         1 UNK         0.0000 
     25 H25         5.6279   54.2438   24.1487 H         1 UNK         0.0000 
     26 H26         6.1589   55.2472   29.2812 H         1 UNK         0.0000 
     27 H27         4.6819   54.8612   30.0878 H         1 UNK         0.0000 
@<TRIPOS>BOND
     1    1    6 ar   
     2    1    2 ar   
     3    1   19 1    
     4    2    3 ar   
     5    2   20 1    
     6    3    4 ar   
     7    3   21 1    
     8    4    5 ar   
     9    4   18 1    
    10    5    6 ar   
    11    5    7 1    
    12    6   22 1    
    13    7   15 ar   
    14    7    8 ar   
    15    8   13 ar   
    16    8    9 ar   
    17    9   10 ar   
    18    9   23 1    
    19   10   11 ar   
    20   10   24 1    
    21   11   12 ar   
    22   11   17 1    
    23   12   13 ar   
    24   12   25 1    
    25   13   14 ar   
    26   14   15 ar   
    27   15   16 1    
    28   16   26 1    
    29   16   27 1    
@<TRIPOS>SUBSTRUCTURE
     1 UNK         1 GROUP             0       ****    0 ROOT    
