ZINC40312458_3028
                    3D
 Schrodinger Suite 2024-2.
 71 74  0  0  1  0            999 V2000
    6.1405   56.9832   15.1462 C   0  0  0  0  0  0
    6.6090   57.4860   16.5366 C   0  0  0  0  0  0
    8.1395   57.7149   16.4463 C   0  0  0  0  0  0
    5.9330   58.8532   16.8048 C   0  0  0  0  0  0
    6.2738   56.4198   17.6503 C   0  0  2  0  0  0
    6.7539   55.4956   17.3203 H   0  0  0  0  0  0
    4.7566   56.1463   17.8270 C   0  0  0  0  0  0
    4.4932   54.8685   18.6474 C   0  0  0  0  0  0
    5.3123   54.8959   19.9428 C   0  0  0  0  0  0
    6.3926   55.7814   20.0896 C   0  0  0  0  0  0
    7.1046   55.6968   21.6593 S   0  0  0  0  0  0
    5.9556   54.4966   22.1529 C   0  0  0  0  0  0
    5.0723   54.1320   21.1213 C   0  0  0  0  0  0
    3.9835   53.1856   21.3122 C   0  0  0  0  0  0
    3.4000   53.0970   22.3939 O   0  0  0  0  0  0
    3.6758   52.4406   20.2333 N   0  0  0  0  0  0
    2.6000   51.4530   20.0938 C   0  0  2  0  0  0
    2.9150   50.4661   20.4422 H   0  0  0  0  0  0
    2.2701   51.3332   18.5859 C   0  0  0  0  0  0
    0.9876   50.5128   18.3966 C   0  0  0  0  0  0
   -0.1086   51.0256   19.8217 S   0  0  0  0  0  0
   -0.5622   49.8214   20.5236 O   0  0  0  0  0  0
   -1.0716   52.0497   19.4008 O   0  0  0  0  0  0
    1.2703   51.8478   20.7791 C   0  0  0  0  0  0
    6.0032   53.9647   23.4208 N   0  0  0  0  0  0
    6.7493   54.4125   24.5890 C   0  0  0  0  0  0
    5.8486   54.9253   25.7294 C   0  0  1  0  0  0
    5.3218   55.8212   25.3966 H   0  0  0  0  0  0
    4.8357   53.8885   26.2609 C   0  0  0  0  0  0
    3.9470   54.5314   27.1777 O   0  0  0  0  0  0
    3.4863   53.8235   28.2663 C   0  0  0  0  0  0
    4.3044   52.9897   29.0404 C   0  0  0  0  0  0
    3.7804   52.3271   30.1474 C   0  0  0  0  0  0
    2.4389   52.4973   30.4831 C   0  0  0  0  0  0
    1.6226   53.3387   29.7305 C   0  0  0  0  0  0
    2.1519   54.0084   28.6299 C   0  0  0  0  0  0
    6.7043   55.2949   26.7915 O   0  0  0  0  0  0
    6.8667   56.7850   19.0444 C   0  0  0  0  0  0
    5.0539   56.9651   15.0551 H   0  0  0  0  0  0
    6.5005   57.6286   14.3435 H   0  0  0  0  0  0
    6.5065   55.9766   14.9372 H   0  0  0  0  0  0
    8.5358   58.2042   17.3361 H   0  0  0  0  0  0
    8.6783   56.7746   16.3191 H   0  0  0  0  0  0
    8.4035   58.3545   15.6032 H   0  0  0  0  0  0
    6.2548   59.2964   17.7471 H   0  0  0  0  0  0
    6.1731   59.5787   16.0260 H   0  0  0  0  0  0
    4.8459   58.7798   16.8345 H   0  0  0  0  0  0
    4.2424   57.0177   18.2329 H   0  0  0  0  0  0
    4.2867   55.9865   16.8580 H   0  0  0  0  0  0
    4.7604   53.9898   18.0591 H   0  0  0  0  0  0
    3.4257   54.7873   18.8495 H   0  0  0  0  0  0
    4.3313   52.4548   19.4646 H   0  0  0  0  0  0
    3.1040   50.8962   18.0350 H   0  0  0  0  0  0
    2.1398   52.3278   18.1531 H   0  0  0  0  0  0
    1.2436   49.4641   18.5481 H   0  0  0  0  0  0
    0.4630   50.5943   17.4455 H   0  0  0  0  0  0
    1.1180   52.8976   20.5375 H   0  0  0  0  0  0
    1.1720   51.7687   21.8602 H   0  0  0  0  0  0
    5.3162   53.2586   23.6522 H   0  0  0  0  0  0
    7.3625   53.5789   24.9306 H   0  0  0  0  0  0
    7.4508   55.1972   24.3050 H   0  0  0  0  0  0
    4.2247   53.5053   25.4430 H   0  0  0  0  0  0
    5.3636   53.0223   26.6603 H   0  0  0  0  0  0
    5.3510   52.8659   28.8075 H   0  0  0  0  0  0
    4.4185   51.6961   30.7482 H   0  0  0  0  0  0
    2.0278   51.9918   31.3458 H   0  0  0  0  0  0
    0.5853   53.4729   30.0018 H   0  0  0  0  0  0
    1.5233   54.6655   28.0467 H   0  0  0  0  0  0
    6.1655   55.4613   27.5727 H   0  0  0  0  0  0
    6.5383   57.7796   19.3443 H   0  0  0  0  0  0
    7.9565   56.7935   19.0133 H   0  0  0  0  0  0
  1  2  1  0  0  0
  1 39  1  0  0  0
  1 40  1  0  0  0
  1 41  1  0  0  0
  2  3  1  0  0  0
  2  4  1  0  0  0
  2  5  1  0  0  0
  3 42  1  0  0  0
  3 43  1  0  0  0
  3 44  1  0  0  0
  4 45  1  0  0  0
  4 46  1  0  0  0
  4 47  1  0  0  0
  5  6  1  0  0  0
  5 38  1  0  0  0
  5  7  1  0  0  0
  7  8  1  0  0  0
  7 48  1  0  0  0
  7 49  1  0  0  0
  8  9  1  0  0  0
  8 50  1  0  0  0
  8 51  1  0  0  0
  9 13  1  0  0  0
  9 10  2  0  0  0
 10 11  1  0  0  0
 10 38  1  0  0  0
 11 12  1  0  0  0
 12 13  2  0  0  0
 12 25  1  0  0  0
 13 14  1  0  0  0
 14 15  2  0  0  0
 14 16  1  0  0  0
 16 17  1  0  0  0
 16 52  1  0  0  0
 17 18  1  0  0  0
 17 24  1  0  0  0
 17 19  1  0  0  0
 19 20  1  0  0  0
 19 53  1  0  0  0
 19 54  1  0  0  0
 20 21  1  0  0  0
 20 55  1  0  0  0
 20 56  1  0  0  0
 21 22  2  0  0  0
 21 23  2  0  0  0
 21 24  1  0  0  0
 24 57  1  0  0  0
 24 58  1  0  0  0
 25 26  1  0  0  0
 25 59  1  0  0  0
 26 27  1  0  0  0
 26 60  1  0  0  0
 26 61  1  0  0  0
 27 28  1  0  0  0
 27 29  1  0  0  0
 27 37  1  0  0  0
 29 30  1  0  0  0
 29 62  1  0  0  0
 29 63  1  0  0  0
 30 31  1  0  0  0
 31 36  2  0  0  0
 31 32  1  0  0  0
 32 33  2  0  0  0
 32 64  1  0  0  0
 33 34  1  0  0  0
 33 65  1  0  0  0
 34 35  2  0  0  0
 34 66  1  0  0  0
 35 36  1  0  0  0
 35 67  1  0  0  0
 36 68  1  0  0  0
 37 69  1  0  0  0
 38 70  1  0  0  0
 38 71  1  0  0  0
M  END
> <i_i_glide_confnum>
173

> <i_i_glide_lignum>
3029

> <i_i_glide_posenum>
189

> <i_i_glide_rotatable_bonds>
11

> <i_m_Source_File_Index>
459

> <b_m_subgroup_collapsed>
0

> <r_i_docking_score>
-5.36763

> <r_i_glide_ecoul>
-7.40094

> <r_i_glide_eff_state_penalty>
0

> <r_i_glide_einternal>
28.331

> <r_i_glide_emodel>
-58.2588

> <r_i_glide_energy>
-54.9589

> <r_i_glide_erotb>
0.606425

> <r_i_glide_esite>
-0.0449086

> <r_i_glide_evdw>
-47.558

> <r_i_glide_gscore>
-5.36763

> <r_i_glide_hbond>
0

> <r_i_glide_ligand_efficiency>
-0.153361

> <r_i_glide_ligand_efficiency_ln>
-1.17831

> <r_i_glide_ligand_efficiency_sa>
-0.501654

> <r_i_glide_lipo>
-2.72915

> <r_i_glide_metal>
0

> <r_i_glide_rewards>
0.288042

> <s_i_glide_gridfile>
wee1_glide-grid

> <s_m_Source_File>
wee1_decoys_glide_SP.sdf

> <s_m_Source_Path>
/Users/zhangxujun/Desktop

> <s_m_entry_id>
734

> <s_m_entry_name>
wee1_decoys_glide_SP.459

> <s_m_subgroup_title>
wee1_decoys_glide_SP

> <s_m_subgroupid>
wee1_decoys_glide_SP


$$$$
