ZINC39684223_4999
                    3D
 Schrodinger Suite 2024-2.
 73 78  0  0  1  0            999 V2000
    1.6213   45.6062   16.2985 C   0  0  0  0  0  0
    0.9209   46.1002   17.5535 C   0  0  0  0  0  0
   -0.1817   45.3935   18.0459 C   0  0  0  0  0  0
   -0.8818   45.7948   19.1791 C   0  0  0  0  0  0
   -0.5186   46.9407   19.8837 C   0  0  0  0  0  0
    0.5789   47.6940   19.4405 C   0  0  0  0  0  0
    1.2074   48.9082   19.9068 C   0  0  0  0  0  0
    2.2616   49.1174   19.0430 C   0  0  0  0  0  0
    2.3015   48.1476   18.0830 N   0  0  0  0  0  0
    1.2834   47.2460   18.2768 C   0  0  0  0  0  0
    0.8135   49.7397   21.1105 C   0  0  0  0  0  0
    1.2024   51.2342   20.9956 C   0  0  0  0  0  0
    1.0652   51.9283   22.2723 N   0  0  0  0  0  0
   -0.0937   52.3265   22.8291 C   0  0  0  0  0  0
   -1.1628   52.2866   22.2207 O   0  0  0  0  0  0
   -0.1081   52.7808   24.3160 C   0  0  2  0  0  0
   -0.7011   53.6962   24.3832 H   0  0  0  0  0  0
    1.3077   53.1501   24.8000 C   0  0  0  0  0  0
    1.2988   52.8654   26.2377 N   0  0  0  0  0  0
    0.0758   52.1570   26.6318 C   0  0  0  0  0  0
   -0.5845   51.6885   25.3072 C   0  0  0  0  0  0
   -2.1294   51.6108   25.3685 C   0  0  0  0  0  0
   -2.6013   50.6182   26.4438 C   0  0  0  0  0  0
   -2.0448   49.2260   26.0806 N   0  3  0  0  0  0
   -0.5138   49.1721   25.8958 C   0  0  0  0  0  0
   -0.1043   50.2546   24.8945 C   0  0  0  0  0  0
    2.2673   53.1915   27.1458 C   0  0  0  0  0  0
    2.1208   52.9895   28.3535 O   0  0  0  0  0  0
    3.5363   53.7301   26.6769 C   0  0  0  0  0  0
    4.6722   54.1343   27.3679 C   0  0  0  0  0  0
    5.6288   54.4986   26.4120 C   0  0  0  0  0  0
    5.0492   54.3095   25.1631 C   0  0  0  0  0  0
    3.7928   53.8436   25.3482 O   0  0  0  0  0  0
    5.4776   54.4940   23.7444 C   0  0  0  0  0  0
    6.7044   55.0904   23.4547 C   0  0  0  0  0  0
    7.0913   55.2967   22.1315 C   0  0  0  0  0  0
    6.2474   54.9041   21.0955 C   0  0  0  0  0  0
    5.0254   54.2996   21.3697 C   0  0  0  0  0  0
    4.6416   54.0962   22.6923 C   0  0  0  0  0  0
    6.6201   55.1184   19.8134 F   0  0  0  0  0  0
    1.4983   46.3343   15.4963 H   0  0  0  0  0  0
    2.6897   45.4845   16.4813 H   0  0  0  0  0  0
    1.2258   44.6513   15.9520 H   0  0  0  0  0  0
   -0.5155   44.5073   17.5270 H   0  0  0  0  0  0
   -1.7308   45.2156   19.5098 H   0  0  0  0  0  0
   -1.0777   47.2469   20.7538 H   0  0  0  0  0  0
    3.0080   49.9008   19.0062 H   0  0  0  0  0  0
    2.9971   48.1938   17.3367 H   0  0  0  0  0  0
   -0.2651   49.6788   21.2632 H   0  0  0  0  0  0
    1.2706   49.3097   22.0035 H   0  0  0  0  0  0
    2.2504   51.3249   20.7100 H   0  0  0  0  0  0
    0.6335   51.7309   20.2071 H   0  0  0  0  0  0
    1.9103   52.0245   22.8100 H   0  0  0  0  0  0
    2.0592   52.4677   24.4043 H   0  0  0  0  0  0
    1.5321   54.1927   24.5692 H   0  0  0  0  0  0
   -0.5802   52.8976   27.0952 H   0  0  0  0  0  0
    0.2090   51.3552   27.3588 H   0  0  0  0  0  0
   -2.5281   52.5945   25.6221 H   0  0  0  0  0  0
   -2.5557   51.3699   24.3915 H   0  0  0  0  0  0
   -2.2318   50.8459   27.4475 H   0  0  0  0  0  0
   -3.6886   50.5151   26.4789 H   0  0  0  0  0  0
   -2.2257   48.6014   26.8628 H   0  0  0  0  0  0
   -0.0761   49.2996   26.8818 H   0  0  0  0  0  0
   -0.2786   48.1615   25.5544 H   0  0  0  0  0  0
   -0.4844   49.9663   23.9128 H   0  0  0  0  0  0
    0.9822   50.2337   24.8030 H   0  0  0  0  0  0
    4.7955   54.1501   28.4423 H   0  0  0  0  0  0
    6.6257   54.8569   26.6137 H   0  0  0  0  0  0
    7.3696   55.4002   24.2478 H   0  0  0  0  0  0
    8.0443   55.7553   21.9104 H   0  0  0  0  0  0
    4.3778   54.0007   20.5597 H   0  0  0  0  0  0
    3.6845   53.6360   22.8877 H   0  0  0  0  0  0
   -2.5125   48.8558   25.2635 H   0  0  0  0  0  0
  1 41  1  0  0  0
  1 42  1  0  0  0
  1 43  1  0  0  0
  1  2  1  0  0  0
  2 10  2  0  0  0
  2  3  1  0  0  0
  3 44  1  0  0  0
  3  4  2  0  0  0
  4 45  1  0  0  0
  4  5  1  0  0  0
  5 46  1  0  0  0
  5  6  2  0  0  0
  6 10  1  0  0  0
  6  7  1  0  0  0
  7 11  1  0  0  0
  7  8  2  0  0  0
  8  9  1  0  0  0
  8 47  1  0  0  0
  9 48  1  0  0  0
  9 10  1  0  0  0
 11 12  1  0  0  0
 11 49  1  0  0  0
 11 50  1  0  0  0
 12 13  1  0  0  0
 12 51  1  0  0  0
 12 52  1  0  0  0
 13 14  1  0  0  0
 13 53  1  0  0  0
 14 15  2  0  0  0
 14 16  1  0  0  0
 16 17  1  0  0  0
 16 21  1  0  0  0
 16 18  1  0  0  0
 18 19  1  0  0  0
 18 54  1  0  0  0
 18 55  1  0  0  0
 19 20  1  0  0  0
 19 27  1  0  0  0
 20 21  1  0  0  0
 20 56  1  0  0  0
 20 57  1  0  0  0
 21 26  1  0  0  0
 21 22  1  0  0  0
 22 23  1  0  0  0
 22 58  1  0  0  0
 22 59  1  0  0  0
 23 24  1  0  0  0
 23 60  1  0  0  0
 23 61  1  0  0  0
 24 25  1  0  0  0
 24 62  1  0  0  0
 24 73  1  0  0  0
 25 26  1  0  0  0
 25 63  1  0  0  0
 25 64  1  0  0  0
 26 65  1  0  0  0
 26 66  1  0  0  0
 27 28  2  0  0  0
 27 29  1  0  0  0
 29 33  1  0  0  0
 29 30  2  0  0  0
 30 31  1  0  0  0
 30 67  1  0  0  0
 31 32  2  0  0  0
 31 68  1  0  0  0
 32 33  1  0  0  0
 32 34  1  0  0  0
 34 39  2  0  0  0
 34 35  1  0  0  0
 35 36  2  0  0  0
 35 69  1  0  0  0
 36 37  1  0  0  0
 36 70  1  0  0  0
 37 38  2  0  0  0
 37 40  1  0  0  0
 38 39  1  0  0  0
 38 71  1  0  0  0
 39 72  1  0  0  0
M  CHG  1  24   1
M  END
> <i_i_glide_confnum>
50

> <i_i_glide_lignum>
5000

> <i_i_glide_posenum>
374

> <i_i_glide_rotatable_bonds>
8

> <i_m_Source_File_Index>
5618

> <b_m_subgroup_collapsed>
0

> <r_i_docking_score>
-6.68251

> <r_i_glide_ecoul>
-11.0624

> <r_i_glide_eff_state_penalty>
0

> <r_i_glide_einternal>
5.82963

> <r_i_glide_emodel>
-73.5372

> <r_i_glide_energy>
-50.5504

> <r_i_glide_erotb>
0.587767

> <r_i_glide_esite>
-0.2

> <r_i_glide_evdw>
-39.4881

> <r_i_glide_gscore>
-6.68251

> <r_i_glide_hbond>
-0.281928

> <r_i_glide_ligand_efficiency>
-0.171346

> <r_i_glide_ligand_efficiency_ln>
-1.43292

> <r_i_glide_ligand_efficiency_sa>
-0.581072

> <r_i_glide_lipo>
-2.37796

> <r_i_glide_metal>
0

> <r_i_glide_rewards>
-0.776631

> <s_i_glide_gridfile>
wee1_glide-grid

> <s_m_Source_File>
wee1_decoys_glide_SP.sdf

> <s_m_Source_Path>
/Users/zhangxujun/Desktop

> <s_m_entry_id>
5893

> <s_m_entry_name>
wee1_decoys_glide_SP.5618

> <s_m_subgroup_title>
wee1_decoys_glide_SP

> <s_m_subgroupid>
wee1_decoys_glide_SP


$$$$
