@<TRIPOS>MOLECULE
ZINC00293613_1826
35   38    1
SMALL
USER_CHARGES


@<TRIPOS>ATOM
      1 C1          1.5048   52.8351   26.1830 C.ar      1 UNK         0.0000 
      2 C2          0.3553   52.3038   25.5739 C.ar      1 UNK         0.0000 
      3 C3          0.2285   52.4224   24.1724 C.ar      1 UNK         0.0000 
      4 N4          1.1718   52.9963   23.3738 N.ar      1 UNK         0.0000 
      5 C5          2.2738   53.4385   23.9724 C.ar      1 UNK         0.0000 
      6 C6          2.5031   53.3937   25.3638 C.ar      1 UNK         0.0000 
      7 C7          3.7583   53.9052   25.7341 C.ar      1 UNK         0.0000 
      8 C8          4.5561   54.3251   24.6428 C.ar      1 UNK         0.0000 
      9 S9          3.6703   54.0962   23.1363 S.3       1 UNK         0.0000 
     10 C10         5.8489   54.7928   24.9191 C.ar      1 UNK         0.0000 
     11 N11         6.3027   54.8539   26.1950 N.ar      1 UNK         0.0000 
     12 C12         5.4512   54.4294   27.1652 C.ar      1 UNK         0.0000 
     13 N13         4.1895   53.9499   27.0024 N.ar      1 UNK         0.0000 
     14 N14         5.9034   54.4969   28.4749 N.pl3     1 UNK         0.0000 
     15 N15         6.7043   55.1714   23.8912 N.pl3     1 UNK         0.0000 
     16 C16        -0.9677   51.8497   23.4167 C.3       1 UNK         0.0000 
     17 C17        -2.3256   52.4818   23.7606 C.3       1 UNK         0.0000 
     18 C18        -2.9471   51.9540   25.0622 C.3       1 UNK         0.0000 
     19 C19        -2.1446   52.2403   26.3421 C.3       1 UNK         0.0000 
     20 C20        -0.7306   51.6286   26.4168 C.3       1 UNK         0.0000 
     21 H21         1.6421   52.7687   27.2517 H         1 UNK         0.0000 
     22 H22         6.7465   55.0213   28.6913 H         1 UNK         0.0000 
     23 H23         5.2653   54.2267   29.2042 H         1 UNK         0.0000 
     24 H24         6.3882   55.0334   22.9445 H         1 UNK         0.0000 
     25 H25         7.6893   55.3063   24.0819 H         1 UNK         0.0000 
     26 H26        -0.8050   51.9664   22.3433 H         1 UNK         0.0000 
     27 H27        -0.9993   50.7712   23.5771 H         1 UNK         0.0000 
     28 H28        -3.0211   52.2662   22.9479 H         1 UNK         0.0000 
     29 H29        -2.2371   53.5698   23.7903 H         1 UNK         0.0000 
     30 H30        -3.1086   50.8775   24.9757 H         1 UNK         0.0000 
     31 H31        -3.9422   52.3891   25.1731 H         1 UNK         0.0000 
     32 H32        -2.7223   51.8572   27.1850 H         1 UNK         0.0000 
     33 H33        -2.0852   53.3158   26.5003 H         1 UNK         0.0000 
     34 H34        -0.7550   50.5628   26.1805 H         1 UNK         0.0000 
     35 H35        -0.4164   51.6607   27.4616 H         1 UNK         0.0000 
@<TRIPOS>BOND
     1    1    6 ar   
     2    1    2 ar   
     3    1   21 1    
     4    2   20 1    
     5    2    3 ar   
     6    3    4 ar   
     7    3   16 1    
     8    4    5 ar   
     9    5    9 1    
    10    5    6 ar   
    11    6    7 1    
    12    7   13 ar   
    13    7    8 ar   
    14    8    9 1    
    15    8   10 ar   
    16   10   11 ar   
    17   10   15 1    
    18   11   12 ar   
    19   12   13 ar   
    20   12   14 1    
    21   14   22 1    
    22   14   23 1    
    23   15   24 1    
    24   15   25 1    
    25   16   17 1    
    26   16   26 1    
    27   16   27 1    
    28   17   18 1    
    29   17   28 1    
    30   17   29 1    
    31   18   19 1    
    32   18   30 1    
    33   18   31 1    
    34   19   20 1    
    35   19   32 1    
    36   19   33 1    
    37   20   34 1    
    38   20   35 1    
@<TRIPOS>SUBSTRUCTURE
     1 UNK         1 GROUP             0       ****    0 ROOT    
