@<TRIPOS>MOLECULE
ZINC25392216_1225
62   65    1
SMALL
USER_CHARGES


@<TRIPOS>ATOM
      1 C1          1.2377   45.2872   16.2053 C.3       1 UNK         0.0000 
      2 O2          0.2032   45.9592   16.9157 O.3       1 UNK         0.0000 
      3 C3          0.5312   47.0166   17.7416 C.ar      1 UNK         0.0000 
      4 C4         -0.5353   47.7356   18.2820 C.ar      1 UNK         0.0000 
      5 C5         -0.3058   48.8413   19.0968 C.ar      1 UNK         0.0000 
      6 C6          1.0077   49.2291   19.3837 C.ar      1 UNK         0.0000 
      7 C7          2.0794   48.4927   18.8817 C.ar      1 UNK         0.0000 
      8 C8          1.8444   47.3993   18.0536 C.ar      1 UNK         0.0000 
      9 N9          1.3149   50.3324   20.1895 N.am      1 UNK         0.0000 
     10 C10         0.7050   51.5429   20.2024 C.2       1 UNK         0.0000 
     11 O11        -0.2669   51.8224   19.5014 O.2       1 UNK         0.0000 
     12 N12         1.2077   52.4966   21.0226 N.am      1 UNK         0.0000 
     13 C13         2.1078   52.4012   22.0286 C.2       1 UNK         0.0000 
     14 O14         2.7044   51.3700   22.3457 O.2       1 UNK         0.0000 
     15 C15         2.3536   53.6906   22.8295 C.3       1 UNK         0.0000 
     16 N16         2.6701   53.3275   24.3136 N.4       1 UNK         0.0000 
     17 C17         3.7437   54.2843   24.8768 C.3       1 UNK         0.0000 
     18 C18         4.2228   53.7523   26.2386 C.3       1 UNK         0.0000 
     19 C19         3.0992   53.2970   27.1649 C.ar      1 UNK         0.0000 
     20 C20         3.3971   53.0142   28.5020 C.ar      1 UNK         0.0000 
     21 C21         2.4371   52.4954   29.3811 C.ar      1 UNK         0.0000 
     22 C22         1.1317   52.3096   28.9252 C.ar      1 UNK         0.0000 
     23 C23         0.8233   52.6208   27.5960 C.ar      1 UNK         0.0000 
     24 C24         1.7896   53.0777   26.6859 C.ar      1 UNK         0.0000 
     25 C25         1.4038   53.3615   25.2174 C.3       1 UNK         0.0000 
     26 H26         1.1044   54.4067   25.1537 H         1 UNK         0.0000 
     27 C27         0.2844   52.4846   24.6564 C.2       1 UNK         0.0000 
     28 C28        -0.8796   52.8766   23.9913 C.2       1 UNK         0.0000 
     29 C29        -1.7072   51.8227   23.5954 C.2       1 UNK         0.0000 
     30 C30        -1.2009   50.5898   23.9613 C.2       1 UNK         0.0000 
     31 S31         0.3043   50.7397   24.7964 S.3       1 UNK         0.0000 
     32 O32         0.2208   51.8089   29.8354 O.3       1 UNK         0.0000 
     33 C33        -1.0959   51.4657   29.4275 C.3       1 UNK         0.0000 
     34 O34         2.7008   52.1198   30.6869 O.3       1 UNK         0.0000 
     35 C35         4.0164   52.2351   31.2003 C.3       1 UNK         0.0000 
     36 H36         0.7931   44.5525   15.5339 H         1 UNK         0.0000 
     37 H37         1.9036   44.7521   16.8815 H         1 UNK         0.0000 
     38 H38         1.8239   45.9770   15.5955 H         1 UNK         0.0000 
     39 H39        -1.5484   47.4437   18.0498 H         1 UNK         0.0000 
     40 H40        -1.1460   49.3902   19.4956 H         1 UNK         0.0000 
     41 H41         3.1010   48.7849   19.0878 H         1 UNK         0.0000 
     42 H42         2.6992   46.8792   17.6501 H         1 UNK         0.0000 
     43 H43         2.1735   50.2635   20.7190 H         1 UNK         0.0000 
     44 H44         0.8310   53.4199   20.8626 H         1 UNK         0.0000 
     45 H45         3.2398   54.1688   22.4100 H         1 UNK         0.0000 
     46 H46         1.5332   54.4107   22.8114 H         1 UNK         0.0000 
     47 H47         4.5831   54.2950   24.1789 H         1 UNK         0.0000 
     48 H48         3.3093   55.2840   24.9271 H         1 UNK         0.0000 
     49 H49         4.8890   52.9023   26.0822 H         1 UNK         0.0000 
     50 H50         4.8340   54.5104   26.7311 H         1 UNK         0.0000 
     51 H51         4.4127   53.1641   28.8354 H         1 UNK         0.0000 
     52 H52        -0.1885   52.4870   27.2462 H         1 UNK         0.0000 
     53 H53        -1.1220   53.9102   23.7953 H         1 UNK         0.0000 
     54 H54        -2.6410   51.9552   23.0684 H         1 UNK         0.0000 
     55 H55        -1.6314   49.6135   23.7933 H         1 UNK         0.0000 
     56 H56        -1.5774   50.8969   30.2229 H         1 UNK         0.0000 
     57 H57        -1.6930   52.3572   29.2721 H         1 UNK         0.0000 
     58 H58        -1.1130   50.8606   28.5212 H         1 UNK         0.0000 
     59 H59         4.0495   51.8098   32.2017 H         1 UNK         0.0000 
     60 H60         4.7421   51.6967   30.5906 H         1 UNK         0.0000 
     61 H61         4.3043   53.2832   31.2716 H         1 UNK         0.0000 
     62 H62         3.0519   52.3894   24.3039 H         1 UNK         0.0000 
@<TRIPOS>BOND
     1    1    2 1    
     2    1   36 1    
     3    1   37 1    
     4    1   38 1    
     5    2    3 1    
     6    3    8 ar   
     7    3    4 ar   
     8    4    5 ar   
     9    4   39 1    
    10    5    6 ar   
    11    5   40 1    
    12    6    7 ar   
    13    6    9 1    
    14    7    8 ar   
    15    7   41 1    
    16    8   42 1    
    17    9   10 am   BACKBONE|DICT|INTERRES
    18    9   43 1    
    19   10   11 2    
    20   10   12 am   BACKBONE|DICT|INTERRES
    21   12   13 am   BACKBONE|DICT|INTERRES
    22   12   44 1    
    23   13   14 2    
    24   13   15 1    
    25   15   16 1    
    26   15   45 1    
    27   15   46 1    
    28   16   25 1    
    29   16   17 1    
    30   16   62 1    
    31   17   18 1    
    32   17   47 1    
    33   17   48 1    
    34   18   19 1    
    35   18   49 1    
    36   18   50 1    
    37   19   24 ar   
    38   19   20 ar   
    39   20   21 ar   
    40   20   51 1    
    41   21   22 ar   
    42   21   34 1    
    43   22   23 ar   
    44   22   32 1    
    45   23   24 ar   
    46   23   52 1    
    47   24   25 1    
    48   25   26 1    
    49   25   27 1    
    50   27   31 1    
    51   27   28 2    
    52   28   29 1    
    53   28   53 1    
    54   29   30 2    
    55   29   54 1    
    56   30   31 1    
    57   30   55 1    
    58   32   33 1    
    59   33   56 1    
    60   33   57 1    
    61   33   58 1    
    62   34   35 1    
    63   35   59 1    
    64   35   60 1    
    65   35   61 1    
@<TRIPOS>SUBSTRUCTURE
     1 UNK         1 GROUP             0       ****    0 ROOT    
