@<TRIPOS>MOLECULE
ZINC29394708_5089
71   74    1
SMALL
USER_CHARGES


@<TRIPOS>ATOM
      1 C1         -6.1812   45.7921   27.5079 C.3       1 UNK         0.0000 
      2 C2         -5.2601   46.9617   27.9337 C.3       1 UNK         0.0000 
      3 C3         -6.1320   48.1733   28.3120 C.3       1 UNK         0.0000 
      4 C4         -4.3785   46.5684   29.1378 C.3       1 UNK         0.0000 
      5 O5         -4.4199   47.4535   26.8779 O.3       1 UNK         0.0000 
      6 C6         -3.5728   46.7083   26.1280 C.2       1 UNK         0.0000 
      7 O7         -3.6839   45.5037   25.8846 O.2       1 UNK         0.0000 
      8 N8         -2.5625   47.5376   25.6751 N.am      1 UNK         0.0000 
      9 C9         -1.4369   47.0691   24.8633 C.3       1 UNK         0.0000 
     10 H10        -1.1293   46.0958   25.2467 H         1 UNK         0.0000 
     11 C11        -1.7930   46.9789   23.3695 C.3       1 UNK         0.0000 
     12 C12        -1.2478   48.2404   22.6833 C.3       1 UNK         0.0000 
     13 N13        -0.5599   49.0377   23.8060 N.4       1 UNK         0.0000 
     14 C14        -0.2616   48.0424   24.9404 C.3       1 UNK         0.0000 
     15 C15         0.6493   49.9047   23.3780 C.3       1 UNK         0.0000 
     16 C16         0.4499   51.3000   23.9709 C.2       1 UNK         0.0000 
     17 O17        -0.6753   51.6757   24.3113 O.2       1 UNK         0.0000 
     18 N18         1.5425   52.0725   24.0747 N.am      1 UNK         0.0000 
     19 C19         1.5394   53.4374   24.6105 C.3       1 UNK         0.0000 
     20 H20         0.5157   53.8122   24.5176 H         1 UNK         0.0000 
     21 C21         2.3516   54.4257   23.7569 C.3       1 UNK         0.0000 
     22 C22         3.8523   54.1454   23.8436 C.3       1 UNK         0.0000 
     23 C23         4.3364   54.0969   25.2904 C.ar      1 UNK         0.0000 
     24 C24         5.6811   54.3778   25.5650 C.ar      1 UNK         0.0000 
     25 C25         6.2018   54.2326   26.8451 C.ar      1 UNK         0.0000 
     26 C26         5.3835   53.8018   27.8763 C.ar      1 UNK         0.0000 
     27 C27         4.0412   53.5406   27.6249 C.ar      1 UNK         0.0000 
     28 C28         3.4737   53.7051   26.3483 C.ar      1 UNK         0.0000 
     29 C29         1.9475   53.5453   26.1143 C.3       1 UNK         0.0000 
     30 H30         1.5380   54.4967   26.3776 H         1 UNK         0.0000 
     31 C31         1.1984   52.5742   27.0760 C.3       1 UNK         0.0000 
     32 C32         0.8975   53.0426   28.5073 C.ar      1 UNK         0.0000 
     33 C33         1.0708   54.3601   28.9725 C.ar      1 UNK         0.0000 
     34 C34         0.7624   54.6791   30.2972 C.ar      1 UNK         0.0000 
     35 C35         0.3039   53.6647   31.1349 C.ar      1 UNK         0.0000 
     36 N36         0.1177   52.3937   30.7083 N.ar      1 UNK         0.0000 
     37 C37         0.4033   52.1025   29.4159 C.ar      1 UNK         0.0000 
     38 F38         7.5035   54.4945   27.0841 F         1 UNK         0.0000 
     39 H39        -6.9447   45.5911   28.2600 H         1 UNK         0.0000 
     40 H40        -5.6272   44.8650   27.3586 H         1 UNK         0.0000 
     41 H41        -6.6980   46.0196   26.5740 H         1 UNK         0.0000 
     42 H42        -5.5176   49.0244   28.6109 H         1 UNK         0.0000 
     43 H43        -6.7453   48.4992   27.4716 H         1 UNK         0.0000 
     44 H44        -6.8018   47.9459   29.1422 H         1 UNK         0.0000 
     45 H45        -3.6964   47.3796   29.3946 H         1 UNK         0.0000 
     46 H46        -4.9776   46.3728   30.0257 H         1 UNK         0.0000 
     47 H47        -3.7633   45.6932   28.9253 H         1 UNK         0.0000 
     48 H48        -2.5502   48.4822   26.0340 H         1 UNK         0.0000 
     49 H49        -1.2953   46.1179   22.9232 H         1 UNK         0.0000 
     50 H50        -2.8596   46.8298   23.1961 H         1 UNK         0.0000 
     51 H51        -0.4935   48.0169   21.9288 H         1 UNK         0.0000 
     52 H52        -2.0208   48.8894   22.2678 H         1 UNK         0.0000 
     53 H53        -0.1564   48.5919   25.8809 H         1 UNK         0.0000 
     54 H54         0.6960   47.5714   24.7111 H         1 UNK         0.0000 
     55 H55         1.5751   49.4189   23.6947 H         1 UNK         0.0000 
     56 H56         0.6241   49.9865   22.2898 H         1 UNK         0.0000 
     57 H57         2.4302   51.7237   23.7470 H         1 UNK         0.0000 
     58 H58         2.0223   54.3870   22.7158 H         1 UNK         0.0000 
     59 H59         2.1536   55.4435   24.0814 H         1 UNK         0.0000 
     60 H60         4.0731   53.1927   23.3630 H         1 UNK         0.0000 
     61 H61         4.4036   54.8958   23.2776 H         1 UNK         0.0000 
     62 H62         6.3425   54.6789   24.7666 H         1 UNK         0.0000 
     63 H63         5.7883   53.6797   28.8696 H         1 UNK         0.0000 
     64 H64         3.4436   53.2214   28.4614 H         1 UNK         0.0000 
     65 H65         0.2196   52.3413   26.6573 H         1 UNK         0.0000 
     66 H66         1.7380   51.6283   27.1206 H         1 UNK         0.0000 
     67 H67         1.4434   55.1513   28.3411 H         1 UNK         0.0000 
     68 H68         0.8921   55.6855   30.6688 H         1 UNK         0.0000 
     69 H69         0.0566   53.8561   32.1696 H         1 UNK         0.0000 
     70 H70         0.2258   51.0793   29.1132 H         1 UNK         0.0000 
     71 H71        -1.2416   49.6937   24.1744 H         1 UNK         0.0000 
@<TRIPOS>BOND
     1    1    2 1    
     2    1   39 1    
     3    1   40 1    
     4    1   41 1    
     5    2    3 1    
     6    2    4 1    
     7    2    5 1    
     8    3   42 1    
     9    3   43 1    
    10    3   44 1    
    11    4   45 1    
    12    4   46 1    
    13    4   47 1    
    14    5    6 1    
    15    6    7 2    
    16    6    8 am   BACKBONE|DICT|INTERRES
    17    8    9 1    
    18    8   48 1    
    19    9   10 1    
    20    9   14 1    
    21    9   11 1    
    22   11   12 1    
    23   11   49 1    
    24   11   50 1    
    25   12   13 1    
    26   12   51 1    
    27   12   52 1    
    28   13   14 1    
    29   13   15 1    
    30   13   71 1    
    31   14   53 1    
    32   14   54 1    
    33   15   16 1    
    34   15   55 1    
    35   15   56 1    
    36   16   17 2    
    37   16   18 am   BACKBONE|DICT|INTERRES
    38   18   19 1    
    39   18   57 1    
    40   19   20 1    
    41   19   29 1    
    42   19   21 1    
    43   21   22 1    
    44   21   58 1    
    45   21   59 1    
    46   22   23 1    
    47   22   60 1    
    48   22   61 1    
    49   23   28 ar   
    50   23   24 ar   
    51   24   25 ar   
    52   24   62 1    
    53   25   26 ar   
    54   25   38 1    
    55   26   27 ar   
    56   26   63 1    
    57   27   28 ar   
    58   27   64 1    
    59   28   29 1    
    60   29   30 1    
    61   29   31 1    
    62   31   32 1    
    63   31   65 1    
    64   31   66 1    
    65   32   37 ar   
    66   32   33 ar   
    67   33   34 ar   
    68   33   67 1    
    69   34   35 ar   
    70   34   68 1    
    71   35   36 ar   
    72   35   69 1    
    73   36   37 ar   
    74   37   70 1    
@<TRIPOS>SUBSTRUCTURE
     1 UNK         1 GROUP             0       ****    0 ROOT    
