@<TRIPOS>MOLECULE
ZINC13205340_518
47   50    1
SMALL
USER_CHARGES


@<TRIPOS>ATOM
      1 C1          7.1028   55.0397   24.3199 C.3       1 UNK         0.0000 
      2 C2          5.6581   54.6242   24.4873 C.ar      1 UNK         0.0000 
      3 C3          4.9548   54.0968   23.4051 C.ar      1 UNK         0.0000 
      4 C4          3.6305   53.7072   23.5688 C.ar      1 UNK         0.0000 
      5 C5          3.0104   53.8141   24.8194 C.ar      1 UNK         0.0000 
      6 C6          3.7143   54.3694   25.8923 C.ar      1 UNK         0.0000 
      7 C7          5.0369   54.7713   25.7275 C.ar      1 UNK         0.0000 
      8 C8          1.6176   53.2884   24.9577 C.ar      1 UNK         0.0000 
      9 N9          0.7243   53.3881   23.9990 N.2       1 UNK         0.0000 
     10 N10        -0.3798   52.6366   24.3687 N.2       1 UNK         0.0000 
     11 C11        -0.1033   52.0970   25.5268 C.ar      1 UNK         0.0000 
     12 N12         1.1178   52.5291   26.0057 N.pl3     1 UNK         0.0000 
     13 C13         1.7745   52.1127   27.2570 C.3       1 UNK         0.0000 
     14 C14         1.4703   53.0098   28.4638 C.2       1 UNK         0.0000 
     15 O15         2.0235   52.6785   29.5361 O.co2     1 UNK         0.0000 
     16 S16        -1.1223   50.8971   26.2922 S.3       1 UNK         0.0000 
     17 C17        -0.2200   49.4401   25.6466 C.3       1 UNK         0.0000 
     18 C18        -1.1368   48.4827   24.8879 C.2       1 UNK         0.0000 
     19 O19        -1.0695   48.3879   23.6619 O.2       1 UNK         0.0000 
     20 N20        -1.9523   47.7694   25.6818 N.am      1 UNK         0.0000 
     21 C21        -2.9531   46.8395   25.3757 C.ar      1 UNK         0.0000 
     22 C22        -3.4637   46.1150   26.4711 C.ar      1 UNK         0.0000 
     23 C23        -4.4953   45.1824   26.3030 C.ar      1 UNK         0.0000 
     24 C24        -4.9924   45.0024   25.0174 C.ar      1 UNK         0.0000 
     25 C25        -4.5010   45.6972   23.9496 C.ar      1 UNK         0.0000 
     26 C26        -3.4793   46.6320   24.0842 C.ar      1 UNK         0.0000 
     27 O27        -5.1469   45.3057   22.8211 O.3       1 UNK         0.0000 
     28 C28        -6.0826   44.3313   23.2087 C.3       1 UNK         0.0000 
     29 O29        -5.9565   44.1455   24.5957 O.3       1 UNK         0.0000 
     30 F30        -7.3159   44.7411   22.9139 F         1 UNK         0.0000 
     31 F31        -5.8268   43.1860   22.5752 F         1 UNK         0.0000 
     32 H32         7.2211   56.1015   24.5249 H         1 UNK         0.0000 
     33 H33         7.7184   54.4973   25.0329 H         1 UNK         0.0000 
     34 H34         7.4813   54.8340   23.3180 H         1 UNK         0.0000 
     35 H35         5.4277   53.9870   22.4401 H         1 UNK         0.0000 
     36 H36         3.0986   53.2875   22.7264 H         1 UNK         0.0000 
     37 H37         3.2443   54.4883   26.8568 H         1 UNK         0.0000 
     38 H38         5.5771   55.1865   26.5658 H         1 UNK         0.0000 
     39 H39         1.4684   51.0946   27.4929 H         1 UNK         0.0000 
     40 H40         2.8493   52.0991   27.1070 H         1 UNK         0.0000 
     41 H41         0.2388   48.9103   26.4823 H         1 UNK         0.0000 
     42 H42         0.5994   49.7310   24.9874 H         1 UNK         0.0000 
     43 H43        -1.8060   47.9292   26.6814 H         1 UNK         0.0000 
     44 H44        -3.0611   46.2770   27.4633 H         1 UNK         0.0000 
     45 H45        -4.8706   44.6233   27.1482 H         1 UNK         0.0000 
     46 H46        -3.1235   47.1796   23.2249 H         1 UNK         0.0000 
     47 O47         0.7360   54.0123   28.3159 O.co2     1 UNK         0.0000 
@<TRIPOS>BOND
     1    1    2 1    
     2    1   32 1    
     3    1   33 1    
     4    1   34 1    
     5    2    7 ar   
     6    2    3 ar   
     7    3    4 ar   
     8    3   35 1    
     9    4    5 ar   
    10    4   36 1    
    11    5    6 ar   
    12    5    8 1    
    13    6    7 ar   
    14    6   37 1    
    15    7   38 1    
    16    8   12 ar   
    17    8    9 ar   
    18    9   10 ar   
    19   10   11 ar   
    20   11   12 ar   
    21   11   16 1    
    22   12   13 1    
    23   13   14 1    
    24   13   39 1    
    25   13   40 1    
    26   14   15 2    
    27   14   47 1    
    28   16   17 1    
    29   17   18 1    
    30   17   41 1    
    31   17   42 1    
    32   18   19 2    
    33   18   20 am   BACKBONE|DICT|INTERRES
    34   20   21 1    
    35   20   43 1    
    36   21   26 ar   
    37   21   22 ar   
    38   22   23 ar   
    39   22   44 1    
    40   23   24 ar   
    41   23   45 1    
    42   24   29 1    
    43   24   25 ar   
    44   25   26 ar   
    45   25   27 1    
    46   26   46 1    
    47   27   28 1    
    48   28   29 1    
    49   28   30 1    
    50   28   31 1    
@<TRIPOS>SUBSTRUCTURE
     1 UNK         1 GROUP             0       ****    0 ROOT    
