@<TRIPOS>MOLECULE
ZINC09434016_5230
72   77    1
SMALL
USER_CHARGES


@<TRIPOS>ATOM
      1 C1          1.6800   56.7413   16.1466 C.3       1 UNK         0.0000 
      2 C2          0.3523   56.0111   16.4246 C.2       1 UNK         0.0000 
      3 N3          0.2534   54.8146   16.8817 N.2       1 UNK         0.0000 
      4 N4          1.3820   54.1776   17.2816 N.am      1 UNK         0.0000 
      5 C5          1.3645   52.9081   17.7366 C.2       1 UNK         0.0000 
      6 O6          0.3856   52.1627   17.6653 O.2       1 UNK         0.0000 
      7 C7          2.6550   52.3988   18.3975 C.3       1 UNK         0.0000 
      8 C8          4.1773   53.1836   20.2821 C.3       1 UNK         0.0000 
      9 C9          4.2490   53.8825   21.6708 C.3       1 UNK         0.0000 
     10 N10         3.2676   53.3355   22.6122 N.pl3     1 UNK         0.0000 
     11 C11         3.1421   53.6188   23.9656 C.ar      1 UNK         0.0000 
     12 C12         3.9234   54.4082   24.8205 C.ar      1 UNK         0.0000 
     13 C13         3.5859   54.4128   26.1758 C.ar      1 UNK         0.0000 
     14 C14         2.4951   53.6967   26.6774 C.ar      1 UNK         0.0000 
     15 C15         1.6833   52.9592   25.8068 C.ar      1 UNK         0.0000 
     16 C16         2.0043   52.8962   24.4456 C.ar      1 UNK         0.0000 
     17 C17         1.4274   52.2155   23.3226 C.ar      1 UNK         0.0000 
     18 C18         2.2687   52.4574   22.2558 C.ar      1 UNK         0.0000 
     19 C19         2.1442   51.8325   20.8736 C.3       1 UNK         0.0000 
     20 H20         2.7872   50.9557   20.7815 H         1 UNK         0.0000 
     21 C21         0.6634   51.4352   20.6667 C.3       1 UNK         0.0000 
     22 C22         0.1398   50.6079   21.8641 C.3       1 UNK         0.0000 
     23 C23         0.1654   51.3650   23.2152 C.3       1 UNK         0.0000 
     24 C24         2.1948   53.7034   28.1800 C.3       1 UNK         0.0000 
     25 C25         0.7798   54.2515   28.4994 C.3       1 UNK         0.0000 
     26 C26         0.4616   54.2093   30.0083 C.3       1 UNK         0.0000 
     27 C27         0.6869   52.8112   30.6120 C.3       1 UNK         0.0000 
     28 C28         2.1088   52.3035   30.3296 C.3       1 UNK         0.0000 
     29 C29         2.4479   52.3163   28.8251 C.3       1 UNK         0.0000 
     30 C30        -0.8880   56.7781   16.1200 C.ar      1 UNK         0.0000 
     31 C31        -2.1204   56.1156   15.9634 C.ar      1 UNK         0.0000 
     32 C32        -3.2897   56.8191   15.6842 C.ar      1 UNK         0.0000 
     33 C33        -3.2456   58.2017   15.5446 C.ar      1 UNK         0.0000 
     34 C34        -2.0403   58.8820   15.6816 C.ar      1 UNK         0.0000 
     35 C35        -0.8745   58.1762   15.9753 C.ar      1 UNK         0.0000 
     36 F36        -4.3788   58.8901   15.2850 F         1 UNK         0.0000 
     37 H37         1.8558   57.5254   16.8817 H         1 UNK         0.0000 
     38 H38         2.5543   56.0942   16.1784 H         1 UNK         0.0000 
     39 H39         1.6747   57.1996   15.1572 H         1 UNK         0.0000 
     40 H40         2.2213   54.7392   17.2960 H         1 UNK         0.0000 
     41 H41         2.7392   51.3102   18.3868 H         1 UNK         0.0000 
     42 H42         3.5238   52.8010   17.8763 H         1 UNK         0.0000 
     43 H43         4.7257   52.2389   20.2450 H         1 UNK         0.0000 
     44 H44         4.5874   53.8573   19.5286 H         1 UNK         0.0000 
     45 H45         5.2468   53.8030   22.1029 H         1 UNK         0.0000 
     46 H46         4.0533   54.9479   21.5744 H         1 UNK         0.0000 
     47 H47         4.7831   54.9551   24.4645 H         1 UNK         0.0000 
     48 H48         4.2015   54.9868   26.8561 H         1 UNK         0.0000 
     49 H49         0.8390   52.4038   26.1878 H         1 UNK         0.0000 
     50 H50         0.0427   52.3208   20.5302 H         1 UNK         0.0000 
     51 H51         0.5598   50.8352   19.7656 H         1 UNK         0.0000 
     52 H52         0.7462   49.7038   21.9541 H         1 UNK         0.0000 
     53 H53        -0.8733   50.2574   21.6644 H         1 UNK         0.0000 
     54 H54         0.1066   50.6542   24.0401 H         1 UNK         0.0000 
     55 H55        -0.7128   52.0052   23.3034 H         1 UNK         0.0000 
     56 H56         2.9098   54.3988   28.6252 H         1 UNK         0.0000 
     57 H57         0.7046   55.2907   28.1717 H         1 UNK         0.0000 
     58 H58         0.0180   53.6751   27.9768 H         1 UNK         0.0000 
     59 H59         1.0769   54.9389   30.5376 H         1 UNK         0.0000 
     60 H60        -0.5728   54.4967   30.1689 H         1 UNK         0.0000 
     61 H61         0.4994   52.8297   31.6872 H         1 UNK         0.0000 
     62 H62        -0.0394   52.1110   30.1941 H         1 UNK         0.0000 
     63 H63         2.8344   52.9051   30.8763 H         1 UNK         0.0000 
     64 H64         2.2034   51.2977   30.7228 H         1 UNK         0.0000 
     65 H65         1.8510   51.5506   28.3256 H         1 UNK         0.0000 
     66 H66         3.4985   52.0458   28.7146 H         1 UNK         0.0000 
     67 H67        -2.1854   55.0407   16.0603 H         1 UNK         0.0000 
     68 H68        -4.2288   56.2983   15.5823 H         1 UNK         0.0000 
     69 H69        -2.0112   59.9541   15.5698 H         1 UNK         0.0000 
     70 H70         0.0352   58.7474   16.0866 H         1 UNK         0.0000 
     71 N71         2.7046   52.8894   19.8787 N.4       1 UNK         0.0000 
     72 H72         2.1826   53.7667   19.9588 H         1 UNK         0.0000 
@<TRIPOS>BOND
     1    1    2 1    
     2    1   37 1    
     3    1   38 1    
     4    1   39 1    
     5    2    3 2    
     6    2   30 1    
     7    3    4 1    
     8    4    5 am   BACKBONE|DICT|INTERRES
     9    4   40 1    
    10    5    6 2    
    11    5    7 1    
    12    7   41 1    
    13    7   42 1    
    14    7   71 1    
    15    8    9 1    
    16    8   43 1    
    17    8   44 1    
    18    8   71 1    
    19    9   10 1    
    20    9   45 1    
    21    9   46 1    
    22   10   18 ar   
    23   10   11 ar   
    24   11   16 ar   
    25   11   12 ar   
    26   12   13 ar   
    27   12   47 1    
    28   13   14 ar   
    29   13   48 1    
    30   14   15 ar   
    31   14   24 1    
    32   15   16 ar   
    33   15   49 1    
    34   16   17 ar   
    35   17   23 1    
    36   17   18 ar   
    37   18   19 1    
    38   19   20 1    
    39   19   21 1    
    40   19   71 1    
    41   21   22 1    
    42   21   50 1    
    43   21   51 1    
    44   22   23 1    
    45   22   52 1    
    46   22   53 1    
    47   23   54 1    
    48   23   55 1    
    49   24   29 1    
    50   24   25 1    
    51   24   56 1    
    52   25   26 1    
    53   25   57 1    
    54   25   58 1    
    55   26   27 1    
    56   26   59 1    
    57   26   60 1    
    58   27   28 1    
    59   27   61 1    
    60   27   62 1    
    61   28   29 1    
    62   28   63 1    
    63   28   64 1    
    64   29   65 1    
    65   29   66 1    
    66   30   35 ar   
    67   30   31 ar   
    68   31   32 ar   
    69   31   67 1    
    70   32   33 ar   
    71   32   68 1    
    72   33   34 ar   
    73   33   36 1    
    74   34   35 ar   
    75   34   69 1    
    76   35   70 1    
    77   71   72 1    
@<TRIPOS>SUBSTRUCTURE
     1 UNK         1 GROUP             0       ****    0 ROOT    
