ZINC15864405_2754
                    3D
 Schrodinger Suite 2024-2.
 52 55  0  0  1  0            999 V2000
   -0.0866   53.0263   30.6078 C   0  0  0  0  0  0
    1.3647   52.9024   30.2188 C   0  0  0  0  0  0
    2.4178   52.3969   30.9736 C   0  0  0  0  0  0
    3.8945   52.4963   30.0636 S   0  0  0  0  0  0
    2.9687   53.2247   28.7763 C   0  0  0  0  0  0
    1.6884   53.3345   29.0151 N   0  0  0  0  0  0
    3.4778   53.6118   27.5507 N   0  0  0  0  0  0
    4.7688   53.7849   27.1969 C   0  0  0  0  0  0
    5.7220   53.7018   27.9756 O   0  0  0  0  0  0
    5.0000   54.0962   25.7313 C   0  0  0  0  0  0
    6.3078   54.0981   25.2304 C   0  0  0  0  0  0
    6.5517   54.2905   23.8751 C   0  0  0  0  0  0
    5.4900   54.4967   22.9914 C   0  0  0  0  0  0
    4.1797   54.4966   23.4803 C   0  0  0  0  0  0
    3.9372   54.3056   24.8349 C   0  0  0  0  0  0
    5.7392   54.7619   21.6182 N   0  0  0  0  0  0
    5.0335   54.3611   20.4970 C   0  0  0  0  0  0
    5.6749   54.9311   19.4062 C   0  0  0  0  0  0
    6.7728   55.6166   19.9556 C   0  0  0  0  0  0
    6.7886   55.5290   21.2697 N   0  0  0  0  0  0
    7.8571   56.4032   19.2528 C   0  0  0  0  0  0
    5.2816   54.7992   17.9761 C   0  0  0  0  0  0
    3.9914   55.1597   17.5757 C   0  0  0  0  0  0
    3.6128   55.0218   16.2421 C   0  0  0  0  0  0
    4.5230   54.5220   15.3142 C   0  0  0  0  0  0
    5.8086   54.1558   15.7071 C   0  0  0  0  0  0
    6.1877   54.2918   17.0417 C   0  0  0  0  0  0
    4.1538   54.3889   14.0196 F   0  0  0  0  0  0
    3.9051   53.5607   20.4969 N   0  0  0  0  0  0
    3.9461   52.2621   20.8398 C   0  0  0  0  0  0
    4.9457   51.6965   21.2825 O   0  0  0  0  0  0
    2.6527   51.4798   20.6682 C   0  0  0  0  0  0
   -0.2271   52.8931   31.6819 H   0  0  0  0  0  0
   -0.4965   54.0053   30.3580 H   0  0  0  0  0  0
   -0.7038   52.2789   30.1068 H   0  0  0  0  0  0
    2.3931   52.0033   31.9812 H   0  0  0  0  0  0
    2.7868   53.8648   26.8632 H   0  0  0  0  0  0
    7.1465   53.9238   25.8885 H   0  0  0  0  0  0
    7.5663   54.2772   23.5103 H   0  0  0  0  0  0
    3.3419   54.6782   22.8220 H   0  0  0  0  0  0
    2.9082   54.3148   25.1591 H   0  0  0  0  0  0
    7.9405   56.1489   18.1977 H   0  0  0  0  0  0
    7.6655   57.4752   19.2867 H   0  0  0  0  0  0
    8.8415   56.2291   19.6904 H   0  0  0  0  0  0
    3.2860   55.5496   18.2933 H   0  0  0  0  0  0
    2.6191   55.3020   15.9263 H   0  0  0  0  0  0
    6.5025   53.7597   14.9810 H   0  0  0  0  0  0
    7.1790   53.9889   17.3496 H   0  0  0  0  0  0
    3.0591   53.9319   20.0828 H   0  0  0  0  0  0
    2.4722   51.2879   19.6082 H   0  0  0  0  0  0
    2.7175   50.5180   21.1806 H   0  0  0  0  0  0
    1.8041   52.0333   21.0774 H   0  0  0  0  0  0
  1  2  1  0  0  0
  1 33  1  0  0  0
  1 34  1  0  0  0
  1 35  1  0  0  0
  2  6  1  0  0  0
  2  3  2  0  0  0
  3  4  1  0  0  0
  3 36  1  0  0  0
  4  5  1  0  0  0
  5  6  2  0  0  0
  5  7  1  0  0  0
  7  8  1  0  0  0
  7 37  1  0  0  0
  8  9  2  0  0  0
  8 10  1  0  0  0
 10 15  2  0  0  0
 10 11  1  0  0  0
 11 12  2  0  0  0
 11 38  1  0  0  0
 12 13  1  0  0  0
 12 39  1  0  0  0
 13 14  2  0  0  0
 13 16  1  0  0  0
 14 15  1  0  0  0
 14 40  1  0  0  0
 15 41  1  0  0  0
 16 20  1  0  0  0
 16 17  1  0  0  0
 17 18  2  0  0  0
 17 29  1  0  0  0
 18 19  1  0  0  0
 18 22  1  0  0  0
 19 20  2  0  0  0
 19 21  1  0  0  0
 21 42  1  0  0  0
 21 43  1  0  0  0
 21 44  1  0  0  0
 22 27  2  0  0  0
 22 23  1  0  0  0
 23 24  2  0  0  0
 23 45  1  0  0  0
 24 25  1  0  0  0
 24 46  1  0  0  0
 25 26  2  0  0  0
 25 28  1  0  0  0
 26 27  1  0  0  0
 26 47  1  0  0  0
 27 48  1  0  0  0
 29 30  1  0  0  0
 29 49  1  0  0  0
 30 31  2  0  0  0
 30 32  1  0  0  0
 32 50  1  0  0  0
 32 51  1  0  0  0
 32 52  1  0  0  0
M  END
> <i_i_glide_confnum>
96

> <i_i_glide_lignum>
2755

> <i_i_glide_posenum>
375

> <i_i_glide_rotatable_bonds>
7

> <i_m_Source_File_Index>
1905

> <b_m_subgroup_collapsed>
0

> <r_i_docking_score>
-6.10937

> <r_i_glide_ecoul>
-5.54996

> <r_i_glide_eff_state_penalty>
0

> <r_i_glide_einternal>
1.54587

> <r_i_glide_emodel>
-73.4408

> <r_i_glide_energy>
-54.3188

> <r_i_glide_erotb>
0.595137

> <r_i_glide_esite>
-0.00867801

> <r_i_glide_evdw>
-48.7688

> <r_i_glide_gscore>
-6.10937

> <r_i_glide_hbond>
-0.254683

> <r_i_glide_ligand_efficiency>
-0.190918

> <r_i_glide_ligand_efficiency_ln>
-1.36805

> <r_i_glide_ligand_efficiency_sa>
-0.606126

> <r_i_glide_lipo>
-2.13884

> <r_i_glide_metal>
0

> <r_i_glide_rewards>
-1.03137

> <s_i_glide_gridfile>
wee1_glide-grid

> <s_m_Source_File>
wee1_decoys_glide_SP.sdf

> <s_m_Source_Path>
/Users/zhangxujun/Desktop

> <s_m_entry_id>
2180

> <s_m_entry_name>
wee1_decoys_glide_SP.1905

> <s_m_subgroup_title>
wee1_decoys_glide_SP

> <s_m_subgroupid>
wee1_decoys_glide_SP


$$$$
