@<TRIPOS>MOLECULE
ZINC14532681_4274
58   62    1
SMALL
USER_CHARGES


@<TRIPOS>ATOM
      1 C1          0.5216   52.7450   31.5934 C.3       1 UNK         0.0000 
      2 N2          1.0360   52.8704   30.2376 N.pl3     1 UNK         0.0000 
      3 C3          0.4427   52.4472   29.0819 C.ar      1 UNK         0.0000 
      4 C4          1.2998   52.8170   28.0484 C.ar      1 UNK         0.0000 
      5 C5          2.4232   53.3873   28.7095 C.ar      1 UNK         0.0000 
      6 N6          2.2488   53.3903   30.0209 N.2       1 UNK         0.0000 
      7 C7          3.6521   53.8285   28.0810 C.2       1 UNK         0.0000 
      8 O8          4.7207   53.8671   28.6913 O.2       1 UNK         0.0000 
      9 N9          3.5140   54.1851   26.7939 N.am      1 UNK         0.0000 
     10 C10         4.5845   54.5754   25.8770 C.3       1 UNK         0.0000 
     11 C11         4.2936   54.2683   24.4056 C.ar      1 UNK         0.0000 
     12 C12         2.9767   54.1518   23.9292 C.ar      1 UNK         0.0000 
     13 C13         2.7272   53.8643   22.5893 C.ar      1 UNK         0.0000 
     14 C14         3.7876   53.6956   21.7049 C.ar      1 UNK         0.0000 
     15 C15         5.0978   53.8157   22.1618 C.ar      1 UNK         0.0000 
     16 C16         5.3531   54.0968   23.5048 C.ar      1 UNK         0.0000 
     17 F17         6.6341   54.2084   23.9247 F         1 UNK         0.0000 
     18 C18         0.9818   52.4727   26.5809 C.3       1 UNK         0.0000 
     19 C19        -0.1767   51.4415   26.4986 C.3       1 UNK         0.0000 
     20 H20        -0.5948   51.4442   25.4898 H         1 UNK         0.0000 
     21 C21        -1.3194   51.8595   27.4529 C.3       1 UNK         0.0000 
     22 C22        -0.9130   51.7762   28.9418 C.3       1 UNK         0.0000 
     23 N23         0.3044   50.0957   26.7662 N.3       1 UNK         0.0000 
     24 C24         0.6934   49.3075   25.5988 C.3       1 UNK         0.0000 
     25 C25        -0.4849   48.6159   24.9356 C.ar      1 UNK         0.0000 
     26 C26        -0.7904   48.4100   23.6024 C.ar      1 UNK         0.0000 
     27 C27        -1.9757   47.6071   23.5377 C.ar      1 UNK         0.0000 
     28 C28        -2.7402   47.0619   22.4935 C.ar      1 UNK         0.0000 
     29 C29        -3.8738   46.3109   22.8054 C.ar      1 UNK         0.0000 
     30 C30        -4.2521   46.0943   24.1289 C.ar      1 UNK         0.0000 
     31 C31        -3.5140   46.6061   25.1979 C.ar      1 UNK         0.0000 
     32 C32        -2.3807   47.3624   24.8801 C.ar      1 UNK         0.0000 
     33 N33        -1.4607   47.9955   25.6817 N.pl3     1 UNK         0.0000 
     34 H34        -1.4528   48.0229   26.7027 H         1 UNK         0.0000 
     35 H35        -0.4964   53.1187   31.6237 H         1 UNK         0.0000 
     36 H36         0.5309   51.6972   31.8930 H         1 UNK         0.0000 
     37 H37         1.1070   53.3201   32.3051 H         1 UNK         0.0000 
     38 H38         2.5726   54.3443   26.4718 H         1 UNK         0.0000 
     39 H39         5.5263   54.1025   26.1720 H         1 UNK         0.0000 
     40 H40         4.7542   55.6493   25.9667 H         1 UNK         0.0000 
     41 H41         2.1339   54.3022   24.5823 H         1 UNK         0.0000 
     42 H42         1.7115   53.7907   22.2286 H         1 UNK         0.0000 
     43 H43         3.5934   53.4859   20.6618 H         1 UNK         0.0000 
     44 H44         5.9055   53.6943   21.4629 H         1 UNK         0.0000 
     45 H45         0.7049   53.3520   26.0145 H         1 UNK         0.0000 
     46 H46         1.8694   52.0971   26.0691 H         1 UNK         0.0000 
     47 H47        -2.2093   51.2599   27.2621 H         1 UNK         0.0000 
     48 H48        -1.5975   52.8892   27.2271 H         1 UNK         0.0000 
     49 H49        -0.8203   50.7352   29.2327 H         1 UNK         0.0000 
     50 H50        -1.6751   52.1974   29.5941 H         1 UNK         0.0000 
     51 H51        -0.3541   49.5744   27.3482 H         1 UNK         0.0000 
     52 H52         1.2466   49.9162   24.8824 H         1 UNK         0.0000 
     53 H53         1.3955   48.5483   25.9471 H         1 UNK         0.0000 
     54 H54        -0.2049   48.7796   22.7721 H         1 UNK         0.0000 
     55 H55        -2.4612   47.2266   21.4638 H         1 UNK         0.0000 
     56 H56        -4.4760   45.8988   22.0096 H         1 UNK         0.0000 
     57 H57        -5.1452   45.5190   24.3306 H         1 UNK         0.0000 
     58 H58        -3.8144   46.4355   26.2223 H         1 UNK         0.0000 
@<TRIPOS>BOND
     1    1    2 1    
     2    1   35 1    
     3    1   36 1    
     4    1   37 1    
     5    2    6 ar   
     6    2    3 ar   
     7    3   22 1    
     8    3    4 ar   
     9    4    5 ar   
    10    4   18 1    
    11    5    6 ar   
    12    5    7 1    
    13    7    8 2    
    14    7    9 am   BACKBONE|DICT|INTERRES
    15    9   10 1    
    16    9   38 1    
    17   10   11 1    
    18   10   39 1    
    19   10   40 1    
    20   11   16 ar   
    21   11   12 ar   
    22   12   13 ar   
    23   12   41 1    
    24   13   14 ar   
    25   13   42 1    
    26   14   15 ar   
    27   14   43 1    
    28   15   16 ar   
    29   15   44 1    
    30   16   17 1    
    31   18   19 1    
    32   18   45 1    
    33   18   46 1    
    34   19   20 1    
    35   19   21 1    
    36   19   23 1    
    37   21   22 1    
    38   21   47 1    
    39   21   48 1    
    40   22   49 1    
    41   22   50 1    
    42   23   24 1    
    43   23   51 1    
    44   24   25 1    
    45   24   52 1    
    46   24   53 1    
    47   25   33 ar   
    48   25   26 ar   
    49   26   27 ar   
    50   26   54 1    
    51   27   32 ar   
    52   27   28 ar   
    53   28   29 ar   
    54   28   55 1    
    55   29   30 ar   
    56   29   56 1    
    57   30   31 ar   
    58   30   57 1    
    59   31   32 ar   
    60   31   58 1    
    61   32   33 ar   
    62   33   34 1    
@<TRIPOS>SUBSTRUCTURE
     1 UNK         1 GROUP             0       ****    0 ROOT    
