ZINC11739475_2243
                    3D
 Schrodinger Suite 2024-2.
 44 47  0  0  1  0            999 V2000
   15.4996   61.7438   25.2692 C   0  0  0  0  0  0
   15.3047   61.4474   23.7932 C   0  0  0  0  0  0
   16.4144   61.1683   22.9906 C   0  0  0  0  0  0
   16.2789   60.8926   21.6288 C   0  0  0  0  0  0
   14.9938   60.9068   21.0701 C   0  0  0  0  0  0
   13.8726   61.2172   21.8832 C   0  0  0  0  0  0
   14.0174   61.4807   23.2511 C   0  0  0  0  0  0
   12.4265   61.1956   20.8903 S   0  0  0  0  0  0
   13.4325   60.6979   19.5338 C   0  0  0  0  0  0
   14.7091   60.6106   19.7740 N   0  0  0  0  0  0
   12.9518   60.3695   18.2757 N   0  0  0  0  0  0
   11.6810   60.4444   17.8282 C   0  0  0  0  0  0
   10.7368   60.8960   18.4763 O   0  0  0  0  0  0
   11.4619   59.9215   16.4008 C   0  0  0  0  0  0
    9.7292   59.8705   15.8204 S   0  0  0  0  0  0
    8.7764   58.7361   16.7961 C   0  0  0  0  0  0
    9.3575   57.9455   17.7915 C   0  0  0  0  0  0
    8.5352   57.0733   18.4997 C   0  0  0  0  0  0
    7.1736   57.0260   18.1684 C   0  0  0  0  0  0
    6.6590   57.8009   17.1763 N   0  0  0  0  0  0
    7.4505   58.6558   16.5049 N   0  0  0  0  0  0
    6.2784   56.1380   18.7817 N   0  0  0  0  0  0
    6.3109   55.7087   20.0606 C   0  0  0  0  0  0
    6.9756   56.2398   20.9528 O   0  0  0  0  0  0
    5.4931   54.5466   20.3110 C   0  0  0  0  0  0
    5.0301   53.5876   19.4020 C   0  0  0  0  0  0
    4.3185   52.5497   20.0101 C   0  0  0  0  0  0
    4.2469   52.6865   21.3858 C   0  0  0  0  0  0
    5.0889   54.0946   21.9475 S   0  0  0  0  0  0
   14.7607   62.4628   25.6245 H   0  0  0  0  0  0
   15.4091   60.8323   25.8597 H   0  0  0  0  0  0
   16.4780   62.1877   25.4568 H   0  0  0  0  0  0
   17.4016   61.1572   23.4314 H   0  0  0  0  0  0
   17.1442   60.6665   21.0237 H   0  0  0  0  0  0
   13.1594   61.6966   23.8705 H   0  0  0  0  0  0
   13.6540   60.0441   17.6292 H   0  0  0  0  0  0
   12.0140   60.5639   15.7148 H   0  0  0  0  0  0
   11.8833   58.9205   16.3039 H   0  0  0  0  0  0
   10.4101   57.9838   18.0202 H   0  0  0  0  0  0
    8.9582   56.4411   19.2681 H   0  0  0  0  0  0
    5.5890   55.7277   18.1715 H   0  0  0  0  0  0
    5.2026   53.6182   18.3356 H   0  0  0  0  0  0
    3.8898   51.7233   19.4590 H   0  0  0  0  0  0
    3.7567   52.0238   22.0815 H   0  0  0  0  0  0
  1  2  1  0  0  0
  1 30  1  0  0  0
  1 31  1  0  0  0
  1 32  1  0  0  0
  2  7  2  0  0  0
  2  3  1  0  0  0
  3  4  2  0  0  0
  3 33  1  0  0  0
  4  5  1  0  0  0
  4 34  1  0  0  0
  5 10  1  0  0  0
  5  6  2  0  0  0
  6  7  1  0  0  0
  6  8  1  0  0  0
  7 35  1  0  0  0
  8  9  1  0  0  0
  9 10  2  0  0  0
  9 11  1  0  0  0
 11 12  1  0  0  0
 11 36  1  0  0  0
 12 13  2  0  0  0
 12 14  1  0  0  0
 14 15  1  0  0  0
 14 37  1  0  0  0
 14 38  1  0  0  0
 15 16  1  0  0  0
 16 21  2  0  0  0
 16 17  1  0  0  0
 17 18  2  0  0  0
 17 39  1  0  0  0
 18 19  1  0  0  0
 18 40  1  0  0  0
 19 20  2  0  0  0
 19 22  1  0  0  0
 20 21  1  0  0  0
 22 23  1  0  0  0
 22 41  1  0  0  0
 23 24  2  0  0  0
 23 25  1  0  0  0
 25 29  1  0  0  0
 25 26  2  0  0  0
 26 27  1  0  0  0
 26 42  1  0  0  0
 27 28  2  0  0  0
 27 43  1  0  0  0
 28 29  1  0  0  0
 28 44  1  0  0  0
M  END
> <i_i_glide_confnum>
126

> <i_i_glide_lignum>
2244

> <i_i_glide_posenum>
179

> <i_i_glide_rotatable_bonds>
8

> <i_m_Source_File_Index>
5887

> <b_m_subgroup_collapsed>
0

> <r_i_docking_score>
-2.74774

> <r_i_glide_ecoul>
-5.87829

> <r_i_glide_eff_state_penalty>
0

> <r_i_glide_einternal>
4.86737

> <r_i_glide_emodel>
-41.1327

> <r_i_glide_energy>
-33.968

> <r_i_glide_erotb>
0.819658

> <r_i_glide_esite>
-0.0775077

> <r_i_glide_evdw>
-28.0897

> <r_i_glide_gscore>
-2.74774

> <r_i_glide_hbond>
-0.227101

> <r_i_glide_ligand_efficiency>
-0.0947498

> <r_i_glide_ligand_efficiency_ln>
-0.629164

> <r_i_glide_ligand_efficiency_sa>
-0.291101

> <r_i_glide_lipo>
-0.512156

> <r_i_glide_metal>
0

> <r_i_glide_rewards>
-0.46441

> <s_i_glide_gridfile>
wee1_glide-grid

> <s_m_Source_File>
wee1_decoys_glide_SP.sdf

> <s_m_Source_Path>
/Users/zhangxujun/Desktop

> <s_m_entry_id>
6162

> <s_m_entry_name>
wee1_decoys_glide_SP.5887

> <s_m_subgroup_title>
wee1_decoys_glide_SP

> <s_m_subgroupid>
wee1_decoys_glide_SP


$$$$
