@<TRIPOS>MOLECULE
ZINC31807880_799
59   62    1
SMALL
USER_CHARGES


@<TRIPOS>ATOM
      1 C1         -7.3627   49.7300   26.3160 C.3       1 UNK         0.0000 
      2 C2         -5.8519   49.8441   26.1847 C.ar      1 UNK         0.0000 
      3 C3         -5.0307   49.0871   27.0259 C.ar      1 UNK         0.0000 
      4 N4         -3.6950   49.1523   26.8816 N.pl3     1 UNK         0.0000 
      5 C5         -3.0768   49.9203   25.9605 C.ar      1 UNK         0.0000 
      6 C6         -3.8557   50.7103   25.0914 C.ar      1 UNK         0.0000 
      7 C7         -5.2590   50.6680   25.2091 C.ar      1 UNK         0.0000 
      8 O8         -6.0493   51.3966   24.3521 O.3       1 UNK         0.0000 
      9 C9         -6.4020   52.6893   24.8276 C.3       1 UNK         0.0000 
     10 C10        -3.1909   51.5704   24.0207 C.3       1 UNK         0.0000 
     11 C11        -1.5473   49.8490   25.9070 C.3       1 UNK         0.0000 
     12 N12        -0.8840   51.0904   26.3247 N.3       1 UNK         0.0000 
     13 C13        -1.0772   51.3544   27.7570 C.3       1 UNK         0.0000 
     14 C14        -0.4385   52.6982   28.1748 C.3       1 UNK         0.0000 
     15 N15         1.0837   52.7364   27.8384 N.4       1 UNK         0.0000 
     16 C16         1.2431   52.3289   26.3525 C.3       1 UNK         0.0000 
     17 C17         0.5507   50.9902   26.0429 C.3       1 UNK         0.0000 
     18 C18         1.7357   54.1438   28.1152 C.3       1 UNK         0.0000 
     19 H19         1.1715   54.8214   27.4736 H         1 UNK         0.0000 
     20 C20         3.2503   54.1407   27.7905 C.ar      1 UNK         0.0000 
     21 C21         4.3125   54.0315   28.6858 C.ar      1 UNK         0.0000 
     22 N22         5.5200   54.1320   28.0509 N.pl3     1 UNK         0.0000 
     23 H23         6.4030   54.1145   28.5477 H         1 UNK         0.0000 
     24 C24         5.3132   54.2776   26.7037 C.ar      1 UNK         0.0000 
     25 C25         3.8943   54.2952   26.4992 C.ar      1 UNK         0.0000 
     26 C26         3.4294   54.4412   25.1808 C.ar      1 UNK         0.0000 
     27 C27         4.3392   54.4928   24.1298 C.ar      1 UNK         0.0000 
     28 C28         5.7080   54.4868   24.3630 C.ar      1 UNK         0.0000 
     29 C29         6.2282   54.3963   25.6525 C.ar      1 UNK         0.0000 
     30 Br30        6.8970   54.5890   22.8822 Br        1 UNK         0.0000 
     31 C31         1.5057   54.5711   29.6020 C.2       1 UNK         0.0000 
     32 O32         1.4314   53.6809   30.4816 O.co2     1 UNK         0.0000 
     33 O33         1.5175   55.7983   29.8483 O.co2     1 UNK         0.0000 
     34 H34        -7.8523   49.8538   25.3486 H         1 UNK         0.0000 
     35 H35        -7.6528   48.7438   26.6816 H         1 UNK         0.0000 
     36 H36        -7.7476   50.4847   27.0019 H         1 UNK         0.0000 
     37 H37        -5.3902   48.4262   27.8020 H         1 UNK         0.0000 
     38 H38        -7.0415   53.1756   24.0890 H         1 UNK         0.0000 
     39 H39        -6.9549   52.6417   25.7673 H         1 UNK         0.0000 
     40 H40        -5.5217   53.3183   24.9717 H         1 UNK         0.0000 
     41 H41        -3.9044   51.9706   23.3010 H         1 UNK         0.0000 
     42 H42        -2.6519   52.4016   24.4782 H         1 UNK         0.0000 
     43 H43        -2.4681   50.9848   23.4506 H         1 UNK         0.0000 
     44 H44        -1.2810   49.6206   24.8741 H         1 UNK         0.0000 
     45 H45        -1.1717   49.0008   26.4782 H         1 UNK         0.0000 
     46 H46        -0.6121   50.5422   28.3198 H         1 UNK         0.0000 
     47 H47        -2.1378   51.3781   28.0093 H         1 UNK         0.0000 
     48 H48        -0.5549   52.7955   29.2529 H         1 UNK         0.0000 
     49 H49        -0.8956   53.5527   27.6819 H         1 UNK         0.0000 
     50 H50         0.8380   53.1364   25.7436 H         1 UNK         0.0000 
     51 H51         2.3059   52.2033   26.1834 H         1 UNK         0.0000 
     52 H52         0.7137   50.7493   24.9897 H         1 UNK         0.0000 
     53 H53         0.9850   50.1908   26.6495 H         1 UNK         0.0000 
     54 H54         4.3003   53.9164   29.7616 H         1 UNK         0.0000 
     55 H55         2.3773   54.4909   24.9580 H         1 UNK         0.0000 
     56 H56         3.9718   54.5545   23.1129 H         1 UNK         0.0000 
     57 H57         7.2922   54.3951   25.8220 H         1 UNK         0.0000 
     58 H58         1.5455   52.0426   28.4088 H         1 UNK         0.0000 
     59 H59        -3.0949   48.6234   27.5197 H         1 UNK         0.0000 
@<TRIPOS>BOND
     1    1    2 1    
     2    1   34 1    
     3    1   35 1    
     4    1   36 1    
     5    2    7 ar   
     6    2    3 ar   
     7    3    4 ar   
     8    3   37 1    
     9    4    5 ar   
    10    4   59 1    
    11    5    6 ar   
    12    5   11 1    
    13    6    7 ar   
    14    6   10 1    
    15    7    8 1    
    16    8    9 1    
    17    9   38 1    
    18    9   39 1    
    19    9   40 1    
    20   10   41 1    
    21   10   42 1    
    22   10   43 1    
    23   11   12 1    
    24   11   44 1    
    25   11   45 1    
    26   12   17 1    
    27   12   13 1    
    28   13   14 1    
    29   13   46 1    
    30   13   47 1    
    31   14   15 1    
    32   14   48 1    
    33   14   49 1    
    34   15   16 1    
    35   15   18 1    
    36   15   58 1    
    37   16   17 1    
    38   16   50 1    
    39   16   51 1    
    40   17   52 1    
    41   17   53 1    
    42   18   19 1    
    43   18   20 1    
    44   18   31 1    
    45   20   25 ar   
    46   20   21 ar   
    47   21   22 ar   
    48   21   54 1    
    49   22   23 1    
    50   22   24 ar   
    51   24   29 ar   
    52   24   25 ar   
    53   25   26 ar   
    54   26   27 ar   
    55   26   55 1    
    56   27   28 ar   
    57   27   56 1    
    58   28   29 ar   
    59   28   30 1    
    60   29   57 1    
    61   31   32 2    
    62   31   33 1    
@<TRIPOS>SUBSTRUCTURE
     1 UNK         1 GROUP             0       ****    0 ROOT    
