@<TRIPOS>MOLECULE
ZINC35337667_4987
65   69    1
SMALL
USER_CHARGES


@<TRIPOS>ATOM
      1 C1          0.5299   51.2970   28.6697 C.3       1 UNK         0.0000 
      2 C2          0.2403   51.4315   27.1789 C.2       1 UNK         0.0000 
      3 C3          0.7468   52.3697   26.3417 C.2       1 UNK         0.0000 
      4 C4          0.2484   52.4892   24.8778 C.3       1 UNK         0.0000 
      5 H5         -0.2729   53.4458   24.8266 H         1 UNK         0.0000 
      6 N6         -0.8321   51.4985   24.6116 N.pl3     1 UNK         0.0000 
      7 C7         -1.6794   51.8535   23.4540 C.3       1 UNK         0.0000 
      8 C8         -2.2530   50.5862   22.7880 C.3       1 UNK         0.0000 
      9 C9         -3.0939   49.6998   23.7172 C.3       1 UNK         0.0000 
     10 S10        -2.1053   49.1019   25.1049 S.3       1 UNK         0.0000 
     11 C11        -1.1605   50.5070   25.4606 C.2       1 UNK         0.0000 
     12 N12        -0.6435   50.4971   26.6916 N.pl3     1 UNK         0.0000 
     13 C13         1.3187   52.5660   23.7768 C.ar      1 UNK         0.0000 
     14 C14         1.8187   53.8174   23.4118 C.ar      1 UNK         0.0000 
     15 C15         2.7910   53.9207   22.4266 C.ar      1 UNK         0.0000 
     16 C16         3.2400   52.7783   21.7474 C.ar      1 UNK         0.0000 
     17 C17         2.7046   51.5315   22.0811 C.ar      1 UNK         0.0000 
     18 C18         1.7673   51.4216   23.1101 C.ar      1 UNK         0.0000 
     19 N19         4.1677   52.8282   20.6867 N.am      1 UNK         0.0000 
     20 C20         5.0801   53.7934   20.4206 C.2       1 UNK         0.0000 
     21 O21         5.3311   54.7318   21.1779 O.2       1 UNK         0.0000 
     22 C22         5.8364   53.6514   19.0794 C.3       1 UNK         0.0000 
     23 C23         4.9100   53.7790   17.8527 C.3       1 UNK         0.0000 
     24 C24         5.7659   54.4164   16.7419 C.3       1 UNK         0.0000 
     25 C25         7.1573   54.6620   17.3434 C.3       1 UNK         0.0000 
     26 C26         6.9344   54.7091   18.8532 C.3       1 UNK         0.0000 
     27 C27         1.7074   53.3440   26.8452 C.2       1 UNK         0.0000 
     28 O28         1.4689   54.0849   27.8009 O.2       1 UNK         0.0000 
     29 N29         2.8915   53.2967   26.2084 N.am      1 UNK         0.0000 
     30 C30         4.1206   53.8441   26.5923 C.ar      1 UNK         0.0000 
     31 C31         5.0444   54.0979   25.5769 C.ar      1 UNK         0.0000 
     32 C32         6.3377   54.4953   25.8967 C.ar      1 UNK         0.0000 
     33 C33         6.7041   54.6198   27.2350 C.ar      1 UNK         0.0000 
     34 C34         5.7840   54.3907   28.2507 C.ar      1 UNK         0.0000 
     35 C35         4.4850   54.0094   27.9360 C.ar      1 UNK         0.0000 
     36 H36         0.2829   52.2169   29.2027 H         1 UNK         0.0000 
     37 H37        -0.0554   50.4969   29.1272 H         1 UNK         0.0000 
     38 H38         1.5866   51.0745   28.8321 H         1 UNK         0.0000 
     39 H39        -2.4792   52.5004   23.8217 H         1 UNK         0.0000 
     40 H40        -1.0971   52.4258   22.7286 H         1 UNK         0.0000 
     41 H41        -2.8649   50.8821   21.9350 H         1 UNK         0.0000 
     42 H42        -1.4350   49.9964   22.3687 H         1 UNK         0.0000 
     43 H43        -3.9333   50.2540   24.1373 H         1 UNK         0.0000 
     44 H44        -3.4992   48.8328   23.1941 H         1 UNK         0.0000 
     45 H45         1.4730   54.7165   23.9037 H         1 UNK         0.0000 
     46 H46         3.1463   54.9037   22.1658 H         1 UNK         0.0000 
     47 H47         3.0252   50.6389   21.5620 H         1 UNK         0.0000 
     48 H48         1.3810   50.4450   23.3719 H         1 UNK         0.0000 
     49 H49         4.1369   52.0546   20.0381 H         1 UNK         0.0000 
     50 H50         6.2799   52.6555   19.1055 H         1 UNK         0.0000 
     51 H51         4.0475   54.4201   18.0502 H         1 UNK         0.0000 
     52 H52         4.5251   52.8031   17.5436 H         1 UNK         0.0000 
     53 H53         5.3189   55.3591   16.4163 H         1 UNK         0.0000 
     54 H54         5.8264   53.7724   15.8610 H         1 UNK         0.0000 
     55 H55         7.6140   55.5782   16.9645 H         1 UNK         0.0000 
     56 H56         7.8250   53.8365   17.0904 H         1 UNK         0.0000 
     57 H57         7.8497   54.4958   19.4079 H         1 UNK         0.0000 
     58 H58         6.5987   55.7070   19.1416 H         1 UNK         0.0000 
     59 H59         2.9003   52.8133   25.3239 H         1 UNK         0.0000 
     60 H60         4.7779   53.9506   24.5388 H         1 UNK         0.0000 
     61 H61         7.0581   54.6715   25.1078 H         1 UNK         0.0000 
     62 H62         7.7133   54.8982   27.5019 H         1 UNK         0.0000 
     63 H63         6.0888   54.4967   29.2817 H         1 UNK         0.0000 
     64 H64         3.7957   53.7947   28.7375 H         1 UNK         0.0000 
     65 H65        -0.9409   49.7398   27.3046 H         1 UNK         0.0000 
@<TRIPOS>BOND
     1    1    2 1    
     2    1   36 1    
     3    1   37 1    
     4    1   38 1    
     5    2   12 1    
     6    2    3 2    
     7    3    4 1    
     8    3   27 1    
     9    4    5 1    
    10    4    6 1    
    11    4   13 1    
    12    6   11 1    
    13    6    7 1    
    14    7    8 1    
    15    7   39 1    
    16    7   40 1    
    17    8    9 1    
    18    8   41 1    
    19    8   42 1    
    20    9   10 1    
    21    9   43 1    
    22    9   44 1    
    23   10   11 1    
    24   11   12 2    
    25   12   65 1    
    26   13   18 ar   
    27   13   14 ar   
    28   14   15 ar   
    29   14   45 1    
    30   15   16 ar   
    31   15   46 1    
    32   16   17 ar   
    33   16   19 1    
    34   17   18 ar   
    35   17   47 1    
    36   18   48 1    
    37   19   20 am   BACKBONE|DICT|INTERRES
    38   19   49 1    
    39   20   21 2    
    40   20   22 1    
    41   22   26 1    
    42   22   23 1    
    43   22   50 1    
    44   23   24 1    
    45   23   51 1    
    46   23   52 1    
    47   24   25 1    
    48   24   53 1    
    49   24   54 1    
    50   25   26 1    
    51   25   55 1    
    52   25   56 1    
    53   26   57 1    
    54   26   58 1    
    55   27   28 2    
    56   27   29 am   BACKBONE|DICT|INTERRES
    57   29   30 1    
    58   29   59 1    
    59   30   35 ar   
    60   30   31 ar   
    61   31   32 ar   
    62   31   60 1    
    63   32   33 ar   
    64   32   61 1    
    65   33   34 ar   
    66   33   62 1    
    67   34   35 ar   
    68   34   63 1    
    69   35   64 1    
@<TRIPOS>SUBSTRUCTURE
     1 UNK         1 GROUP             0       ****    0 ROOT    
