@<TRIPOS>MOLECULE
ZINC41415040_1683
33   34    1
SMALL
USER_CHARGES


@<TRIPOS>ATOM
      1 C1          6.6293   54.7246   25.5937 C.3       1 UNK         0.0000 
      2 C2          5.6519   54.3623   24.4617 C.3       1 UNK         0.0000 
      3 C3          4.1853   54.7461   24.6939 C.3       1 UNK         0.0000 
      4 C4          3.3517   53.7368   25.4885 C.3       1 UNK         0.0000 
      5 C5          3.6642   53.6792   26.9915 C.3       1 UNK         0.0000 
      6 C6          5.1529   53.4637   27.3759 C.3       1 UNK         0.0000 
      7 C7          6.1399   54.6042   27.0525 C.3       1 UNK         0.0000 
      8 N8          3.1007   54.8965   27.6102 N.pl3     1 UNK         0.0000 
      9 S9          2.6019   54.8992   29.2817 S.o2      1 UNK         0.0000 
     10 O10         2.0209   56.2074   29.5959 O.2       1 UNK         0.0000 
     11 O11         3.6729   54.3036   30.0817 O.2       1 UNK         0.0000 
     12 C12         1.2430   53.7235   29.3086 C.2       1 UNK         0.0000 
     13 N13         0.7481   53.1286   28.2505 N.2       1 UNK         0.0000 
     14 N14        -0.2149   52.1845   28.5759 N.2       1 UNK         0.0000 
     15 C15        -0.4367   52.1396   29.8625 C.2       1 UNK         0.0000 
     16 S16         0.5047   53.2501   30.8032 S.3       1 UNK         0.0000 
     17 N17        -1.2956   51.2967   30.4817 N.pl3     1 UNK         0.0000 
     18 H18         7.5044   54.0941   25.4662 H         1 UNK         0.0000 
     19 H19         6.9850   55.7443   25.4375 H         1 UNK         0.0000 
     20 H20         5.7146   53.2967   24.2495 H         1 UNK         0.0000 
     21 H21         6.0031   54.8465   23.5489 H         1 UNK         0.0000 
     22 H22         3.7050   54.8967   23.7259 H         1 UNK         0.0000 
     23 H23         4.1552   55.6967   25.2218 H         1 UNK         0.0000 
     24 H24         3.5044   52.7608   25.0437 H         1 UNK         0.0000 
     25 H25         2.2888   53.9387   25.3427 H         1 UNK         0.0000 
     26 H26         3.1253   52.8197   27.3895 H         1 UNK         0.0000 
     27 H27         5.2171   53.1979   28.4306 H         1 UNK         0.0000 
     28 H28         5.5044   52.5583   26.8817 H         1 UNK         0.0000 
     29 H29         7.0175   54.4932   27.6917 H         1 UNK         0.0000 
     30 H30         5.7002   55.5497   27.3645 H         1 UNK         0.0000 
     31 H31         2.4735   55.4274   27.0036 H         1 UNK         0.0000 
     32 H32        -1.6958   50.4818   30.0219 H         1 UNK         0.0000 
     33 H33        -1.4363   51.3381   31.4995 H         1 UNK         0.0000 
@<TRIPOS>BOND
     1    1    7 1    
     2    1    2 1    
     3    1   18 1    
     4    1   19 1    
     5    2    3 1    
     6    2   20 1    
     7    2   21 1    
     8    3    4 1    
     9    3   22 1    
    10    3   23 1    
    11    4    5 1    
    12    4   24 1    
    13    4   25 1    
    14    5    6 1    
    15    5    8 1    
    16    5   26 1    
    17    6    7 1    
    18    6   27 1    
    19    6   28 1    
    20    7   29 1    
    21    7   30 1    
    22    8    9 1    
    23    8   31 1    
    24    9   10 2    
    25    9   11 2    
    26    9   12 1    
    27   12   16 1    
    28   12   13 2    
    29   13   14 1    
    30   14   15 2    
    31   15   16 1    
    32   15   17 1    
    33   17   32 1    
    34   17   33 1    
@<TRIPOS>SUBSTRUCTURE
     1 UNK         1 GROUP             0       ****    0 ROOT    
