@<TRIPOS>MOLECULE
ZINC00759051_1498
43   46    1
SMALL
USER_CHARGES


@<TRIPOS>ATOM
      1 C1          2.3041   50.1937   18.4585 C.3       1 UNK         0.0000 
      2 O2          2.1676   50.7931   19.7392 O.3       1 UNK         0.0000 
      3 C3          1.6957   50.0849   20.7930 C.2       1 UNK         0.0000 
      4 O4          1.3688   48.8960   20.7264 O.2       1 UNK         0.0000 
      5 C5          1.6125   50.8921   22.0557 C.ar      1 UNK         0.0000 
      6 C6          1.1669   50.2747   23.2311 C.ar      1 UNK         0.0000 
      7 C7          1.1034   50.9877   24.4234 C.ar      1 UNK         0.0000 
      8 C8          1.5041   52.3285   24.4749 C.ar      1 UNK         0.0000 
      9 C9          1.9145   52.9560   23.2939 C.ar      1 UNK         0.0000 
     10 C10         1.9708   52.2486   22.0968 C.ar      1 UNK         0.0000 
     11 C11         1.4964   53.1295   25.7899 C.3       1 UNK         0.0000 
     12 H12         1.1044   54.0965   25.4824 H         1 UNK         0.0000 
     13 C13         0.6235   52.5741   26.9384 C.ar      1 UNK         0.0000 
     14 C14        -0.6766   52.0096   27.0833 C.ar      1 UNK         0.0000 
     15 N15        -0.9236   51.6815   28.3445 N.2       1 UNK         0.0000 
     16 N16         0.1882   51.9518   29.0264 N.pl3     1 UNK         0.0000 
     17 H17         0.2787   51.7759   30.0161 H         1 UNK         0.0000 
     18 C18         1.1454   52.4664   28.2135 C.ar      1 UNK         0.0000 
     19 O19         2.3955   52.8007   28.6615 O.3       1 UNK         0.0000 
     20 C20         3.2067   53.2964   27.6859 C.2       1 UNK         0.0000 
     21 C21         2.8930   53.4645   26.3734 C.2       1 UNK         0.0000 
     22 C22         3.8770   54.0304   25.5056 C.1       1 UNK         0.0000 
     23 N23         4.6960   54.4968   24.8352 N.1       1 UNK         0.0000 
     24 N24         4.4119   53.5766   28.2719 N.pl3     1 UNK         0.0000 
     25 C25        -1.7259   51.7552   26.0379 C.ar      1 UNK         0.0000 
     26 C26        -2.6853   50.7447   26.2129 C.ar      1 UNK         0.0000 
     27 C27        -3.6405   50.5288   25.2171 C.ar      1 UNK         0.0000 
     28 N28        -3.6900   51.2549   24.0719 N.ar      1 UNK         0.0000 
     29 C29        -2.7597   52.2277   23.9061 C.ar      1 UNK         0.0000 
     30 C30        -1.7750   52.5045   24.8552 C.ar      1 UNK         0.0000 
     31 H31         2.7767   50.8958   17.7710 H         1 UNK         0.0000 
     32 H32         1.3304   49.9214   18.0490 H         1 UNK         0.0000 
     33 H33         2.9219   49.2956   18.4975 H         1 UNK         0.0000 
     34 H34         0.8798   49.2318   23.2405 H         1 UNK         0.0000 
     35 H35         0.7740   50.4700   25.3124 H         1 UNK         0.0000 
     36 H36         2.2096   53.9956   23.2994 H         1 UNK         0.0000 
     37 H37         2.3070   52.7710   21.2110 H         1 UNK         0.0000 
     38 H38         5.1576   53.9859   27.7277 H         1 UNK         0.0000 
     39 H39         4.6707   53.1173   29.1316 H         1 UNK         0.0000 
     40 H40        -2.6812   50.1227   27.0985 H         1 UNK         0.0000 
     41 H41        -4.3843   49.7533   25.3292 H         1 UNK         0.0000 
     42 H42        -2.8139   52.7931   22.9879 H         1 UNK         0.0000 
     43 H43        -1.0673   53.2962   24.6696 H         1 UNK         0.0000 
@<TRIPOS>BOND
     1    1    2 1    
     2    1   31 1    
     3    1   32 1    
     4    1   33 1    
     5    2    3 1    
     6    3    4 2    
     7    3    5 1    
     8    5   10 ar   
     9    5    6 ar   
    10    6    7 ar   
    11    6   34 1    
    12    7    8 ar   
    13    7   35 1    
    14    8    9 ar   
    15    8   11 1    
    16    9   10 ar   
    17    9   36 1    
    18   10   37 1    
    19   11   12 1    
    20   11   21 1    
    21   11   13 1    
    22   13   18 ar   
    23   13   14 ar   
    24   14   15 ar   
    25   14   25 1    
    26   15   16 ar   
    27   16   17 1    
    28   16   18 ar   
    29   18   19 1    
    30   19   20 1    
    31   20   21 2    
    32   20   24 1    
    33   21   22 1    
    34   22   23 3    
    35   24   38 1    
    36   24   39 1    
    37   25   30 ar   
    38   25   26 ar   
    39   26   27 ar   
    40   26   40 1    
    41   27   28 ar   
    42   27   41 1    
    43   28   29 ar   
    44   29   30 ar   
    45   29   42 1    
    46   30   43 1    
@<TRIPOS>SUBSTRUCTURE
     1 UNK         1 GROUP             0       ****    0 ROOT    
