@<TRIPOS>MOLECULE
ZINC08979937_57
50   53    1
SMALL
USER_CHARGES


@<TRIPOS>ATOM
      1 C1          2.6242   52.0967   31.4931 C.ar      1 UNK         0.0000 
      2 C2          1.2760   52.3923   31.6783 C.ar      1 UNK         0.0000 
      3 C3          0.6537   53.3139   30.8462 C.ar      1 UNK         0.0000 
      4 C4          1.3786   53.9528   29.8407 C.ar      1 UNK         0.0000 
      5 C5          2.7413   53.6492   29.6237 C.ar      1 UNK         0.0000 
      6 C6          3.3471   52.7066   30.4698 C.ar      1 UNK         0.0000 
      7 N7          3.4879   54.3365   28.6667 N.pl3     1 UNK         0.0000 
      8 C8          4.9508   54.4962   28.6950 C.3       1 UNK         0.0000 
      9 C9          5.7296   53.6947   27.6375 C.3       1 UNK         0.0000 
     10 N10         5.1582   53.9359   26.2953 N.am      1 UNK         0.0000 
     11 C11         3.7014   53.6969   26.2113 C.3       1 UNK         0.0000 
     12 C12         2.9854   54.5040   27.3018 C.3       1 UNK         0.0000 
     13 C13         5.9725   54.4116   25.2948 C.2       1 UNK         0.0000 
     14 O14         7.1044   54.8364   25.5442 O.2       1 UNK         0.0000 
     15 C15         5.5728   54.3676   23.8805 C.2       1 UNK         0.0000 
     16 C16         6.3183   54.8969   22.8165 C.2       1 UNK         0.0000 
     17 S17         5.5106   54.6042   21.2959 S.3       1 UNK         0.0000 
     18 C18         4.3170   53.7282   22.1758 C.2       1 UNK         0.0000 
     19 N19         4.5117   53.6968   23.4708 N.2       1 UNK         0.0000 
     20 N20         3.2856   53.1249   21.4711 N.am      1 UNK         0.0000 
     21 C21         2.1592   52.6044   22.0032 C.2       1 UNK         0.0000 
     22 O22         1.9246   52.5256   23.2111 O.2       1 UNK         0.0000 
     23 N23         1.3261   52.2056   21.0221 N.am      1 UNK         0.0000 
     24 C24         0.0120   51.7080   21.1047 C.ar      1 UNK         0.0000 
     25 C25        -0.5329   51.2342   19.9088 C.ar      1 UNK         0.0000 
     26 C26        -1.8327   50.7375   19.8775 C.ar      1 UNK         0.0000 
     27 C27        -2.5930   50.7177   21.0436 C.ar      1 UNK         0.0000 
     28 C28        -2.0651   51.1954   22.2405 C.ar      1 UNK         0.0000 
     29 C29        -0.7649   51.6918   22.2753 C.ar      1 UNK         0.0000 
     30 Cl30       -4.2025   50.0968   21.0045 Cl        1 UNK         0.0000 
     31 F31         0.7410   54.8954   29.1094 F         1 UNK         0.0000 
     32 H32         3.1105   51.3955   32.1560 H         1 UNK         0.0000 
     33 H33         0.7154   51.9207   32.4736 H         1 UNK         0.0000 
     34 H34        -0.3892   53.5500   31.0016 H         1 UNK         0.0000 
     35 H35         4.3867   52.4447   30.3477 H         1 UNK         0.0000 
     36 H36         5.1610   55.5452   28.5239 H         1 UNK         0.0000 
     37 H37         5.3474   54.2856   29.6815 H         1 UNK         0.0000 
     38 H38         6.7902   53.9419   27.7106 H         1 UNK         0.0000 
     39 H39         5.6416   52.6312   27.8623 H         1 UNK         0.0000 
     40 H40         3.4834   52.6372   26.3393 H         1 UNK         0.0000 
     41 H41         3.2244   54.0399   25.2997 H         1 UNK         0.0000 
     42 H42         1.9231   54.2737   27.2300 H         1 UNK         0.0000 
     43 H43         3.1039   55.5634   27.0792 H         1 UNK         0.0000 
     44 H44         7.2567   55.4340   22.8628 H         1 UNK         0.0000 
     45 H45         3.3525   53.1702   20.4656 H         1 UNK         0.0000 
     46 H46         1.6857   52.2722   20.0825 H         1 UNK         0.0000 
     47 H47         0.0482   51.2415   18.9973 H         1 UNK         0.0000 
     48 H48        -2.2461   50.3653   18.9514 H         1 UNK         0.0000 
     49 H49        -2.6596   51.1788   23.1422 H         1 UNK         0.0000 
     50 H50        -0.3915   52.0602   23.2171 H         1 UNK         0.0000 
@<TRIPOS>BOND
     1    1    6 ar   
     2    1    2 ar   
     3    1   32 1    
     4    2    3 ar   
     5    2   33 1    
     6    3    4 ar   
     7    3   34 1    
     8    4    5 ar   
     9    4   31 1    
    10    5    6 ar   
    11    5    7 1    
    12    6   35 1    
    13    7   12 1    
    14    7    8 1    
    15    8    9 1    
    16    8   36 1    
    17    8   37 1    
    18    9   10 1    
    19    9   38 1    
    20    9   39 1    
    21   10   11 1    
    22   10   13 am   BACKBONE|DICT|INTERRES
    23   11   12 1    
    24   11   40 1    
    25   11   41 1    
    26   12   42 1    
    27   12   43 1    
    28   13   14 2    
    29   13   15 1    
    30   15   19 1    
    31   15   16 2    
    32   16   17 1    
    33   16   44 1    
    34   17   18 1    
    35   18   19 2    
    36   18   20 am   BACKBONE|DICT|INTERRES
    37   20   21 am   BACKBONE|DICT|INTERRES
    38   20   45 1    
    39   21   22 2    
    40   21   23 am   BACKBONE|DICT|INTERRES
    41   23   24 1    
    42   23   46 1    
    43   24   29 ar   
    44   24   25 ar   
    45   25   26 ar   
    46   25   47 1    
    47   26   27 ar   
    48   26   48 1    
    49   27   28 ar   
    50   27   30 1    
    51   28   29 ar   
    52   28   49 1    
    53   29   50 1    
@<TRIPOS>SUBSTRUCTURE
     1 UNK         1 GROUP             0       ****    0 ROOT    
