@<TRIPOS>MOLECULE
ZINC17410574_1493
50   52    1
SMALL
USER_CHARGES


@<TRIPOS>ATOM
      1 C1          5.6049   53.4537   19.2411 C.3       1 UNK         0.0000 
      2 C2          4.6805   53.2837   20.4320 C.ar      1 UNK         0.0000 
      3 C3          4.6459   54.2477   21.4404 C.ar      1 UNK         0.0000 
      4 C4          3.7866   54.0970   22.5280 C.ar      1 UNK         0.0000 
      5 C5          2.9443   52.9851   22.6221 C.ar      1 UNK         0.0000 
      6 C6          3.0011   51.9957   21.6152 C.ar      1 UNK         0.0000 
      7 C7          3.8662   52.1540   20.5314 C.ar      1 UNK         0.0000 
      8 O8          2.2406   50.8566   21.6656 O.3       1 UNK         0.0000 
      9 N9          2.1777   52.8862   23.8018 N.am      1 UNK         0.0000 
     10 C10         0.8945   52.4834   23.9213 C.2       1 UNK         0.0000 
     11 O11         0.2058   52.1457   22.9570 O.2       1 UNK         0.0000 
     12 C12         0.2528   52.4632   25.3301 C.3       1 UNK         0.0000 
     13 H13        -0.5736   53.1663   25.2126 H         1 UNK         0.0000 
     14 C14        -0.3490   51.0640   25.6313 C.3       1 UNK         0.0000 
     15 C15        -1.0705   51.0969   27.0019 C.3       1 UNK         0.0000 
     16 C16        -0.1834   51.6610   28.1343 C.3       1 UNK         0.0000 
     17 N17         0.3893   52.9704   27.7286 N.pl3     1 UNK         0.0000 
     18 C18         1.1941   52.9136   26.4826 C.3       1 UNK         0.0000 
     19 S19         0.9561   54.0281   29.0348 S.o2      1 UNK         0.0000 
     20 O20         1.5656   55.2369   28.4717 O.2       1 UNK         0.0000 
     21 O21        -0.0952   54.1029   30.0520 O.2       1 UNK         0.0000 
     22 C22         2.2824   53.0642   29.7718 C.2       1 UNK         0.0000 
     23 C23         3.5833   52.8573   29.3036 C.2       1 UNK         0.0000 
     24 N24         4.2634   52.0969   30.1300 N.2       1 UNK         0.0000 
     25 O25         3.4098   51.7852   31.1869 O.3       1 UNK         0.0000 
     26 C26         2.2012   52.3489   30.9459 C.2       1 UNK         0.0000 
     27 C27         1.1178   52.1056   31.9729 C.3       1 UNK         0.0000 
     28 C28         4.2719   53.3662   28.0587 C.3       1 UNK         0.0000 
     29 H29         6.4371   54.1204   19.4680 H         1 UNK         0.0000 
     30 H30         5.0539   53.8475   18.3870 H         1 UNK         0.0000 
     31 H31         6.0373   52.4969   18.9483 H         1 UNK         0.0000 
     32 H32         5.2781   55.1216   21.3796 H         1 UNK         0.0000 
     33 H33         3.7794   54.8579   23.2956 H         1 UNK         0.0000 
     34 H34         3.8991   51.3974   19.7577 H         1 UNK         0.0000 
     35 H35         1.4797   50.9934   22.2438 H         1 UNK         0.0000 
     36 H36         2.6104   53.2701   24.6273 H         1 UNK         0.0000 
     37 H37        -1.0988   50.7700   24.8931 H         1 UNK         0.0000 
     38 H38         0.4345   50.3075   25.7201 H         1 UNK         0.0000 
     39 H39        -1.9757   51.7013   26.9256 H         1 UNK         0.0000 
     40 H40        -1.4131   50.0982   27.2692 H         1 UNK         0.0000 
     41 H41        -0.7560   51.7667   29.0569 H         1 UNK         0.0000 
     42 H42         0.6332   50.9497   28.2665 H         1 UNK         0.0000 
     43 H43         1.9474   52.1378   26.6322 H         1 UNK         0.0000 
     44 H44         1.6175   53.9022   26.3000 H         1 UNK         0.0000 
     45 H45         0.1644   51.8534   31.5084 H         1 UNK         0.0000 
     46 H46         1.3673   51.2991   32.6609 H         1 UNK         0.0000 
     47 H47         0.9343   52.9891   32.5816 H         1 UNK         0.0000 
     48 H48         3.6600   54.0648   27.4913 H         1 UNK         0.0000 
     49 H49         5.1977   53.8895   28.3006 H         1 UNK         0.0000 
     50 H50         4.5343   52.5461   27.3887 H         1 UNK         0.0000 
@<TRIPOS>BOND
     1    1    2 1    
     2    1   29 1    
     3    1   30 1    
     4    1   31 1    
     5    2    7 ar   
     6    2    3 ar   
     7    3    4 ar   
     8    3   32 1    
     9    4    5 ar   
    10    4   33 1    
    11    5    6 ar   
    12    5    9 1    
    13    6    7 ar   
    14    6    8 1    
    15    7   34 1    
    16    8   35 1    
    17    9   10 am   BACKBONE|DICT|INTERRES
    18    9   36 1    
    19   10   11 2    
    20   10   12 1    
    21   12   13 1    
    22   12   18 1    
    23   12   14 1    
    24   14   15 1    
    25   14   37 1    
    26   14   38 1    
    27   15   16 1    
    28   15   39 1    
    29   15   40 1    
    30   16   17 1    
    31   16   41 1    
    32   16   42 1    
    33   17   18 1    
    34   17   19 1    
    35   18   43 1    
    36   18   44 1    
    37   19   20 2    
    38   19   21 2    
    39   19   22 1    
    40   22   26 2    
    41   22   23 1    
    42   23   24 2    
    43   23   28 1    
    44   24   25 1    
    45   25   26 1    
    46   26   27 1    
    47   27   45 1    
    48   27   46 1    
    49   27   47 1    
    50   28   48 1    
    51   28   49 1    
    52   28   50 1    
@<TRIPOS>SUBSTRUCTURE
     1 UNK         1 GROUP             0       ****    0 ROOT    
