ZINC12521509_6095
                    3D
 Schrodinger Suite 2024-2.
 61 65  0  0  1  0            999 V2000
    3.3532   52.9621   16.6940 C   0  0  0  0  0  0
    3.8412   53.6175   17.9985 C   0  0  2  0  0  0
    3.4373   54.6322   18.0135 H   0  0  0  0  0  0
    5.3822   53.6531   18.0664 C   0  0  0  0  0  0
    5.8960   54.4908   19.2555 C   0  0  0  0  0  0
    5.1213   54.1122   20.5221 C   0  0  0  0  0  0
    3.9234   53.3942   20.4865 C   0  0  0  0  0  0
    3.2113   53.1141   22.0577 S   0  0  0  0  0  0
    4.5407   53.9572   22.8160 C   0  0  0  0  0  0
    5.4889   54.4429   21.8694 C   0  0  0  0  0  0
    6.5853   55.1325   22.4410 C   0  0  0  0  0  0
    6.7048   55.2928   23.7832 N   0  0  0  0  0  0
    5.7518   54.7471   24.5661 C   0  0  0  0  0  0
    4.6404   54.0959   24.1358 N   0  0  0  0  0  0
    6.0223   54.8514   26.3157 S   0  0  0  0  0  0
    4.6274   53.9302   27.0141 C   0  0  0  0  0  0
    4.5991   53.5996   28.5159 C   0  0  0  0  0  0
    3.2538   53.3267   29.2478 C   0  0  0  0  0  0
    3.3360   53.3661   30.4755 O   0  0  0  0  0  0
    2.0391   53.1978   28.6261 N   0  0  0  0  0  0
    1.8412   52.8078   27.2167 C   0  0  0  0  0  0
    0.9285   51.5718   27.1214 C   0  0  0  0  0  0
   -0.3292   51.6893   27.8553 N   0  0  0  0  0  0
   -0.0788   52.0412   29.2534 C   0  0  0  0  0  0
    0.7964   53.3022   29.4297 C   0  0  0  0  0  0
   -1.5848   51.7295   27.2601 C   0  0  0  0  0  0
   -2.7077   51.2482   27.9446 C   0  0  0  0  0  0
   -3.9735   51.2975   27.3630 C   0  0  0  0  0  0
   -4.1276   51.8461   26.0938 C   0  0  0  0  0  0
   -3.0228   52.3304   25.3964 C   0  0  0  0  0  0
   -1.7592   52.2664   25.9772 C   0  0  0  0  0  0
   -5.3543   51.9069   25.5300 F   0  0  0  0  0  0
    7.6161   55.6743   21.6791 N   0  0  0  0  0  0
    3.2852   52.8433   19.2153 C   0  0  0  0  0  0
    3.6891   51.9269   16.6151 H   0  0  0  0  0  0
    2.2658   52.9600   16.6406 H   0  0  0  0  0  0
    3.7247   53.4950   15.8168 H   0  0  0  0  0  0
    5.7839   52.6389   18.0827 H   0  0  0  0  0  0
    5.7783   54.0759   17.1427 H   0  0  0  0  0  0
    5.7716   55.5533   19.0421 H   0  0  0  0  0  0
    6.9657   54.3145   19.3675 H   0  0  0  0  0  0
    4.6238   52.9797   26.4802 H   0  0  0  0  0  0
    3.7277   54.4718   26.7186 H   0  0  0  0  0  0
    4.9319   54.5263   28.9873 H   0  0  0  0  0  0
    5.3974   52.9113   28.7959 H   0  0  0  0  0  0
    2.7431   52.4914   26.7173 H   0  0  0  0  0  0
    1.3969   53.6362   26.6632 H   0  0  0  0  0  0
    1.4359   50.7040   27.5479 H   0  0  0  0  0  0
    0.7458   51.3258   26.0742 H   0  0  0  0  0  0
   -1.0125   52.1760   29.7989 H   0  0  0  0  0  0
    0.4220   51.1775   29.6815 H   0  0  0  0  0  0
    0.2322   54.1721   29.0887 H   0  0  0  0  0  0
    0.9812   53.4414   30.4943 H   0  0  0  0  0  0
   -2.5932   50.7906   28.9185 H   0  0  0  0  0  0
   -4.8305   50.9089   27.8951 H   0  0  0  0  0  0
   -3.1513   52.7502   24.4108 H   0  0  0  0  0  0
   -0.9173   52.6573   25.4268 H   0  0  0  0  0  0
    7.6342   55.5427   20.6783 H   0  0  0  0  0  0
    8.4117   56.0571   22.1762 H   0  0  0  0  0  0
    3.5195   51.7796   19.1257 H   0  0  0  0  0  0
    2.1977   52.9210   19.2579 H   0  0  0  0  0  0
  1  2  1  0  0  0
  1 35  1  0  0  0
  1 36  1  0  0  0
  1 37  1  0  0  0
  2  3  1  0  0  0
  2 34  1  0  0  0
  2  4  1  0  0  0
  4  5  1  0  0  0
  4 38  1  0  0  0
  4 39  1  0  0  0
  5  6  1  0  0  0
  5 40  1  0  0  0
  5 41  1  0  0  0
  6 10  1  0  0  0
  6  7  2  0  0  0
  7  8  1  0  0  0
  7 34  1  0  0  0
  8  9  1  0  0  0
  9 14  2  0  0  0
  9 10  1  0  0  0
 10 11  2  0  0  0
 11 12  1  0  0  0
 11 33  1  0  0  0
 12 13  2  0  0  0
 13 14  1  0  0  0
 13 15  1  0  0  0
 15 16  1  0  0  0
 16 17  1  0  0  0
 16 42  1  0  0  0
 16 43  1  0  0  0
 17 18  1  0  0  0
 17 44  1  0  0  0
 17 45  1  0  0  0
 18 19  2  0  0  0
 18 20  1  0  0  0
 20 25  1  0  0  0
 20 21  1  0  0  0
 21 22  1  0  0  0
 21 46  1  0  0  0
 21 47  1  0  0  0
 22 23  1  0  0  0
 22 48  1  0  0  0
 22 49  1  0  0  0
 23 24  1  0  0  0
 23 26  1  0  0  0
 24 25  1  0  0  0
 24 50  1  0  0  0
 24 51  1  0  0  0
 25 52  1  0  0  0
 25 53  1  0  0  0
 26 31  2  0  0  0
 26 27  1  0  0  0
 27 28  2  0  0  0
 27 54  1  0  0  0
 28 29  1  0  0  0
 28 55  1  0  0  0
 29 30  2  0  0  0
 29 32  1  0  0  0
 30 31  1  0  0  0
 30 56  1  0  0  0
 31 57  1  0  0  0
 33 58  1  0  0  0
 33 59  1  0  0  0
 34 60  1  0  0  0
 34 61  1  0  0  0
M  END
> <i_i_glide_confnum>
113

> <i_i_glide_lignum>
6096

> <i_i_glide_posenum>
337

> <i_i_glide_rotatable_bonds>
6

> <i_m_Source_File_Index>
366

> <b_m_subgroup_collapsed>
0

> <r_i_docking_score>
-6.48027

> <r_i_glide_ecoul>
-6.96786

> <r_i_glide_eff_state_penalty>
0

> <r_i_glide_einternal>
5.40202

> <r_i_glide_emodel>
-71.9115

> <r_i_glide_energy>
-53.7133

> <r_i_glide_erotb>
0.516854

> <r_i_glide_esite>
-0.0418236

> <r_i_glide_evdw>
-46.7454

> <r_i_glide_gscore>
-6.48027

> <r_i_glide_hbond>
-0.457285

> <r_i_glide_ligand_efficiency>
-0.196372

> <r_i_glide_ligand_efficiency_ln>
-1.44118

> <r_i_glide_ligand_efficiency_sa>
-0.629869

> <r_i_glide_lipo>
-2.06855

> <r_i_glide_metal>
0

> <r_i_glide_rewards>
-1.04701

> <s_i_glide_gridfile>
wee1_glide-grid

> <s_m_Source_File>
wee1_decoys_glide_SP.sdf

> <s_m_Source_Path>
/Users/zhangxujun/Desktop

> <s_m_entry_id>
641

> <s_m_entry_name>
wee1_decoys_glide_SP.366

> <s_m_subgroup_title>
wee1_decoys_glide_SP

> <s_m_subgroupid>
wee1_decoys_glide_SP


$$$$
