@<TRIPOS>MOLECULE
ZINC12645905_3209
66   69    1
SMALL
USER_CHARGES


@<TRIPOS>ATOM
      1 C1         -0.4334   51.8241   29.8522 C.3       1 UNK         0.0000 
      2 C2          1.0609   52.1124   29.7539 C.ar      1 UNK         0.0000 
      3 C3          1.8087   52.2246   30.9321 C.ar      1 UNK         0.0000 
      4 C4          3.1838   52.4504   30.8819 C.ar      1 UNK         0.0000 
      5 C5          3.8234   52.5996   29.6566 C.ar      1 UNK         0.0000 
      6 C6          3.0879   52.5108   28.4789 C.ar      1 UNK         0.0000 
      7 C7          1.7046   52.2574   28.5109 C.ar      1 UNK         0.0000 
      8 N8          0.9365   52.0740   27.3432 N.am      1 UNK         0.0000 
      9 C9          1.1714   52.5137   26.0891 C.2       1 UNK         0.0000 
     10 O10         2.0708   53.3029   25.7969 O.2       1 UNK         0.0000 
     11 C11         0.2418   51.9921   25.0133 C.ar      1 UNK         0.0000 
     12 C12         0.2747   52.5546   23.7279 C.ar      1 UNK         0.0000 
     13 C13        -0.5502   52.0765   22.7135 C.ar      1 UNK         0.0000 
     14 C14        -1.4169   51.0247   22.9838 C.ar      1 UNK         0.0000 
     15 C15        -1.4751   50.4198   24.2424 C.ar      1 UNK         0.0000 
     16 C16        -0.6432   50.9260   25.2561 C.ar      1 UNK         0.0000 
     17 N17        -2.4067   49.3617   24.4293 N.am      1 UNK         0.0000 
     18 C18        -3.0538   48.7111   23.4110 C.2       1 UNK         0.0000 
     19 O19        -3.9394   47.8614   23.5647 O.2       1 UNK         0.0000 
     20 C20        -2.5411   49.1752   21.9936 C.3       1 UNK         0.0000 
     21 O21        -2.2506   50.5895   21.9763 O.3       1 UNK         0.0000 
     22 C22        -1.2562   48.3589   21.6809 C.3       1 UNK         0.0000 
     23 C23        -3.6745   48.9891   20.9621 C.3       1 UNK         0.0000 
     24 C24        -2.7576   48.9666   25.8208 C.3       1 UNK         0.0000 
     25 C25        -3.7100   49.9652   26.5122 C.2       1 UNK         0.0000 
     26 O26        -4.2598   50.8650   25.8725 O.2       1 UNK         0.0000 
     27 N27        -3.8549   49.7554   27.8361 N.am      1 UNK         0.0000 
     28 C28        -4.7121   50.3876   28.7614 C.ar      1 UNK         0.0000 
     29 C29        -4.4941   50.0958   30.1056 C.ar      1 UNK         0.0000 
     30 C30        -5.2917   50.6640   31.0942 C.ar      1 UNK         0.0000 
     31 C31        -6.3412   51.5350   30.7640 C.ar      1 UNK         0.0000 
     32 C32        -6.5639   51.8102   29.4057 C.ar      1 UNK         0.0000 
     33 C33        -5.7654   51.2441   28.4142 C.ar      1 UNK         0.0000 
     34 N34        -7.1248   52.1506   31.7801 N.pl3     1 UNK         0.0000 
     35 C35        -7.0980   51.6044   33.1413 C.3       1 UNK         0.0000 
     36 C36        -8.3280   52.9131   31.4316 C.3       1 UNK         0.0000 
     37 H37        -0.7830   51.7405   30.8815 H         1 UNK         0.0000 
     38 H38        -0.9931   52.6224   29.3673 H         1 UNK         0.0000 
     39 H39        -0.6773   50.8971   29.3340 H         1 UNK         0.0000 
     40 H40         1.3254   52.1100   31.8941 H         1 UNK         0.0000 
     41 H41         3.7558   52.4966   31.7972 H         1 UNK         0.0000 
     42 H42         4.8866   52.7712   29.6110 H         1 UNK         0.0000 
     43 H43         3.6213   52.6018   27.5442 H         1 UNK         0.0000 
     44 H44         0.0911   51.5456   27.4840 H         1 UNK         0.0000 
     45 H45         0.9505   53.3692   23.5028 H         1 UNK         0.0000 
     46 H46        -0.5147   52.5042   21.7257 H         1 UNK         0.0000 
     47 H47        -0.6712   50.4703   26.2339 H         1 UNK         0.0000 
     48 H48        -1.4810   47.2995   21.5422 H         1 UNK         0.0000 
     49 H49        -0.8024   48.7100   20.7540 H         1 UNK         0.0000 
     50 H50        -0.4953   48.4346   22.4593 H         1 UNK         0.0000 
     51 H51        -3.9768   47.9439   20.8685 H         1 UNK         0.0000 
     52 H52        -4.5587   49.5763   21.2175 H         1 UNK         0.0000 
     53 H53        -3.3477   49.3100   19.9715 H         1 UNK         0.0000 
     54 H54        -1.8514   48.8357   26.4105 H         1 UNK         0.0000 
     55 H55        -3.1993   47.9701   25.8600 H         1 UNK         0.0000 
     56 H56        -3.1842   49.1001   28.2356 H         1 UNK         0.0000 
     57 H57        -3.6962   49.4268   30.3983 H         1 UNK         0.0000 
     58 H58        -5.0570   50.4207   32.1189 H         1 UNK         0.0000 
     59 H59        -7.3607   52.4641   29.0889 H         1 UNK         0.0000 
     60 H60        -5.9897   51.4803   27.3868 H         1 UNK         0.0000 
     61 H61        -6.0954   51.6620   33.5712 H         1 UNK         0.0000 
     62 H62        -7.3926   50.5516   33.1295 H         1 UNK         0.0000 
     63 H63        -7.7802   52.1286   33.8152 H         1 UNK         0.0000 
     64 H64        -9.0826   52.2521   31.0014 H         1 UNK         0.0000 
     65 H65        -8.7687   53.4008   32.3033 H         1 UNK         0.0000 
     66 H66        -8.1089   53.6907   30.6982 H         1 UNK         0.0000 
@<TRIPOS>BOND
     1    1    2 1    
     2    1   37 1    
     3    1   38 1    
     4    1   39 1    
     5    2    7 ar   
     6    2    3 ar   
     7    3    4 ar   
     8    3   40 1    
     9    4    5 ar   
    10    4   41 1    
    11    5    6 ar   
    12    5   42 1    
    13    6    7 ar   
    14    6   43 1    
    15    7    8 1    
    16    8    9 am   BACKBONE|DICT|INTERRES
    17    8   44 1    
    18    9   10 2    
    19    9   11 1    
    20   11   16 ar   
    21   11   12 ar   
    22   12   13 ar   
    23   12   45 1    
    24   13   14 ar   
    25   13   46 1    
    26   14   21 1    
    27   14   15 ar   
    28   15   16 ar   
    29   15   17 1    
    30   16   47 1    
    31   17   18 am   BACKBONE|DICT|INTERRES
    32   17   24 1    
    33   18   19 2    
    34   18   20 1    
    35   20   21 1    
    36   20   22 1    
    37   20   23 1    
    38   22   48 1    
    39   22   49 1    
    40   22   50 1    
    41   23   51 1    
    42   23   52 1    
    43   23   53 1    
    44   24   25 1    
    45   24   54 1    
    46   24   55 1    
    47   25   26 2    
    48   25   27 am   BACKBONE|DICT|INTERRES
    49   27   28 1    
    50   27   56 1    
    51   28   33 ar   
    52   28   29 ar   
    53   29   30 ar   
    54   29   57 1    
    55   30   31 ar   
    56   30   58 1    
    57   31   32 ar   
    58   31   34 1    
    59   32   33 ar   
    60   32   59 1    
    61   33   60 1    
    62   34   35 1    
    63   34   36 1    
    64   35   61 1    
    65   35   62 1    
    66   35   63 1    
    67   36   64 1    
    68   36   65 1    
    69   36   66 1    
@<TRIPOS>SUBSTRUCTURE
     1 UNK         1 GROUP             0       ****    0 ROOT    
