ZINC59015504_4966
                    3D
 Schrodinger Suite 2024-2.
 41 43  0  0  1  0            999 V2000
   -3.5059   50.6596   28.6213 C   0  0  0  0  0  0
   -4.5639   50.3119   27.7832 C   0  0  0  0  0  0
   -4.4909   50.6009   26.4227 C   0  0  0  0  0  0
   -3.3657   51.2276   25.8944 C   0  0  0  0  0  0
   -2.3095   51.5712   26.7326 C   0  0  0  0  0  0
   -2.3679   51.2966   28.1086 C   0  0  0  0  0  0
   -1.2879   51.6964   29.0249 C   0  0  0  0  0  0
   -0.2805   52.3818   28.6593 N   0  0  0  0  0  0
    0.6285   52.7817   29.6418 N   0  0  0  0  0  0
    1.8446   53.3384   29.3226 C   0  0  0  0  0  0
    2.9820   52.7122   29.1724 N   0  0  0  0  0  0
    3.8095   53.6836   28.8001 C   0  0  0  0  0  0
    3.2887   54.8967   28.7244 N   0  0  0  0  0  0
    2.0189   54.6683   29.0684 N   0  0  0  0  0  0
    5.4892   53.2954   28.4245 S   0  0  0  0  0  0
    6.1888   54.8164   27.7112 C   0  0  0  0  0  0
    6.0654   54.9975   26.1935 C   0  0  0  0  0  0
    6.7052   55.9145   25.6818 O   0  0  0  0  0  0
    5.2688   54.1641   25.4896 N   0  0  0  0  0  0
    5.0847   54.1581   24.0946 C   0  0  0  0  0  0
    3.8324   53.7685   23.6094 C   0  0  0  0  0  0
    3.5990   53.7360   22.2359 C   0  0  0  0  0  0
    4.6145   54.0968   21.3523 C   0  0  0  0  0  0
    5.8609   54.4961   21.8280 C   0  0  0  0  0  0
    6.1081   54.4972   23.1963 C   0  0  0  0  0  0
    4.3067   54.0405   19.4752 Br  0  0  0  0  0  0
   -5.9366   50.1375   25.2750 Br  0  0  0  0  0  0
   -3.5707   50.4119   29.6732 H   0  0  0  0  0  0
   -5.4331   49.8132   28.1874 H   0  0  0  0  0  0
   -3.3109   51.4448   24.8367 H   0  0  0  0  0  0
   -1.4450   52.0596   26.3036 H   0  0  0  0  0  0
   -1.4216   51.3774   30.0577 H   0  0  0  0  0  0
    0.3861   52.4830   30.5792 H   0  0  0  0  0  0
    7.2585   54.7600   27.9152 H   0  0  0  0  0  0
    5.8412   55.6965   28.2412 H   0  0  0  0  0  0
    4.7053   53.5113   26.0177 H   0  0  0  0  0  0
    3.0404   53.4913   24.2908 H   0  0  0  0  0  0
    2.6340   53.4372   21.8529 H   0  0  0  0  0  0
    6.6419   54.7772   21.1366 H   0  0  0  0  0  0
    7.0939   54.7757   23.5418 H   0  0  0  0  0  0
    1.3055   55.3810   29.0989 H   0  0  0  0  0  0
  1  6  2  0  0  0
  1  2  1  0  0  0
  1 28  1  0  0  0
  2  3  2  0  0  0
  2 29  1  0  0  0
  3  4  1  0  0  0
  3 27  1  0  0  0
  4  5  2  0  0  0
  4 30  1  0  0  0
  5  6  1  0  0  0
  5 31  1  0  0  0
  6  7  1  0  0  0
  7  8  2  0  0  0
  7 32  1  0  0  0
  8  9  1  0  0  0
  9 10  1  0  0  0
  9 33  1  0  0  0
 10 14  1  0  0  0
 10 11  2  0  0  0
 11 12  1  0  0  0
 12 13  2  0  0  0
 12 15  1  0  0  0
 13 14  1  0  0  0
 14 41  1  0  0  0
 15 16  1  0  0  0
 16 17  1  0  0  0
 16 34  1  0  0  0
 16 35  1  0  0  0
 17 18  2  0  0  0
 17 19  1  0  0  0
 19 20  1  0  0  0
 19 36  1  0  0  0
 20 25  2  0  0  0
 20 21  1  0  0  0
 21 22  2  0  0  0
 21 37  1  0  0  0
 22 23  1  0  0  0
 22 38  1  0  0  0
 23 24  2  0  0  0
 23 26  1  0  0  0
 24 25  1  0  0  0
 24 39  1  0  0  0
 25 40  1  0  0  0
M  END
> <i_i_glide_confnum>
70

> <i_i_glide_lignum>
4967

> <i_i_glide_posenum>
68

> <i_i_glide_rotatable_bonds>
8

> <i_m_Source_File_Index>
4672

> <b_m_subgroup_collapsed>
0

> <r_i_docking_score>
-5.13682

> <r_i_glide_ecoul>
-3.75647

> <r_i_glide_eff_state_penalty>
0

> <r_i_glide_einternal>
4.48216

> <r_i_glide_emodel>
-60.9933

> <r_i_glide_energy>
-47.1178

> <r_i_glide_erotb>
0.472166

> <r_i_glide_esite>
-0.0720056

> <r_i_glide_evdw>
-43.3613

> <r_i_glide_gscore>
-5.13682

> <r_i_glide_hbond>
-0.32

> <r_i_glide_ligand_efficiency>
-0.190253

> <r_i_glide_ligand_efficiency_ln>
-1.19577

> <r_i_glide_ligand_efficiency_sa>
-0.570758

> <r_i_glide_lipo>
-1.58993

> <r_i_glide_metal>
0

> <r_i_glide_rewards>
-0.895518

> <s_i_glide_gridfile>
wee1_glide-grid

> <s_m_Source_File>
wee1_decoys_glide_SP.sdf

> <s_m_Source_Path>
/Users/zhangxujun/Desktop

> <s_m_entry_id>
4947

> <s_m_entry_name>
wee1_decoys_glide_SP.4672

> <s_m_subgroup_title>
wee1_decoys_glide_SP

> <s_m_subgroupid>
wee1_decoys_glide_SP


$$$$
