@<TRIPOS>MOLECULE
ZINC12820483_2244
57   59    1
SMALL
USER_CHARGES


@<TRIPOS>ATOM
      1 C1          5.7881   54.4924   27.8577 C.3       1 UNK         0.0000 
      2 C2          4.9611   54.3833   26.5879 C.2       1 UNK         0.0000 
      3 C3          5.4138   54.8069   25.3274 C.2       1 UNK         0.0000 
      4 S4          4.2462   54.4672   24.0839 S.3       1 UNK         0.0000 
      5 C5          3.1553   53.8055   25.2293 C.ar      1 UNK         0.0000 
      6 C6          3.6583   53.8321   26.5166 C.ar      1 UNK         0.0000 
      7 C7          2.8238   53.2988   27.5973 C.ar      1 UNK         0.0000 
      8 O8          3.1698   53.2527   28.7795 O.2       1 UNK         0.0000 
      9 N9          1.5635   52.8869   27.1339 N.pl3     1 UNK         0.0000 
     10 C10         1.2080   52.8000   25.7744 C.ar      1 UNK         0.0000 
     11 N11         1.9540   53.3046   24.8595 N.2       1 UNK         0.0000 
     12 S12        -0.3179   52.0622   25.1200 S.3       1 UNK         0.0000 
     13 C13        -0.3068   50.3999   25.8825 C.3       1 UNK         0.0000 
     14 C14        -0.8627   49.2729   24.9866 C.2       1 UNK         0.0000 
     15 O15        -0.8198   49.3543   23.7575 O.2       1 UNK         0.0000 
     16 N16        -1.3731   48.2385   25.6819 N.am      1 UNK         0.0000 
     17 C17        -2.0386   47.1405   25.2808 C.2       1 UNK         0.0000 
     18 O18        -2.2396   46.7711   24.1226 O.2       1 UNK         0.0000 
     19 N19        -2.4966   46.4975   26.3684 N.am      1 UNK         0.0000 
     20 C20        -3.6459   45.5965   26.4462 C.3       1 UNK         0.0000 
     21 C21        -4.7886   46.1488   27.3360 C.3       1 UNK         0.0000 
     22 C22        -4.3103   46.5062   28.7620 C.3       1 UNK         0.0000 
     23 C23        -5.5182   47.3366   26.6770 C.3       1 UNK         0.0000 
     24 C24         0.4935   52.7058   28.1685 C.3       1 UNK         0.0000 
     25 C25         0.7221   51.5925   29.2167 C.3       1 UNK         0.0000 
     26 C26         0.3293   52.1778   30.5831 C.3       1 UNK         0.0000 
     27 C27         0.5603   53.6790   30.4471 C.3       1 UNK         0.0000 
     28 C28         0.1823   53.9758   28.9962 C.3       1 UNK         0.0000 
     29 C29         6.7208   55.4615   24.9520 C.3       1 UNK         0.0000 
     30 H30         6.8030   54.8614   27.6989 H         1 UNK         0.0000 
     31 H31         5.3070   55.1402   28.5925 H         1 UNK         0.0000 
     32 H32         5.8795   53.5213   28.3483 H         1 UNK         0.0000 
     33 H33        -0.9037   50.4526   26.7932 H         1 UNK         0.0000 
     34 H34         0.7045   50.1234   26.1750 H         1 UNK         0.0000 
     35 H35        -1.3072   48.3312   26.6949 H         1 UNK         0.0000 
     36 H36        -2.0890   46.7586   27.2602 H         1 UNK         0.0000 
     37 H37        -3.2937   44.6567   26.8809 H         1 UNK         0.0000 
     38 H38        -4.0297   45.3640   25.4486 H         1 UNK         0.0000 
     39 H39        -5.5190   45.3444   27.4359 H         1 UNK         0.0000 
     40 H40        -3.6965   47.4074   28.7666 H         1 UNK         0.0000 
     41 H41        -3.6972   45.7107   29.1853 H         1 UNK         0.0000 
     42 H42        -5.1453   46.6803   29.4371 H         1 UNK         0.0000 
     43 H43        -4.8571   48.1945   26.5464 H         1 UNK         0.0000 
     44 H44        -5.9019   47.0653   25.6931 H         1 UNK         0.0000 
     45 H45        -6.3626   47.6628   27.2845 H         1 UNK         0.0000 
     46 H46        -0.4712   52.4904   27.7093 H         1 UNK         0.0000 
     47 H47         0.1039   50.7234   28.9863 H         1 UNK         0.0000 
     48 H48         1.7579   51.2574   29.2517 H         1 UNK         0.0000 
     49 H49        -0.7246   51.9733   30.7934 H         1 UNK         0.0000 
     50 H50         0.9079   51.7548   31.4067 H         1 UNK         0.0000 
     51 H51        -0.0334   54.2514   31.1601 H         1 UNK         0.0000 
     52 H52         1.6048   53.9256   30.6245 H         1 UNK         0.0000 
     53 H53         0.6253   54.8941   28.6068 H         1 UNK         0.0000 
     54 H54        -0.8941   54.0984   28.9990 H         1 UNK         0.0000 
     55 H55         7.1058   56.0874   25.7553 H         1 UNK         0.0000 
     56 H56         7.4775   54.7157   24.7104 H         1 UNK         0.0000 
     57 H57         6.6227   56.1047   24.0773 H         1 UNK         0.0000 
@<TRIPOS>BOND
     1    1    2 1    
     2    1   30 1    
     3    1   31 1    
     4    1   32 1    
     5    2    6 1    
     6    2    3 2    
     7    3    4 1    
     8    3   29 1    
     9    4    5 1    
    10    5   11 ar   
    11    5    6 ar   
    12    6    7 ar   
    13    7    8 2    
    14    7    9 ar   
    15    9   10 ar   
    16    9   24 1    
    17   10   11 ar   
    18   10   12 1    
    19   12   13 1    
    20   13   14 1    
    21   13   33 1    
    22   13   34 1    
    23   14   15 2    
    24   14   16 am   BACKBONE|DICT|INTERRES
    25   16   17 am   BACKBONE|DICT|INTERRES
    26   16   35 1    
    27   17   18 2    
    28   17   19 am   BACKBONE|DICT|INTERRES
    29   19   20 1    
    30   19   36 1    
    31   20   21 1    
    32   20   37 1    
    33   20   38 1    
    34   21   22 1    
    35   21   23 1    
    36   21   39 1    
    37   22   40 1    
    38   22   41 1    
    39   22   42 1    
    40   23   43 1    
    41   23   44 1    
    42   23   45 1    
    43   24   28 1    
    44   24   25 1    
    45   24   46 1    
    46   25   26 1    
    47   25   47 1    
    48   25   48 1    
    49   26   27 1    
    50   26   49 1    
    51   26   50 1    
    52   27   28 1    
    53   27   51 1    
    54   27   52 1    
    55   28   53 1    
    56   28   54 1    
    57   29   55 1    
    58   29   56 1    
    59   29   57 1    
@<TRIPOS>SUBSTRUCTURE
     1 UNK         1 GROUP             0       ****    0 ROOT    
