ZINC22195979_1179
                    3D
 Schrodinger Suite 2024-2.
 69 74  0  0  1  0            999 V2000
   -2.4955   50.7676   26.3491 C   0  0  0  0  0  0
   -1.3022   50.1390   25.6132 C   0  0  1  0  0  0
   -0.5513   49.8350   26.3484 H   0  0  0  0  0  0
   -1.8115   48.8713   24.8867 C   0  0  0  0  0  0
   -2.0707   48.8706   23.6824 O   0  0  0  0  0  0
   -1.9738   47.8061   25.6817 N   0  0  0  0  0  0
   -2.4486   46.4887   25.3071 C   0  0  0  0  0  0
   -3.3671   45.8015   26.2944 C   0  0  0  0  0  0
   -3.9150   46.3094   24.9776 C   0  0  0  0  0  0
   -0.5172   51.0748   24.6352 N   0  3  0  0  0  0
    0.7576   50.4054   24.0583 C   0  0  0  0  0  0
    1.6164   51.4100   23.2606 C   0  0  0  0  0  0
    1.9465   52.6393   24.0027 N   0  0  0  0  0  0
    0.7330   53.3068   24.4671 C   0  0  0  0  0  0
   -0.1674   52.4070   25.3404 C   0  0  0  0  0  0
    3.1053   53.3632   23.7369 C   0  0  0  0  0  0
    3.9602   53.8677   24.7661 C   0  0  0  0  0  0
    3.9231   53.8739   26.2129 C   0  0  0  0  0  0
    5.1429   54.3017   26.7514 C   0  0  0  0  0  0
    6.2760   54.8971   25.5683 S   0  0  0  0  0  0
    5.1951   54.4096   24.2882 C   0  0  0  0  0  0
    5.5549   54.4959   23.0083 N   0  0  0  0  0  0
    4.6516   54.0124   22.1178 C   0  0  0  0  0  0
    3.4571   53.4548   22.4248 N   0  0  0  0  0  0
    5.0051   54.0342   20.6839 C   0  0  0  0  0  0
    6.1612   54.4995   20.1638 C   0  0  0  0  0  0
    6.5648   54.4942   18.7453 C   0  0  0  0  0  0
    7.6164   55.3266   18.3455 C   0  0  0  0  0  0
    8.0427   55.3356   17.0198 C   0  0  0  0  0  0
    7.4173   54.5088   16.0898 C   0  0  0  0  0  0
    6.3685   53.6766   16.4742 C   0  0  0  0  0  0
    5.9407   53.6711   17.7985 C   0  0  0  0  0  0
    5.4946   54.2988   28.2336 C   0  0  0  0  0  0
    4.5522   53.3348   28.9760 C   0  0  0  0  0  0
    3.0857   53.6069   28.6056 C   0  0  0  0  0  0
    2.7840   53.3717   27.1053 C   0  0  0  0  0  0
   -3.0100   50.0299   26.9697 H   0  0  0  0  0  0
   -2.1558   51.5522   27.0253 H   0  0  0  0  0  0
   -3.2095   51.1913   25.6403 H   0  0  0  0  0  0
   -1.6829   47.8991   26.6560 H   0  0  0  0  0  0
   -1.7151   45.9007   24.7523 H   0  0  0  0  0  0
   -3.2555   44.7325   26.4816 H   0  0  0  0  0  0
   -3.6131   46.3353   27.2157 H   0  0  0  0  0  0
   -4.5559   47.1930   24.9764 H   0  0  0  0  0  0
   -4.1906   45.6055   24.1919 H   0  0  0  0  0  0
    1.3082   49.9538   24.8817 H   0  0  0  0  0  0
    0.4136   49.6189   23.3852 H   0  0  0  0  0  0
    1.0501   51.7420   22.3879 H   0  0  0  0  0  0
    2.5178   50.9259   22.8807 H   0  0  0  0  0  0
    0.9777   54.2598   24.9318 H   0  0  0  0  0  0
    0.1854   53.5647   23.5595 H   0  0  0  0  0  0
    0.2922   52.1577   26.2983 H   0  0  0  0  0  0
   -1.1268   52.8979   25.4978 H   0  0  0  0  0  0
    4.2576   53.6319   20.0140 H   0  0  0  0  0  0
    6.8980   54.9063   20.8424 H   0  0  0  0  0  0
    8.1158   55.9666   19.0590 H   0  0  0  0  0  0
    8.8579   55.9767   16.7154 H   0  0  0  0  0  0
    7.7513   54.5103   15.0625 H   0  0  0  0  0  0
    5.8924   53.0283   15.7526 H   0  0  0  0  0  0
    5.1421   52.9986   18.0790 H   0  0  0  0  0  0
    6.5333   54.0065   28.3953 H   0  0  0  0  0  0
    5.3924   55.2969   28.6522 H   0  0  0  0  0  0
    4.8088   52.3022   28.7325 H   0  0  0  0  0  0
    4.7022   53.4381   30.0539 H   0  0  0  0  0  0
    2.4252   52.9853   29.2116 H   0  0  0  0  0  0
    2.8409   54.6390   28.8648 H   0  0  0  0  0  0
    1.8531   53.8836   26.8733 H   0  0  0  0  0  0
    2.6144   52.3106   26.9273 H   0  0  0  0  0  0
   -1.0983   51.3021   23.8390 H   0  0  0  0  0  0
  1  2  1  0  0  0
  1 37  1  0  0  0
  1 38  1  0  0  0
  1 39  1  0  0  0
  2  3  1  0  0  0
  2  4  1  0  0  0
  2 10  1  0  0  0
  4  5  2  0  0  0
  4  6  1  0  0  0
  6  7  1  0  0  0
  6 40  1  0  0  0
  7  9  1  0  0  0
  7  8  1  0  0  0
  7 41  1  0  0  0
  8  9  1  0  0  0
  8 42  1  0  0  0
  8 43  1  0  0  0
  9 44  1  0  0  0
  9 45  1  0  0  0
 10 15  1  0  0  0
 10 11  1  0  0  0
 10 69  1  0  0  0
 11 12  1  0  0  0
 11 46  1  0  0  0
 11 47  1  0  0  0
 12 13  1  0  0  0
 12 48  1  0  0  0
 12 49  1  0  0  0
 13 14  1  0  0  0
 13 16  1  0  0  0
 14 15  1  0  0  0
 14 50  1  0  0  0
 14 51  1  0  0  0
 15 52  1  0  0  0
 15 53  1  0  0  0
 16 24  2  0  0  0
 16 17  1  0  0  0
 17 21  2  0  0  0
 17 18  1  0  0  0
 18 36  1  0  0  0
 18 19  2  0  0  0
 19 20  1  0  0  0
 19 33  1  0  0  0
 20 21  1  0  0  0
 21 22  1  0  0  0
 22 23  2  0  0  0
 23 24  1  0  0  0
 23 25  1  0  0  0
 25 26  2  0  0  0
 25 54  1  0  0  0
 26 27  1  0  0  0
 26 55  1  0  0  0
 27 32  2  0  0  0
 27 28  1  0  0  0
 28 29  2  0  0  0
 28 56  1  0  0  0
 29 30  1  0  0  0
 29 57  1  0  0  0
 30 31  2  0  0  0
 30 58  1  0  0  0
 31 32  1  0  0  0
 31 59  1  0  0  0
 32 60  1  0  0  0
 33 34  1  0  0  0
 33 61  1  0  0  0
 33 62  1  0  0  0
 34 35  1  0  0  0
 34 63  1  0  0  0
 34 64  1  0  0  0
 35 36  1  0  0  0
 35 65  1  0  0  0
 35 66  1  0  0  0
 36 67  1  0  0  0
 36 68  1  0  0  0
M  CHG  1  10   1
M  END
> <i_i_glide_confnum>
117

> <i_i_glide_lignum>
1180

> <i_i_glide_posenum>
174

> <i_i_glide_rotatable_bonds>
7

> <i_m_Source_File_Index>
1021

> <b_m_subgroup_collapsed>
0

> <r_i_docking_score>
-5.88511

> <r_i_glide_ecoul>
-3.05669

> <r_i_glide_eff_state_penalty>
0

> <r_i_glide_einternal>
1.73972

> <r_i_glide_emodel>
-58.8851

> <r_i_glide_energy>
-43.623

> <r_i_glide_erotb>
0.511013

> <r_i_glide_esite>
-0.154616

> <r_i_glide_evdw>
-40.5663

> <r_i_glide_gscore>
-5.88511

> <r_i_glide_hbond>
-0.16

> <r_i_glide_ligand_efficiency>
-0.168146

> <r_i_glide_ligand_efficiency_ln>
-1.29191

> <r_i_glide_ligand_efficiency_sa>
-0.550017

> <r_i_glide_lipo>
-2.97413

> <r_i_glide_metal>
0

> <r_i_glide_rewards>
-0.620567

> <s_i_glide_gridfile>
wee1_glide-grid

> <s_m_Source_File>
wee1_decoys_glide_SP.sdf

> <s_m_Source_Path>
/Users/zhangxujun/Desktop

> <s_m_entry_id>
1296

> <s_m_entry_name>
wee1_decoys_glide_SP.1021

> <s_m_subgroup_title>
wee1_decoys_glide_SP

> <s_m_subgroupid>
wee1_decoys_glide_SP


$$$$
