@<TRIPOS>MOLECULE
ZINC39669150_1288
72   75    1
SMALL
USER_CHARGES


@<TRIPOS>ATOM
      1 C1          4.1956   52.8938   18.8374 C.3       1 UNK         0.0000 
      2 C2          2.7303   52.8324   19.2851 C.3       1 UNK         0.0000 
      3 C3          2.1333   51.4089   19.3485 C.3       1 UNK         0.0000 
      4 C4          0.6840   51.3706   19.9007 C.3       1 UNK         0.0000 
      5 C5          0.5213   51.1634   21.4434 C.3       1 UNK         0.0000 
      6 H6          0.7684   50.1189   21.6334 H         1 UNK         0.0000 
      7 C7          1.4917   52.0415   22.2727 C.3       1 UNK         0.0000 
      8 C8         -0.9349   51.4034   21.9412 C.2       1 UNK         0.0000 
      9 O9         -1.6991   52.0987   21.2675 O.2       1 UNK         0.0000 
     10 N10        -1.3470   50.8715   23.1194 N.am      1 UNK         0.0000 
     11 C11        -0.6028   49.9102   23.9354 C.3       1 UNK         0.0000 
     12 C12        -1.1299   50.1641   25.3589 C.3       1 UNK         0.0000 
     13 H13        -1.0994   49.2266   25.9112 H         1 UNK         0.0000 
     14 C14        -2.6055   50.6438   25.1674 C.3       1 UNK         0.0000 
     15 C15        -2.5389   51.3827   23.8115 C.3       1 UNK         0.0000 
     16 C16        -3.2781   51.5048   26.2710 C.3       1 UNK         0.0000 
     17 C17        -3.3152   50.7579   27.6204 C.3       1 UNK         0.0000 
     18 N18        -4.0898   49.4281   27.4551 N.4       1 UNK         0.0000 
     19 C19        -3.6938   48.5634   26.2323 C.3       1 UNK         0.0000 
     20 C20        -3.5929   49.4557   24.9760 C.3       1 UNK         0.0000 
     21 C21        -0.2156   51.1567   26.1190 C.2       1 UNK         0.0000 
     22 O22         0.1409   52.2141   25.5977 O.2       1 UNK         0.0000 
     23 N23         0.2839   50.7086   27.2798 N.am      1 UNK         0.0000 
     24 C24         1.4589   51.2400   27.9699 C.3       1 UNK         0.0000 
     25 C25         1.3583   52.6537   28.5701 C.3       1 UNK         0.0000 
     26 H26         0.4862   53.1900   28.1924 H         1 UNK         0.0000 
     27 C27         2.6333   53.4218   28.1766 C.ar      1 UNK         0.0000 
     28 C28         2.7730   53.9886   26.9044 C.ar      1 UNK         0.0000 
     29 C29         3.9927   54.5067   26.4804 C.ar      1 UNK         0.0000 
     30 C30         5.0834   54.4957   27.3412 C.ar      1 UNK         0.0000 
     31 C31         4.9425   53.9913   28.6302 C.ar      1 UNK         0.0000 
     32 C32         3.7270   53.4403   29.0566 C.ar      1 UNK         0.0000 
     33 C33         3.5358   52.8338   30.4334 C.3       1 UNK         0.0000 
     34 C34         2.0769   53.0778   30.8753 C.3       1 UNK         0.0000 
     35 O35         1.1729   52.4536   29.9778 O.3       1 UNK         0.0000 
     36 H36         4.5594   53.9200   18.8341 H         1 UNK         0.0000 
     37 H37         4.3194   52.4975   17.8281 H         1 UNK         0.0000 
     38 H38         4.8350   52.3186   19.5097 H         1 UNK         0.0000 
     39 H39         2.6713   53.3010   20.2649 H         1 UNK         0.0000 
     40 H40         2.1314   53.4432   18.6073 H         1 UNK         0.0000 
     41 H41         2.1374   50.9978   18.3360 H         1 UNK         0.0000 
     42 H42         2.7799   50.7464   19.9265 H         1 UNK         0.0000 
     43 H43         0.1809   52.2843   19.5761 H         1 UNK         0.0000 
     44 H44         0.1542   50.5590   19.3982 H         1 UNK         0.0000 
     45 H45         1.3911   51.8855   23.3454 H         1 UNK         0.0000 
     46 H46         2.5338   51.8222   22.0390 H         1 UNK         0.0000 
     47 H47         1.3181   53.1030   22.0937 H         1 UNK         0.0000 
     48 H48        -0.8925   48.8936   23.6632 H         1 UNK         0.0000 
     49 H49         0.4848   49.9838   23.9047 H         1 UNK         0.0000 
     50 H50        -2.3223   52.4293   24.0346 H         1 UNK         0.0000 
     51 H51        -3.4730   51.3746   23.2484 H         1 UNK         0.0000 
     52 H52        -2.7154   52.4284   26.4092 H         1 UNK         0.0000 
     53 H53        -4.2770   51.8306   25.9756 H         1 UNK         0.0000 
     54 H54        -2.3258   50.4963   27.9947 H         1 UNK         0.0000 
     55 H55        -3.8347   51.3162   28.4002 H         1 UNK         0.0000 
     56 H56        -3.9271   48.8795   28.2917 H         1 UNK         0.0000 
     57 H57        -2.7628   48.0564   26.4812 H         1 UNK         0.0000 
     58 H58        -4.4687   47.8020   26.1368 H         1 UNK         0.0000 
     59 H59        -4.5826   49.8088   24.6782 H         1 UNK         0.0000 
     60 H60        -3.2633   48.8279   24.1459 H         1 UNK         0.0000 
     61 H61        -0.1220   49.8660   27.6751 H         1 UNK         0.0000 
     62 H62         1.7688   50.5011   28.7161 H         1 UNK         0.0000 
     63 H63         2.2921   51.2661   27.2819 H         1 UNK         0.0000 
     64 H64         1.9440   53.9723   26.2120 H         1 UNK         0.0000 
     65 H65         4.0901   54.9078   25.4835 H         1 UNK         0.0000 
     66 H66         6.0324   54.9003   27.0201 H         1 UNK         0.0000 
     67 H67         5.8018   54.0099   29.2809 H         1 UNK         0.0000 
     68 H68         4.2569   53.2487   31.1389 H         1 UNK         0.0000 
     69 H69         3.7295   51.7628   30.3774 H         1 UNK         0.0000 
     70 H70         1.8551   54.1465   30.8829 H         1 UNK         0.0000 
     71 H71         1.9048   52.6776   31.8754 H         1 UNK         0.0000 
     72 H72        -5.0789   49.6270   27.4144 H         1 UNK         0.0000 
@<TRIPOS>BOND
     1    1    2 1    
     2    1   36 1    
     3    1   37 1    
     4    1   38 1    
     5    2    3 1    
     6    2   39 1    
     7    2   40 1    
     8    3    4 1    
     9    3   41 1    
    10    3   42 1    
    11    4    5 1    
    12    4   43 1    
    13    4   44 1    
    14    5    6 1    
    15    5    7 1    
    16    5    8 1    
    17    7   45 1    
    18    7   46 1    
    19    7   47 1    
    20    8    9 2    
    21    8   10 am   BACKBONE|DICT|INTERRES
    22   10   15 1    
    23   10   11 1    
    24   11   12 1    
    25   11   48 1    
    26   11   49 1    
    27   12   13 1    
    28   12   14 1    
    29   12   21 1    
    30   14   20 1    
    31   14   15 1    
    32   14   16 1    
    33   15   50 1    
    34   15   51 1    
    35   16   17 1    
    36   16   52 1    
    37   16   53 1    
    38   17   18 1    
    39   17   54 1    
    40   17   55 1    
    41   18   19 1    
    42   18   56 1    
    43   18   72 1    
    44   19   20 1    
    45   19   57 1    
    46   19   58 1    
    47   20   59 1    
    48   20   60 1    
    49   21   22 2    
    50   21   23 am   BACKBONE|DICT|INTERRES
    51   23   24 1    
    52   23   61 1    
    53   24   25 1    
    54   24   62 1    
    55   24   63 1    
    56   25   26 1    
    57   25   35 1    
    58   25   27 1    
    59   27   32 ar   
    60   27   28 ar   
    61   28   29 ar   
    62   28   64 1    
    63   29   30 ar   
    64   29   65 1    
    65   30   31 ar   
    66   30   66 1    
    67   31   32 ar   
    68   31   67 1    
    69   32   33 1    
    70   33   34 1    
    71   33   68 1    
    72   33   69 1    
    73   34   35 1    
    74   34   70 1    
    75   34   71 1    
@<TRIPOS>SUBSTRUCTURE
     1 UNK         1 GROUP             0       ****    0 ROOT    
