@<TRIPOS>MOLECULE
ZINC48503243_3589
49   52    1
SMALL
USER_CHARGES


@<TRIPOS>ATOM
      1 C1          1.4295   53.1069   22.2044 C.3       1 UNK         0.0000 
      2 N2          2.5190   53.3378   23.1251 N.am      1 UNK         0.0000 
      3 C3          3.6084   54.0495   22.8019 C.2       1 UNK         0.0000 
      4 O4          3.8485   54.4943   21.6806 O.2       1 UNK         0.0000 
      5 C5          4.5800   54.2431   23.9202 C.ar      1 UNK         0.0000 
      6 C6          5.9488   54.1584   23.6565 C.ar      1 UNK         0.0000 
      7 C7          6.8605   54.2660   24.6965 C.ar      1 UNK         0.0000 
      8 C8          6.4186   54.4713   25.9995 C.ar      1 UNK         0.0000 
      9 C9          5.0645   54.5956   26.2699 C.ar      1 UNK         0.0000 
     10 C10         4.1393   54.4976   25.2267 C.ar      1 UNK         0.0000 
     11 N11         4.6975   54.7314   27.6182 N.am      1 UNK         0.0000 
     12 C12         3.8990   53.9248   28.3267 C.2       1 UNK         0.0000 
     13 O13         3.7925   54.0522   29.5461 O.2       1 UNK         0.0000 
     14 N14         3.1900   53.0473   27.5969 N.am      1 UNK         0.0000 
     15 C15         1.7791   52.7473   27.7621 C.3       1 UNK         0.0000 
     16 C16         1.6184   51.5662   28.7686 C.3       1 UNK         0.0000 
     17 C17         0.1270   51.2397   28.9459 C.3       1 UNK         0.0000 
     18 C18        -0.4204   50.7670   27.5725 C.3       1 UNK         0.0000 
     19 C19        -0.3660   51.9273   26.5703 C.3       1 UNK         0.0000 
     20 C20         1.0989   52.4189   26.3902 C.3       1 UNK         0.0000 
     21 C21        -1.2530   53.0051   27.2142 C.3       1 UNK         0.0000 
     22 C22        -0.4956   53.5859   28.4761 C.3       1 UNK         0.0000 
     23 C23        -0.5971   52.4665   29.5122 C.3       1 UNK         0.0000 
     24 C24         0.9681   53.9643   28.2732 C.3       1 UNK         0.0000 
     25 Cl25        7.5230   54.4967   27.3090 Cl        1 UNK         0.0000 
     26 H26         0.5987   52.6023   22.6981 H         1 UNK         0.0000 
     27 H27         1.7489   52.5218   21.3405 H         1 UNK         0.0000 
     28 H28         1.1044   54.0858   21.8716 H         1 UNK         0.0000 
     29 H29         2.4557   52.9184   24.0392 H         1 UNK         0.0000 
     30 H30         6.3118   53.9745   22.6542 H         1 UNK         0.0000 
     31 H31         7.9045   54.1428   24.4817 H         1 UNK         0.0000 
     32 H32         3.0854   54.6008   25.4397 H         1 UNK         0.0000 
     33 H33         5.2964   55.3260   28.1726 H         1 UNK         0.0000 
     34 H34         3.6078   52.7214   26.7389 H         1 UNK         0.0000 
     35 H35         2.1582   50.6858   28.4176 H         1 UNK         0.0000 
     36 H36         2.0579   51.8241   29.7335 H         1 UNK         0.0000 
     37 H37        -0.0955   50.4967   29.6815 H         1 UNK         0.0000 
     38 H38         0.1243   49.8992   27.1989 H         1 UNK         0.0000 
     39 H39        -1.4597   50.4606   27.6818 H         1 UNK         0.0000 
     40 H40        -0.7868   51.6142   25.6137 H         1 UNK         0.0000 
     41 H41         1.0966   53.3013   25.7488 H         1 UNK         0.0000 
     42 H42         1.6693   51.6967   25.8268 H         1 UNK         0.0000 
     43 H43        -1.6957   53.6967   26.5091 H         1 UNK         0.0000 
     44 H44        -2.1756   52.4967   27.5137 H         1 UNK         0.0000 
     45 H45        -0.8957   54.4946   28.8947 H         1 UNK         0.0000 
     46 H46        -1.6374   52.1939   29.6817 H         1 UNK         0.0000 
     47 H47        -0.1838   52.7659   30.4774 H         1 UNK         0.0000 
     48 H48         1.3443   54.3146   29.2351 H         1 UNK         0.0000 
     49 H49         1.0737   54.8176   27.6031 H         1 UNK         0.0000 
@<TRIPOS>BOND
     1    1    2 1    
     2    1   26 1    
     3    1   27 1    
     4    1   28 1    
     5    2    3 am   BACKBONE|DICT|INTERRES
     6    2   29 1    
     7    3    4 2    
     8    3    5 1    
     9    5   10 ar   
    10    5    6 ar   
    11    6    7 ar   
    12    6   30 1    
    13    7    8 ar   
    14    7   31 1    
    15    8    9 ar   
    16    8   25 1    
    17    9   10 ar   
    18    9   11 1    
    19   10   32 1    
    20   11   12 am   BACKBONE|DICT|INTERRES
    21   11   33 1    
    22   12   13 2    
    23   12   14 am   BACKBONE|DICT|INTERRES
    24   14   15 1    
    25   14   34 1    
    26   15   20 1    
    27   15   24 1    
    28   15   16 1    
    29   16   17 1    
    30   16   35 1    
    31   16   36 1    
    32   17   23 1    
    33   17   18 1    
    34   17   37 1    
    35   18   19 1    
    36   18   38 1    
    37   18   39 1    
    38   19   20 1    
    39   19   21 1    
    40   19   40 1    
    41   20   41 1    
    42   20   42 1    
    43   21   22 1    
    44   21   43 1    
    45   21   44 1    
    46   22   23 1    
    47   22   24 1    
    48   22   45 1    
    49   23   46 1    
    50   23   47 1    
    51   24   48 1    
    52   24   49 1    
@<TRIPOS>SUBSTRUCTURE
     1 UNK         1 GROUP             0       ****    0 ROOT    
