@<TRIPOS>MOLECULE
ZINC04305439_1483
49   52    1
SMALL
USER_CHARGES


@<TRIPOS>ATOM
      1 C1         -0.4776   49.9181   18.8616 C.3       1 UNK         0.0000 
      2 C2          1.0388   49.9583   19.1406 C.3       1 UNK         0.0000 
      3 C3          1.7095   51.3418   19.4245 C.3       1 UNK         0.0000 
      4 C4          1.3301   51.9041   20.8002 C.2       1 UNK         0.0000 
      5 O5          0.1800   52.0959   21.2066 O.2       1 UNK         0.0000 
      6 N6          2.4886   52.1389   21.4640 N.am      1 UNK         0.0000 
      7 C7          3.5659   51.5912   20.8381 C.2       1 UNK         0.0000 
      8 O8          4.6930   51.4053   21.2945 O.2       1 UNK         0.0000 
      9 N9          3.1053   51.0996   19.6833 N.am      1 UNK         0.0000 
     10 C10         2.4711   52.6080   22.8828 C.3       1 UNK         0.0000 
     11 C11         3.5037   53.7297   23.2105 C.2       1 UNK         0.0000 
     12 O12         4.0054   54.3342   22.2574 O.2       1 UNK         0.0000 
     13 N13         3.8048   54.0817   24.5089 N.am      1 UNK         0.0000 
     14 C14         5.0498   54.8928   24.7051 C.3       1 UNK         0.0000 
     15 C15         5.9355   54.4979   25.9116 C.2       1 UNK         0.0000 
     16 O16         7.1040   54.8490   26.0573 O.2       1 UNK         0.0000 
     17 N17         5.2622   53.8291   26.8612 N.am      1 UNK         0.0000 
     18 C18         3.9004   53.5246   26.8703 C.ar      1 UNK         0.0000 
     19 C19         3.1410   53.6047   25.6826 C.ar      1 UNK         0.0000 
     20 C20         1.7648   53.3362   25.7724 C.ar      1 UNK         0.0000 
     21 C21         1.1909   52.8984   26.9685 C.ar      1 UNK         0.0000 
     22 C22         1.9672   52.7807   28.1174 C.ar      1 UNK         0.0000 
     23 C23         3.3191   53.1096   28.0716 C.ar      1 UNK         0.0000 
     24 C24         1.4950   52.3910   18.2971 C.ar      1 UNK         0.0000 
     25 C25         2.5579   52.8313   17.4843 C.ar      1 UNK         0.0000 
     26 C26         2.3524   53.7982   16.5052 C.ar      1 UNK         0.0000 
     27 C27         1.0792   54.3349   16.3186 C.ar      1 UNK         0.0000 
     28 C28         0.0126   53.9075   17.1013 C.ar      1 UNK         0.0000 
     29 C29         0.2216   52.9432   18.0839 C.ar      1 UNK         0.0000 
     30 H30        -0.8259   48.8863   18.7854 H         1 UNK         0.0000 
     31 H31        -1.0575   50.3960   19.6521 H         1 UNK         0.0000 
     32 H32        -0.7240   50.4046   17.9169 H         1 UNK         0.0000 
     33 H33         1.5480   49.4998   18.2890 H         1 UNK         0.0000 
     34 H34         1.2408   49.2761   19.9703 H         1 UNK         0.0000 
     35 H35         3.7348   50.8506   18.9235 H         1 UNK         0.0000 
     36 H36         2.6275   51.7559   23.5446 H         1 UNK         0.0000 
     37 H37         1.4817   53.0176   23.0736 H         1 UNK         0.0000 
     38 H38         4.7654   55.9122   24.9178 H         1 UNK         0.0000 
     39 H39         5.6826   54.9379   23.8191 H         1 UNK         0.0000 
     40 H40         5.8137   53.6516   27.6837 H         1 UNK         0.0000 
     41 H41         1.0980   53.4871   24.9415 H         1 UNK         0.0000 
     42 H42         0.1338   52.6808   27.0111 H         1 UNK         0.0000 
     43 H43         1.5170   52.4506   29.0445 H         1 UNK         0.0000 
     44 H44         3.9132   53.0298   28.9689 H         1 UNK         0.0000 
     45 H45         3.5576   52.4291   17.5971 H         1 UNK         0.0000 
     46 H46         3.1769   54.1375   15.8946 H         1 UNK         0.0000 
     47 H47         0.9229   55.0883   15.5602 H         1 UNK         0.0000 
     48 H48        -0.9707   54.3297   16.9563 H         1 UNK         0.0000 
     49 H49        -0.6142   52.6438   18.7012 H         1 UNK         0.0000 
@<TRIPOS>BOND
     1    1    2 1    
     2    1   30 1    
     3    1   31 1    
     4    1   32 1    
     5    2    3 1    
     6    2   33 1    
     7    2   34 1    
     8    3    9 1    
     9    3    4 1    
    10    3   24 1    
    11    4    5 2    
    12    4    6 am   BACKBONE|DICT|INTERRES
    13    6    7 am   BACKBONE|DICT|INTERRES
    14    6   10 1    
    15    7    8 2    
    16    7    9 am   BACKBONE|DICT|INTERRES
    17    9   35 1    
    18   10   11 1    
    19   10   36 1    
    20   10   37 1    
    21   11   12 2    
    22   11   13 am   BACKBONE|DICT|INTERRES
    23   13   19 1    
    24   13   14 1    
    25   14   15 1    
    26   14   38 1    
    27   14   39 1    
    28   15   16 2    
    29   15   17 am   BACKBONE|DICT|INTERRES
    30   17   18 1    
    31   17   40 1    
    32   18   23 ar   
    33   18   19 ar   
    34   19   20 ar   
    35   20   21 ar   
    36   20   41 1    
    37   21   22 ar   
    38   21   42 1    
    39   22   23 ar   
    40   22   43 1    
    41   23   44 1    
    42   24   29 ar   
    43   24   25 ar   
    44   25   26 ar   
    45   25   45 1    
    46   26   27 ar   
    47   26   46 1    
    48   27   28 ar   
    49   27   47 1    
    50   28   29 ar   
    51   28   48 1    
    52   29   49 1    
@<TRIPOS>SUBSTRUCTURE
     1 UNK         1 GROUP             0       ****    0 ROOT    
