@<TRIPOS>MOLECULE
ZINC36038924_5446
68   72    1
SMALL
USER_CHARGES


@<TRIPOS>ATOM
      1 C1          7.0338   57.6993   18.9192 C.3       1 UNK         0.0000 
      2 C2          6.4943   56.5018   19.6790 C.ar      1 UNK         0.0000 
      3 C3          5.6546   55.5735   19.0642 C.ar      1 UNK         0.0000 
      4 C4          5.1701   54.5055   19.8411 C.ar      1 UNK         0.0000 
      5 N5          5.4791   54.4330   21.1705 N.ar      1 UNK         0.0000 
      6 C6          6.3175   55.3715   21.6814 C.ar      1 UNK         0.0000 
      7 N7          6.8492   56.4085   20.9844 N.ar      1 UNK         0.0000 
      8 S8          6.7043   55.2958   23.4115 S.3       1 UNK         0.0000 
      9 C9          5.3892   54.3064   24.1943 C.3       1 UNK         0.0000 
     10 C10         5.4599   54.2718   25.7073 C.2       1 UNK         0.0000 
     11 C11         6.4790   54.0697   26.6197 C.2       1 UNK         0.0000 
     12 C12         5.9238   54.0987   27.8963 C.2       1 UNK         0.0000 
     13 C13         4.5701   54.3376   27.7257 C.2       1 UNK         0.0000 
     14 O14         4.2960   54.4451   26.3897 O.3       1 UNK         0.0000 
     15 C15         3.5164   54.4696   28.6958 C.2       1 UNK         0.0000 
     16 O16         3.7070   54.2475   29.8932 O.2       1 UNK         0.0000 
     17 N17         2.3472   54.8752   28.1735 N.am      1 UNK         0.0000 
     18 C18         1.1062   55.1740   28.8862 C.3       1 UNK         0.0000 
     19 C19         0.4607   53.9334   29.5343 C.3       1 UNK         0.0000 
     20 C20         1.2424   56.3576   29.8711 C.3       1 UNK         0.0000 
     21 N21         4.3100   53.5339   19.3141 N.pl3     1 UNK         0.0000 
     22 C22         3.8247   52.3942   20.1250 C.3       1 UNK         0.0000 
     23 C23         2.5323   51.7196   19.6190 C.3       1 UNK         0.0000 
     24 N24         2.7043   51.3002   18.1489 N.4       1 UNK         0.0000 
     25 C25         3.0656   52.5409   17.3126 C.3       1 UNK         0.0000 
     26 C26         4.3334   53.2106   17.8713 C.3       1 UNK         0.0000 
     27 C27         1.4379   50.6364   17.5580 C.3       1 UNK         0.0000 
     28 C28         1.0024   49.3380   18.2192 C.ar      1 UNK         0.0000 
     29 C29         1.5044   48.1097   17.7459 C.ar      1 UNK         0.0000 
     30 C30         1.0553   46.8941   18.2766 C.ar      1 UNK         0.0000 
     31 C31         0.0963   46.9484   19.2810 C.ar      1 UNK         0.0000 
     32 C32        -0.3860   48.1354   19.7537 C.ar      1 UNK         0.0000 
     33 C33         0.0414   49.3559   19.2447 C.ar      1 UNK         0.0000 
     34 O34        -1.2849   47.8981   20.7434 O.3       1 UNK         0.0000 
     35 C35        -1.4498   46.5060   20.7956 C.3       1 UNK         0.0000 
     36 O36        -0.4969   45.9240   19.9454 O.3       1 UNK         0.0000 
     37 H37         6.6761   57.7162   17.8889 H         1 UNK         0.0000 
     38 H38         6.7089   58.6297   19.3889 H         1 UNK         0.0000 
     39 H39         8.1239   57.6786   18.8910 H         1 UNK         0.0000 
     40 H40         5.3912   55.7105   18.0294 H         1 UNK         0.0000 
     41 H41         5.4856   53.2956   23.8022 H         1 UNK         0.0000 
     42 H42         4.4172   54.6664   23.8547 H         1 UNK         0.0000 
     43 H43         7.5044   53.8846   26.3758 H         1 UNK         0.0000 
     44 H44         6.4431   53.9681   28.8355 H         1 UNK         0.0000 
     45 H45         2.3085   54.9407   27.1676 H         1 UNK         0.0000 
     46 H46         0.4370   55.4888   28.0822 H         1 UNK         0.0000 
     47 H47        -0.4480   54.2067   30.0713 H         1 UNK         0.0000 
     48 H48         1.1194   53.4643   30.2655 H         1 UNK         0.0000 
     49 H49         0.1765   53.1923   28.7866 H         1 UNK         0.0000 
     50 H50         0.3114   56.5351   30.4077 H         1 UNK         0.0000 
     51 H51         1.9880   56.1606   30.6401 H         1 UNK         0.0000 
     52 H52         1.5001   57.2863   29.3589 H         1 UNK         0.0000 
     53 H53         4.6260   51.6539   20.0740 H         1 UNK         0.0000 
     54 H54         3.6973   52.6706   21.1714 H         1 UNK         0.0000 
     55 H55         1.6612   52.3738   19.6880 H         1 UNK         0.0000 
     56 H56         2.3623   50.7935   20.1709 H         1 UNK         0.0000 
     57 H57         2.2069   53.2127   17.2988 H         1 UNK         0.0000 
     58 H58         3.2691   52.1626   16.3097 H         1 UNK         0.0000 
     59 H59         4.5790   54.0568   17.2355 H         1 UNK         0.0000 
     60 H60         5.1505   52.4969   17.7692 H         1 UNK         0.0000 
     61 H61         0.6493   51.3902   17.6005 H         1 UNK         0.0000 
     62 H62         1.6824   50.4583   16.5090 H         1 UNK         0.0000 
     63 H63         2.2469   48.0971   16.9590 H         1 UNK         0.0000 
     64 H64         1.4412   45.9565   17.9081 H         1 UNK         0.0000 
     65 H65        -0.3618   50.2869   19.6176 H         1 UNK         0.0000 
     66 H66        -2.4509   46.2546   20.4417 H         1 UNK         0.0000 
     67 H67        -1.2956   46.1569   21.8161 H         1 UNK         0.0000 
     68 H68         3.4855   50.6466   18.0806 H         1 UNK         0.0000 
@<TRIPOS>BOND
     1    1    2 1    
     2    1   37 1    
     3    1   38 1    
     4    1   39 1    
     5    2    7 ar   
     6    2    3 ar   
     7    3    4 ar   
     8    3   40 1    
     9    4    5 ar   
    10    4   21 1    
    11    5    6 ar   
    12    6    7 ar   
    13    6    8 1    
    14    8    9 1    
    15    9   10 1    
    16    9   41 1    
    17    9   42 1    
    18   10   14 1    
    19   10   11 2    
    20   11   12 1    
    21   11   43 1    
    22   12   13 2    
    23   12   44 1    
    24   13   14 1    
    25   13   15 1    
    26   15   16 2    
    27   15   17 am   BACKBONE|DICT|INTERRES
    28   17   18 1    
    29   17   45 1    
    30   18   19 1    
    31   18   20 1    
    32   18   46 1    
    33   19   47 1    
    34   19   48 1    
    35   19   49 1    
    36   20   50 1    
    37   20   51 1    
    38   20   52 1    
    39   21   26 1    
    40   21   22 1    
    41   22   23 1    
    42   22   53 1    
    43   22   54 1    
    44   23   24 1    
    45   23   55 1    
    46   23   56 1    
    47   24   25 1    
    48   24   27 1    
    49   24   68 1    
    50   25   26 1    
    51   25   57 1    
    52   25   58 1    
    53   26   59 1    
    54   26   60 1    
    55   27   28 1    
    56   27   61 1    
    57   27   62 1    
    58   28   33 ar   
    59   28   29 ar   
    60   29   30 ar   
    61   29   63 1    
    62   30   31 ar   
    63   30   64 1    
    64   31   36 1    
    65   31   32 ar   
    66   32   33 ar   
    67   32   34 1    
    68   33   65 1    
    69   34   35 1    
    70   35   36 1    
    71   35   66 1    
    72   35   67 1    
@<TRIPOS>SUBSTRUCTURE
     1 UNK         1 GROUP             0       ****    0 ROOT    
