@<TRIPOS>MOLECULE
ZINC39843665_5914
50   52    1
SMALL
USER_CHARGES


@<TRIPOS>ATOM
      1 C1         -4.5072   54.0715   25.6817 C.2       1 UNK         0.0000 
      2 C2         -3.9315   53.4631   24.6347 C.2       1 UNK         0.0000 
      3 C3         -3.3707   52.0535   24.6827 C.3       1 UNK         0.0000 
      4 N4         -1.9261   51.9840   24.3869 N.am      1 UNK         0.0000 
      5 C5         -1.5101   51.8169   23.1087 C.2       1 UNK         0.0000 
      6 O6         -2.2283   51.8078   22.1056 O.2       1 UNK         0.0000 
      7 C7         -0.0041   51.5927   23.0424 C.3       1 UNK         0.0000 
      8 H8          0.1447   50.5133   22.9820 H         1 UNK         0.0000 
      9 S9          0.6279   52.1050   24.6439 S.3       1 UNK         0.0000 
     10 C10        -1.0160   52.1236   25.3952 C.2       1 UNK         0.0000 
     11 N11        -1.2068   52.2956   26.6553 N.2       1 UNK         0.0000 
     12 C12        -0.1473   52.3909   27.5740 C.ar      1 UNK         0.0000 
     13 C13         0.6736   51.2957   27.8371 C.ar      1 UNK         0.0000 
     14 C14         1.7626   51.3992   28.6918 C.ar      1 UNK         0.0000 
     15 C15         2.0722   52.6185   29.3002 C.ar      1 UNK         0.0000 
     16 C16         1.2317   53.7161   29.0773 C.ar      1 UNK         0.0000 
     17 C17         0.1284   53.5894   28.2366 C.ar      1 UNK         0.0000 
     18 C18         3.2783   52.7445   30.1731 C.2       1 UNK         0.0000 
     19 O19         3.8308   51.6967   30.5769 O.co2     1 UNK         0.0000 
     20 O20         3.6580   53.8971   30.4787 O.co2     1 UNK         0.0000 
     21 C21         0.6553   52.2668   21.8003 C.3       1 UNK         0.0000 
     22 C22         2.1860   52.2914   21.8579 C.2       1 UNK         0.0000 
     23 O23         2.8048   51.2518   22.0814 O.2       1 UNK         0.0000 
     24 N24         2.7637   53.4909   21.6821 N.am      1 UNK         0.0000 
     25 C25         4.0561   53.8352   22.0691 C.ar      1 UNK         0.0000 
     26 C26         4.4584   53.7025   23.4028 C.ar      1 UNK         0.0000 
     27 C27         5.7122   54.1587   23.8015 C.ar      1 UNK         0.0000 
     28 C28         6.5560   54.7673   22.8736 C.ar      1 UNK         0.0000 
     29 C29         6.1602   54.9126   21.5378 C.ar      1 UNK         0.0000 
     30 C30         4.9034   54.4383   21.1416 C.ar      1 UNK         0.0000 
     31 C31         7.0633   55.6162   20.5286 C.3       1 UNK         0.0000 
     32 F32         6.9416   55.0789   19.3132 F         1 UNK         0.0000 
     33 F33         6.7039   56.8977   20.4654 F         1 UNK         0.0000 
     34 F34         8.3476   55.5608   20.8826 F         1 UNK         0.0000 
     35 H35        -4.8857   55.0771   25.6031 H         1 UNK         0.0000 
     36 H36        -4.6041   53.5739   26.6355 H         1 UNK         0.0000 
     37 H37        -3.8438   53.9839   23.6914 H         1 UNK         0.0000 
     38 H38        -3.9207   51.4655   23.9450 H         1 UNK         0.0000 
     39 H39        -3.5818   51.5911   25.6482 H         1 UNK         0.0000 
     40 H40         0.4651   50.3511   27.3561 H         1 UNK         0.0000 
     41 H41         2.3633   50.5196   28.8724 H         1 UNK         0.0000 
     42 H42         1.4318   54.6704   29.5431 H         1 UNK         0.0000 
     43 H43        -0.5033   54.4486   28.0817 H         1 UNK         0.0000 
     44 H44         0.3604   51.7584   20.8828 H         1 UNK         0.0000 
     45 H45         0.3050   53.2965   21.7074 H         1 UNK         0.0000 
     46 H46         2.2360   54.2000   21.1801 H         1 UNK         0.0000 
     47 H47         3.7876   53.2863   24.1394 H         1 UNK         0.0000 
     48 H48         6.0163   54.0619   24.8339 H         1 UNK         0.0000 
     49 H49         7.5049   55.1480   23.2075 H         1 UNK         0.0000 
     50 H50         4.5734   54.5574   20.1191 H         1 UNK         0.0000 
@<TRIPOS>BOND
     1    1    2 2    
     2    1   35 1    
     3    1   36 1    
     4    2    3 1    
     5    2   37 1    
     6    3    4 1    
     7    3   38 1    
     8    3   39 1    
     9    4   10 am   BACKBONE|DICT|INTERRES
    10    4    5 am   BACKBONE|DICT|INTERRES
    11    5    6 2    
    12    5    7 1    
    13    7    8 1    
    14    7    9 1    
    15    7   21 1    
    16    9   10 1    
    17   10   11 2    
    18   11   12 1    
    19   12   17 ar   
    20   12   13 ar   
    21   13   14 ar   
    22   13   40 1    
    23   14   15 ar   
    24   14   41 1    
    25   15   16 ar   
    26   15   18 1    
    27   16   17 ar   
    28   16   42 1    
    29   17   43 1    
    30   18   19 2    
    31   18   20 1    
    32   21   22 1    
    33   21   44 1    
    34   21   45 1    
    35   22   23 2    
    36   22   24 am   BACKBONE|DICT|INTERRES
    37   24   25 1    
    38   24   46 1    
    39   25   30 ar   
    40   25   26 ar   
    41   26   27 ar   
    42   26   47 1    
    43   27   28 ar   
    44   27   48 1    
    45   28   29 ar   
    46   28   49 1    
    47   29   30 ar   
    48   29   31 1    
    49   30   50 1    
    50   31   32 1    
    51   31   33 1    
    52   31   34 1    
@<TRIPOS>SUBSTRUCTURE
     1 UNK         1 GROUP             0       ****    0 ROOT    
