ZINC35909988_3984
                    3D
 Schrodinger Suite 2024-2.
 70 73  0  0  1  0            999 V2000
    2.8801   52.1162   20.7071 C   0  0  0  0  0  0
    2.3328   52.5193   22.0915 C   0  0  2  0  0  0
    1.3794   53.0192   21.9091 H   0  0  0  0  0  0
    3.2877   53.4500   22.8808 C   0  0  0  0  0  0
    4.4286   53.6950   22.4728 O   0  0  0  0  0  0
    2.7611   53.9394   24.0412 N   0  0  0  0  0  0
    1.3422   53.7414   24.4159 C   0  0  0  0  0  0
    0.7937   52.3227   24.6209 C   0  0  0  0  0  0
   -0.1626   52.0829   25.6225 C   0  0  0  0  0  0
   -0.6541   50.7938   25.8693 C   0  0  0  0  0  0
   -0.1639   49.7216   25.1319 C   0  0  0  0  0  0
    0.7610   49.9450   24.1191 C   0  0  0  0  0  0
    1.2474   51.2254   23.8527 C   0  0  0  0  0  0
    2.1429   51.3040   22.8095 O   0  0  0  0  0  0
   -1.5757   50.4966   26.8812 N   0  0  0  0  0  0
   -2.6985   51.1625   27.2044 C   0  0  0  0  0  0
   -3.1031   52.1842   26.6456 O   0  0  0  0  0  0
   -3.2955   50.5378   28.2386 N   0  0  0  0  0  0
   -4.4549   50.8917   28.9412 C   0  0  0  0  0  0
   -4.5096   50.4966   30.2778 C   0  0  0  0  0  0
   -5.6240   50.8034   31.0516 C   0  0  0  0  0  0
   -6.7042   51.4907   30.4882 C   0  0  0  0  0  0
   -6.6521   51.8763   29.1441 C   0  0  0  0  0  0
   -5.5343   51.5760   28.3679 C   0  0  0  0  0  0
   -7.9402   51.8121   31.3323 C   0  0  0  0  0  0
   -8.5680   50.5489   31.9536 C   0  0  0  0  0  0
   -7.6432   52.8777   32.4027 C   0  0  0  0  0  0
    3.6328   54.8291   24.8446 C   0  0  0  0  0  0
    4.3609   54.2199   26.0372 C   0  0  0  0  0  0
    5.7512   54.0991   25.9427 C   0  0  0  0  0  0
    6.5089   53.7442   27.0518 C   0  0  0  0  0  0
    5.8891   53.5416   28.2772 C   0  0  0  0  0  0
    4.5027   53.6597   28.3995 C   0  0  0  0  0  0
    3.7274   54.0210   27.2799 C   0  0  0  0  0  0
    2.3577   54.1580   27.3667 O   0  0  0  0  0  0
    1.8615   55.0981   28.3165 C   0  0  0  0  0  0
    3.9181   53.4523   29.6260 O   0  0  0  0  0  0
    3.8869   52.0943   30.0342 C   0  0  0  0  0  0
    3.0381   52.9899   20.0736 H   0  0  0  0  0  0
    3.8303   51.5857   20.7836 H   0  0  0  0  0  0
    2.1821   51.4590   20.1881 H   0  0  0  0  0  0
    0.7167   54.2244   23.6637 H   0  0  0  0  0  0
    1.1330   54.3002   25.3222 H   0  0  0  0  0  0
   -0.5189   52.8963   26.2345 H   0  0  0  0  0  0
   -0.5010   48.7148   25.3364 H   0  0  0  0  0  0
    1.1272   49.1083   23.5427 H   0  0  0  0  0  0
   -1.4403   49.6016   27.3586 H   0  0  0  0  0  0
   -2.7783   49.7549   28.6273 H   0  0  0  0  0  0
   -3.6858   49.9587   30.7286 H   0  0  0  0  0  0
   -5.6412   50.5015   32.0895 H   0  0  0  0  0  0
   -7.4811   52.3996   28.6907 H   0  0  0  0  0  0
   -5.5178   51.8693   27.3287 H   0  0  0  0  0  0
   -8.6970   52.2321   30.6671 H   0  0  0  0  0  0
   -8.7715   49.7938   31.1940 H   0  0  0  0  0  0
   -9.5143   50.7814   32.4428 H   0  0  0  0  0  0
   -7.9162   50.0956   32.7015 H   0  0  0  0  0  0
   -7.2834   53.8008   31.9492 H   0  0  0  0  0  0
   -8.5426   53.1279   32.9673 H   0  0  0  0  0  0
   -6.8928   52.5352   33.1176 H   0  0  0  0  0  0
    4.3878   55.2968   24.2098 H   0  0  0  0  0  0
    3.1051   55.6967   25.2188 H   0  0  0  0  0  0
    6.2527   54.2875   25.0042 H   0  0  0  0  0  0
    7.5779   53.6463   26.9663 H   0  0  0  0  0  0
    6.4927   53.2974   29.1368 H   0  0  0  0  0  0
    0.8361   55.3640   28.0629 H   0  0  0  0  0  0
    1.8351   54.6806   29.3222 H   0  0  0  0  0  0
    2.4430   56.0193   28.3382 H   0  0  0  0  0  0
    3.3168   52.0088   30.9589 H   0  0  0  0  0  0
    3.4062   51.4636   29.2833 H   0  0  0  0  0  0
    4.8907   51.7101   30.2241 H   0  0  0  0  0  0
  1  2  1  0  0  0
  1 39  1  0  0  0
  1 40  1  0  0  0
  1 41  1  0  0  0
  2  3  1  0  0  0
  2 14  1  0  0  0
  2  4  1  0  0  0
  4  5  2  0  0  0
  4  6  1  0  0  0
  6  7  1  0  0  0
  6 28  1  0  0  0
  7  8  1  0  0  0
  7 42  1  0  0  0
  7 43  1  0  0  0
  8 13  2  0  0  0
  8  9  1  0  0  0
  9 10  2  0  0  0
  9 44  1  0  0  0
 10 11  1  0  0  0
 10 15  1  0  0  0
 11 12  2  0  0  0
 11 45  1  0  0  0
 12 13  1  0  0  0
 12 46  1  0  0  0
 13 14  1  0  0  0
 15 16  1  0  0  0
 15 47  1  0  0  0
 16 17  2  0  0  0
 16 18  1  0  0  0
 18 19  1  0  0  0
 18 48  1  0  0  0
 19 24  2  0  0  0
 19 20  1  0  0  0
 20 21  2  0  0  0
 20 49  1  0  0  0
 21 22  1  0  0  0
 21 50  1  0  0  0
 22 23  2  0  0  0
 22 25  1  0  0  0
 23 24  1  0  0  0
 23 51  1  0  0  0
 24 52  1  0  0  0
 25 26  1  0  0  0
 25 27  1  0  0  0
 25 53  1  0  0  0
 26 54  1  0  0  0
 26 55  1  0  0  0
 26 56  1  0  0  0
 27 57  1  0  0  0
 27 58  1  0  0  0
 27 59  1  0  0  0
 28 29  1  0  0  0
 28 60  1  0  0  0
 28 61  1  0  0  0
 29 34  2  0  0  0
 29 30  1  0  0  0
 30 31  2  0  0  0
 30 62  1  0  0  0
 31 32  1  0  0  0
 31 63  1  0  0  0
 32 33  2  0  0  0
 32 64  1  0  0  0
 33 34  1  0  0  0
 33 37  1  0  0  0
 34 35  1  0  0  0
 35 36  1  0  0  0
 36 65  1  0  0  0
 36 66  1  0  0  0
 36 67  1  0  0  0
 37 38  1  0  0  0
 38 68  1  0  0  0
 38 69  1  0  0  0
 38 70  1  0  0  0
M  END
> <i_i_glide_confnum>
53

> <i_i_glide_lignum>
3985

> <i_i_glide_posenum>
365

> <i_i_glide_rotatable_bonds>
9

> <i_m_Source_File_Index>
4884

> <b_m_subgroup_collapsed>
0

> <r_i_docking_score>
-6.79889

> <r_i_glide_ecoul>
-7.30007

> <r_i_glide_eff_state_penalty>
0

> <r_i_glide_einternal>
4.09404

> <r_i_glide_emodel>
-69.8401

> <r_i_glide_energy>
-52.1681

> <r_i_glide_erotb>
0.483614

> <r_i_glide_esite>
-0.270959

> <r_i_glide_evdw>
-44.8681

> <r_i_glide_gscore>
-6.79889

> <r_i_glide_hbond>
-0.304

> <r_i_glide_ligand_efficiency>
-0.183754

> <r_i_glide_ligand_efficiency_ln>
-1.47452

> <r_i_glide_ligand_efficiency_sa>
-0.612309

> <r_i_glide_lipo>
-3.00616

> <r_i_glide_metal>
0

> <r_i_glide_rewards>
-0.362977

> <s_i_glide_gridfile>
wee1_glide-grid

> <s_m_Source_File>
wee1_decoys_glide_SP.sdf

> <s_m_Source_Path>
/Users/zhangxujun/Desktop

> <s_m_entry_id>
5159

> <s_m_entry_name>
wee1_decoys_glide_SP.4884

> <s_m_subgroup_title>
wee1_decoys_glide_SP

> <s_m_subgroupid>
wee1_decoys_glide_SP


$$$$
