ZINC12993062_766
                    3D
 Schrodinger Suite 2024-2.
 68 72  0  0  1  0            999 V2000
    7.1309   53.8033   23.1942 C   0  0  0  0  0  0
    5.9562   54.7951   23.1514 C   0  0  2  0  0  0
    6.3313   55.7959   23.3760 H   0  0  0  0  0  0
    4.9402   54.4945   24.2649 C   0  0  0  0  0  0
    3.6258   54.0962   24.0034 C   0  0  0  0  0  0
    2.7523   53.8304   25.0551 C   0  0  0  0  0  0
    3.1526   53.9594   26.3888 C   0  0  0  0  0  0
    4.4797   54.3587   26.6672 C   0  0  0  0  0  0
    5.3391   54.6340   25.5994 C   0  0  0  0  0  0
    5.0077   54.4266   28.1022 C   0  0  0  0  0  0
    3.8883   54.5131   29.1535 C   0  0  0  0  0  0
    2.8103   53.4551   28.8741 C   0  0  0  0  0  0
    2.1413   53.7210   27.5141 C   0  0  0  0  0  0
    5.3946   54.8147   21.7950 N   0  0  0  0  0  0
    5.9047   55.4664   20.7321 C   0  0  0  0  0  0
    6.8417   56.2559   20.8309 O   0  0  0  0  0  0
    5.2990   55.2053   19.3328 C   0  0  0  0  0  0
    3.4556   54.1585   17.9201 C   0  0  0  0  0  0
    2.3012   53.1257   17.8988 C   0  0  0  0  0  0
    2.8048   51.7201   18.3177 C   0  0  1  0  0  0
    3.5158   51.7706   19.6813 C   0  0  0  0  0  0
    4.7134   52.7225   19.5795 C   0  0  0  0  0  0
    1.6378   50.7130   18.4647 C   0  0  0  0  0  0
    0.5653   51.0797   18.9535 O   0  0  0  0  0  0
    1.9044   49.4482   18.0814 N   0  0  0  0  0  0
    1.1552   48.2816   18.2932 C   0  0  0  0  0  0
    1.4418   47.1916   17.4474 C   0  0  0  0  0  0
    0.8071   45.9556   17.6247 C   0  0  0  0  0  0
   -0.1021   45.8412   18.6697 C   0  0  0  0  0  0
   -0.3824   46.8911   19.4972 C   0  0  0  0  0  0
    0.2277   48.1317   19.3447 C   0  0  0  0  0  0
   -1.2522   46.4875   20.4594 O   0  0  0  0  0  0
   -1.6466   45.1892   20.1001 C   0  0  0  0  0  0
   -0.7877   44.7432   19.0823 O   0  0  0  0  0  0
    7.5900   53.7329   24.1797 H   0  0  0  0  0  0
    6.7994   52.8097   22.8986 H   0  0  0  0  0  0
    7.9062   54.1040   22.4899 H   0  0  0  0  0  0
    3.2598   53.9875   22.9932 H   0  0  0  0  0  0
    1.7373   53.5349   24.8320 H   0  0  0  0  0  0
    6.3517   54.9380   25.8194 H   0  0  0  0  0  0
    5.6978   55.2642   28.2210 H   0  0  0  0  0  0
    5.5901   53.5220   28.2858 H   0  0  0  0  0  0
    4.3067   54.3737   30.1502 H   0  0  0  0  0  0
    3.4409   55.5090   29.1449 H   0  0  0  0  0  0
    3.2581   52.4599   28.8794 H   0  0  0  0  0  0
    2.0599   53.4602   29.6651 H   0  0  0  0  0  0
    1.4724   52.8972   27.2603 H   0  0  0  0  0  0
    1.5143   54.6096   27.5986 H   0  0  0  0  0  0
    4.6209   54.1892   21.6456 H   0  0  0  0  0  0
    4.8779   56.1321   18.9382 H   0  0  0  0  0  0
    6.0677   54.8636   18.6379 H   0  0  0  0  0  0
    3.0593   55.1659   17.7770 H   0  0  0  0  0  0
    4.2149   53.9520   17.1631 H   0  0  0  0  0  0
    1.5406   53.5011   18.5839 H   0  0  0  0  0  0
    1.9203   53.1093   16.8755 H   0  0  0  0  0  0
    3.5009   51.3167   17.5722 H   0  0  0  0  0  0
    3.9145   50.7941   19.9571 H   0  0  0  0  0  0
    2.8621   52.1604   20.4664 H   0  0  0  0  0  0
    5.4061   52.4967   18.7669 H   0  0  0  0  0  0
    5.2577   52.7009   20.5209 H   0  0  0  0  0  0
    2.7819   49.3053   17.5693 H   0  0  0  0  0  0
    2.1730   47.3006   16.6572 H   0  0  0  0  0  0
    1.0422   45.1196   16.9833 H   0  0  0  0  0  0
    0.0128   48.9325   20.0361 H   0  0  0  0  0  0
   -2.6734   45.2200   19.7238 H   0  0  0  0  0  0
   -1.5729   44.5286   20.9669 H   0  0  0  0  0  0
    4.1557   54.1431   19.3078 N   0  3  1  0  0  0
    3.4654   54.3881   20.0095 H   0  0  0  0  0  0
  1  2  1  0  0  0
  1 35  1  0  0  0
  1 36  1  0  0  0
  1 37  1  0  0  0
  2  3  1  0  0  0
  2  4  1  0  0  0
  2 14  1  0  0  0
  4  9  2  0  0  0
  4  5  1  0  0  0
  5  6  2  0  0  0
  5 38  1  0  0  0
  6  7  1  0  0  0
  6 39  1  0  0  0
  7 13  1  0  0  0
  7  8  2  0  0  0
  8  9  1  0  0  0
  8 10  1  0  0  0
  9 40  1  0  0  0
 10 11  1  0  0  0
 10 41  1  0  0  0
 10 42  1  0  0  0
 11 12  1  0  0  0
 11 43  1  0  0  0
 11 44  1  0  0  0
 12 13  1  0  0  0
 12 45  1  0  0  0
 12 46  1  0  0  0
 13 47  1  0  0  0
 13 48  1  0  0  0
 14 15  1  0  0  0
 14 49  1  0  0  0
 15 16  2  0  0  0
 15 17  1  0  0  0
 17 50  1  0  0  0
 17 51  1  0  0  0
 17 67  1  0  0  0
 18 19  1  0  0  0
 18 52  1  0  0  0
 18 53  1  0  0  0
 18 67  1  0  0  0
 19 20  1  0  0  0
 19 54  1  0  0  0
 19 55  1  0  0  0
 20 21  1  0  0  0
 20 23  1  0  0  0
 20 56  1  0  0  0
 21 22  1  0  0  0
 21 57  1  0  0  0
 21 58  1  0  0  0
 22 59  1  0  0  0
 22 60  1  0  0  0
 22 67  1  0  0  0
 23 24  2  0  0  0
 23 25  1  0  0  0
 25 26  1  0  0  0
 25 61  1  0  0  0
 26 31  2  0  0  0
 26 27  1  0  0  0
 27 28  2  0  0  0
 27 62  1  0  0  0
 28 29  1  0  0  0
 28 63  1  0  0  0
 29 34  1  0  0  0
 29 30  2  0  0  0
 30 31  1  0  0  0
 30 32  1  0  0  0
 31 64  1  0  0  0
 32 33  1  0  0  0
 33 34  1  0  0  0
 33 65  1  0  0  0
 33 66  1  0  0  0
 67 68  1  0  0  0
M  CHG  1  67   1
M  END
> <i_i_glide_confnum>
172

> <i_i_glide_lignum>
767

> <i_i_glide_posenum>
319

> <i_i_glide_rotatable_bonds>
8

> <i_m_Source_File_Index>
1883

> <b_m_subgroup_collapsed>
0

> <r_i_docking_score>
-5.94213

> <r_i_glide_ecoul>
-8.15314

> <r_i_glide_eff_state_penalty>
0

> <r_i_glide_einternal>
12.2944

> <r_i_glide_emodel>
-57.1524

> <r_i_glide_energy>
-44.4142

> <r_i_glide_erotb>
0.653859

> <r_i_glide_esite>
-0.173383

> <r_i_glide_evdw>
-36.2611

> <r_i_glide_gscore>
-5.94213

> <r_i_glide_hbond>
-0.267287

> <r_i_glide_ligand_efficiency>
-0.174768

> <r_i_glide_ligand_efficiency_ln>
-1.31278

> <r_i_glide_ligand_efficiency_sa>
-0.566182

> <r_i_glide_lipo>
-2.64717

> <r_i_glide_metal>
0

> <r_i_glide_rewards>
-0.472128

> <s_i_glide_gridfile>
wee1_glide-grid

> <s_m_Source_File>
wee1_decoys_glide_SP.sdf

> <s_m_Source_Path>
/Users/zhangxujun/Desktop

> <s_m_entry_id>
2158

> <s_m_entry_name>
wee1_decoys_glide_SP.1883

> <s_m_subgroup_title>
wee1_decoys_glide_SP

> <s_m_subgroupid>
wee1_decoys_glide_SP


$$$$
