@<TRIPOS>MOLECULE
ZINC13035475_1928
41   43    1
SMALL
USER_CHARGES


@<TRIPOS>ATOM
      1 C1          6.1808   54.8962   21.7717 C.ar      1 UNK         0.0000 
      2 C2          5.0466   54.0928   21.8954 C.ar      1 UNK         0.0000 
      3 C3          4.6021   53.7000   23.1586 C.ar      1 UNK         0.0000 
      4 C4          5.2848   54.1227   24.3022 C.ar      1 UNK         0.0000 
      5 C5          6.4333   54.9151   24.1788 C.ar      1 UNK         0.0000 
      6 C6          6.8753   55.2983   22.9123 C.ar      1 UNK         0.0000 
      7 O7          7.1042   55.4090   25.2820 O.3       1 UNK         0.0000 
      8 C8          6.8320   54.6912   26.4900 C.3       1 UNK         0.0000 
      9 C9          5.3114   54.4525   26.6547 C.3       1 UNK         0.0000 
     10 H10         4.8119   55.4210   26.6474 H         1 UNK         0.0000 
     11 O11         4.8289   53.6967   25.5354 O.3       1 UNK         0.0000 
     12 C12         4.9888   53.7382   27.9854 C.3       1 UNK         0.0000 
     13 N13         3.6127   53.2530   28.0561 N.am      1 UNK         0.0000 
     14 C14         2.9026   53.0511   29.1787 C.2       1 UNK         0.0000 
     15 O15         3.3405   53.3013   30.3021 O.2       1 UNK         0.0000 
     16 C16         1.4765   52.4948   29.0233 C.3       1 UNK         0.0000 
     17 O17         1.3950   51.7084   27.8319 O.3       1 UNK         0.0000 
     18 C18         0.2305   51.8178   27.1115 C.ar      1 UNK         0.0000 
     19 C19        -0.9674   51.2968   27.6056 C.ar      1 UNK         0.0000 
     20 C20        -2.1435   51.3957   26.8590 C.ar      1 UNK         0.0000 
     21 C21        -2.1407   52.0107   25.5963 C.ar      1 UNK         0.0000 
     22 C22        -0.9240   52.4968   25.1005 C.ar      1 UNK         0.0000 
     23 C23         0.2375   52.4425   25.8625 C.ar      1 UNK         0.0000 
     24 Br24        1.7974   53.2958   25.1938 Br        1 UNK         0.0000 
     25 C25        -3.3991   52.1857   24.8001 C.2       1 UNK         0.0000 
     26 O26        -4.4757   51.7909   25.3036 O.co2     1 UNK         0.0000 
     27 H27         6.5210   55.2031   20.7937 H         1 UNK         0.0000 
     28 H28         4.5107   53.7734   21.0132 H         1 UNK         0.0000 
     29 H29         3.7305   53.0712   23.2394 H         1 UNK         0.0000 
     30 H30         7.7473   55.9277   22.8155 H         1 UNK         0.0000 
     31 H31         7.2227   55.2604   27.3327 H         1 UNK         0.0000 
     32 H32         7.3457   53.7288   26.4640 H         1 UNK         0.0000 
     33 H33         5.2270   54.4025   28.8193 H         1 UNK         0.0000 
     34 H34         5.6466   52.8755   28.1041 H         1 UNK         0.0000 
     35 H35         3.1945   52.9737   27.1787 H         1 UNK         0.0000 
     36 H36         0.7808   53.3374   29.0270 H         1 UNK         0.0000 
     37 H37         1.2376   51.8607   29.8783 H         1 UNK         0.0000 
     38 H38        -0.9876   50.8150   28.5722 H         1 UNK         0.0000 
     39 H39        -3.0567   50.9884   27.2711 H         1 UNK         0.0000 
     40 H40        -0.8821   52.9878   24.1377 H         1 UNK         0.0000 
     41 O41        -3.3006   52.7451   23.6823 O.co2     1 UNK         0.0000 
@<TRIPOS>BOND
     1    1    6 ar   
     2    1    2 ar   
     3    1   27 1    
     4    2    3 ar   
     5    2   28 1    
     6    3    4 ar   
     7    3   29 1    
     8    4   11 1    
     9    4    5 ar   
    10    5    6 ar   
    11    5    7 1    
    12    6   30 1    
    13    7    8 1    
    14    8    9 1    
    15    8   31 1    
    16    8   32 1    
    17    9   10 1    
    18    9   11 1    
    19    9   12 1    
    20   12   13 1    
    21   12   33 1    
    22   12   34 1    
    23   13   14 am   BACKBONE|DICT|INTERRES
    24   13   35 1    
    25   14   15 2    
    26   14   16 1    
    27   16   17 1    
    28   16   36 1    
    29   16   37 1    
    30   17   18 1    
    31   18   23 ar   
    32   18   19 ar   
    33   19   20 ar   
    34   19   38 1    
    35   20   21 ar   
    36   20   39 1    
    37   21   22 ar   
    38   21   25 1    
    39   22   23 ar   
    40   22   40 1    
    41   23   24 1    
    42   25   26 2    
    43   25   41 1    
@<TRIPOS>SUBSTRUCTURE
     1 UNK         1 GROUP             0       ****    0 ROOT    
