ZINC13154799_1346
                    3D
 Schrodinger Suite 2024-2.
 42 44  0  0  1  0            999 V2000
    3.1835   55.7739   16.4855 C   0  0  0  0  0  0
    3.7956   54.3634   16.4520 C   0  0  0  0  0  0
    4.2734   53.7269   17.4551 N   0  0  0  0  0  0
    4.3022   54.3687   18.6607 N   0  3  0  0  0  0
    4.7114   53.7739   19.7851 C   0  0  0  0  0  0
    5.0905   52.4967   19.8663 N   0  0  0  0  0  0
    4.7047   54.7992   21.2014 S   0  0  0  0  0  0
    5.4284   53.8830   22.6057 C   0  0  1  0  0  0
    5.6153   52.8468   22.3327 H   0  0  0  0  0  0
    6.6691   54.5309   23.1372 C   0  0  0  0  0  0
    6.3375   54.9012   24.5661 C   0  0  0  0  0  0
    7.1043   55.5474   25.2792 O   0  0  0  0  0  0
    5.0998   54.4186   24.8881 N   0  0  0  0  0  0
    4.4672   53.9065   23.7832 C   0  0  0  0  0  0
    3.3199   53.4660   23.6966 O   0  0  0  0  0  0
    4.5561   54.4413   26.2236 C   0  0  0  0  0  0
    5.3997   54.4202   27.3554 C   0  0  0  0  0  0
    4.8813   54.4733   28.6454 C   0  0  0  0  0  0
    3.5056   54.5050   28.8366 C   0  0  0  0  0  0
    2.6472   54.4956   27.7448 C   0  0  0  0  0  0
    3.1684   54.4665   26.4543 C   0  0  0  0  0  0
    3.8023   53.7165   15.1271 C   0  0  0  0  0  0
    3.3445   54.2384   13.9111 C   0  0  0  0  0  0
    3.4923   53.3644   12.8284 C   0  0  0  0  0  0
    4.0680   52.1583   13.1916 C   0  0  0  0  0  0
    4.4324   52.1007   14.8819 S   0  0  0  0  0  0
    3.7592   56.4560   15.8594 H   0  0  0  0  0  0
    2.1735   55.7570   16.0746 H   0  0  0  0  0  0
    3.1037   56.2153   17.4772 H   0  0  0  0  0  0
    5.1044   51.9079   19.0251 H   0  0  0  0  0  0
    7.5087   53.8345   23.1542 H   0  0  0  0  0  0
    6.9846   55.4155   22.5816 H   0  0  0  0  0  0
    6.4737   54.3624   27.2660 H   0  0  0  0  0  0
    5.5505   54.4986   29.4920 H   0  0  0  0  0  0
    3.0990   54.5460   29.8350 H   0  0  0  0  0  0
    1.5776   54.5240   27.8950 H   0  0  0  0  0  0
    2.4593   54.4894   25.6424 H   0  0  0  0  0  0
    2.9141   55.2233   13.8012 H   0  0  0  0  0  0
    3.1904   53.6056   11.8192 H   0  0  0  0  0  0
    4.2940   51.3100   12.5623 H   0  0  0  0  0  0
    5.2580   52.0698   20.7611 H   0  0  0  0  0  0
    3.9877   55.3275   18.6905 H   0  0  0  0  0  0
  1  2  1  0  0  0
  1 27  1  0  0  0
  1 28  1  0  0  0
  1 29  1  0  0  0
  2  3  2  0  0  0
  2 22  1  0  0  0
  3  4  1  0  0  0
  4  5  2  0  0  0
  4 42  1  0  0  0
  5  6  1  0  0  0
  5  7  1  0  0  0
  6 30  1  0  0  0
  6 41  1  0  0  0
  7  8  1  0  0  0
  8  9  1  0  0  0
  8 14  1  0  0  0
  8 10  1  0  0  0
 10 11  1  0  0  0
 10 31  1  0  0  0
 10 32  1  0  0  0
 11 12  2  0  0  0
 11 13  1  0  0  0
 13 14  1  0  0  0
 13 16  1  0  0  0
 14 15  2  0  0  0
 16 21  2  0  0  0
 16 17  1  0  0  0
 17 18  2  0  0  0
 17 33  1  0  0  0
 18 19  1  0  0  0
 18 34  1  0  0  0
 19 20  2  0  0  0
 19 35  1  0  0  0
 20 21  1  0  0  0
 20 36  1  0  0  0
 21 37  1  0  0  0
 22 26  1  0  0  0
 22 23  2  0  0  0
 23 24  1  0  0  0
 23 38  1  0  0  0
 24 25  2  0  0  0
 24 39  1  0  0  0
 25 26  1  0  0  0
 25 40  1  0  0  0
M  CHG  1   4   1
M  END
> <i_i_glide_confnum>
36

> <i_i_glide_lignum>
1347

> <i_i_glide_posenum>
313

> <i_i_glide_rotatable_bonds>
5

> <i_m_Source_File_Index>
1413

> <b_m_subgroup_collapsed>
0

> <r_i_docking_score>
-6.70345

> <r_i_glide_ecoul>
-3.13922

> <r_i_glide_eff_state_penalty>
0

> <r_i_glide_einternal>
5.56874

> <r_i_glide_emodel>
-48.4173

> <r_i_glide_energy>
-33.3369

> <r_i_glide_erotb>
0.554203

> <r_i_glide_esite>
-0.0884445

> <r_i_glide_evdw>
-30.1977

> <r_i_glide_gscore>
-6.70345

> <r_i_glide_hbond>
-0.52

> <r_i_glide_ligand_efficiency>
-0.268138

> <r_i_glide_ligand_efficiency_ln>
-1.58892

> <r_i_glide_ligand_efficiency_sa>
-0.78404

> <r_i_glide_lipo>
-2.06169

> <r_i_glide_metal>
0

> <r_i_glide_rewards>
-2.60675

> <s_i_glide_gridfile>
wee1_glide-grid

> <s_m_Source_File>
wee1_decoys_glide_SP.sdf

> <s_m_Source_Path>
/Users/zhangxujun/Desktop

> <s_m_entry_id>
1688

> <s_m_entry_name>
wee1_decoys_glide_SP.1413

> <s_m_subgroup_title>
wee1_decoys_glide_SP

> <s_m_subgroupid>
wee1_decoys_glide_SP


$$$$
