@<TRIPOS>MOLECULE
ZINC38574741_5249
72   75    1
SMALL
USER_CHARGES


@<TRIPOS>ATOM
      1 C1         -1.5494   50.9322   22.0995 C.3       1 UNK         0.0000 
      2 C2         -0.7562   50.7189   23.4083 C.3       1 UNK         0.0000 
      3 H3         -0.3767   49.6978   23.3277 H         1 UNK         0.0000 
      4 C4         -1.6223   50.6724   24.7463 C.3       1 UNK         0.0000 
      5 H5         -1.8087   49.6126   24.9379 H         1 UNK         0.0000 
      6 C6         -3.0210   51.2815   24.5967 C.2       1 UNK         0.0000 
      7 C7         -4.2513   50.6192   24.5948 C.2       1 UNK         0.0000 
      8 C8         -5.3650   51.4594   24.5381 C.2       1 UNK         0.0000 
      9 C9         -5.0127   52.7938   24.4817 C.2       1 UNK         0.0000 
     10 S10        -3.2970   52.9987   24.4406 S.3       1 UNK         0.0000 
     11 N11        -0.9264   51.1604   25.9639 N.3       1 UNK         0.0000 
     12 C12         0.2399   50.3312   26.3094 C.3       1 UNK         0.0000 
     13 C13         1.1019   51.0423   27.3686 C.3       1 UNK         0.0000 
     14 N14         0.2498   51.2967   28.6294 N.4       1 UNK         0.0000 
     15 C15        -1.0246   52.0833   28.2778 C.3       1 UNK         0.0000 
     16 C16        -1.7811   51.3427   27.1581 C.3       1 UNK         0.0000 
     17 C17         1.0446   51.9324   29.7942 C.3       1 UNK         0.0000 
     18 C18         1.4559   53.3851   29.6189 C.ar      1 UNK         0.0000 
     19 C19         2.5863   53.7075   28.8636 C.ar      1 UNK         0.0000 
     20 C20         2.9576   55.0383   28.7126 C.ar      1 UNK         0.0000 
     21 C21         2.2095   56.0391   29.3293 C.ar      1 UNK         0.0000 
     22 C22         1.1044   55.7219   30.1139 C.ar      1 UNK         0.0000 
     23 C23         0.7259   54.3912   30.2590 C.ar      1 UNK         0.0000 
     24 N24         0.5008   51.4948   23.3714 N.am      1 UNK         0.0000 
     25 C25         0.7056   52.7861   23.6819 C.2       1 UNK         0.0000 
     26 O26        -0.1716   53.5441   24.0817 O.2       1 UNK         0.0000 
     27 C27         2.1328   53.2539   23.5784 C.ar      1 UNK         0.0000 
     28 C28         2.7038   53.9666   24.6349 C.ar      1 UNK         0.0000 
     29 C29         4.0237   54.4029   24.5592 C.ar      1 UNK         0.0000 
     30 C30         4.8014   54.1594   23.4147 C.ar      1 UNK         0.0000 
     31 C31         4.2156   53.4450   22.3579 C.ar      1 UNK         0.0000 
     32 C32         2.8999   52.9939   22.4367 C.ar      1 UNK         0.0000 
     33 C33         6.2731   54.6519   23.3072 C.3       1 UNK         0.0000 
     34 C34         6.5641   55.3021   21.9236 C.3       1 UNK         0.0000 
     35 C35         7.2201   53.4458   23.4510 C.3       1 UNK         0.0000 
     36 C36         6.6520   55.6754   24.4166 C.3       1 UNK         0.0000 
     37 H37        -2.4898   50.3808   22.1089 H         1 UNK         0.0000 
     38 H38        -1.7928   51.9835   21.9455 H         1 UNK         0.0000 
     39 H39        -0.9920   50.5693   21.2354 H         1 UNK         0.0000 
     40 H40        -4.3359   49.5441   24.6696 H         1 UNK         0.0000 
     41 H41        -6.3865   51.1065   24.5459 H         1 UNK         0.0000 
     42 H42        -5.6700   53.6489   24.4224 H         1 UNK         0.0000 
     43 H43        -0.1182   49.3742   26.6973 H         1 UNK         0.0000 
     44 H44         0.8611   50.1067   25.4449 H         1 UNK         0.0000 
     45 H45         1.4958   51.9957   27.0130 H         1 UNK         0.0000 
     46 H46         1.9044   50.3789   27.6821 H         1 UNK         0.0000 
     47 H47        -0.7294   53.0922   27.9851 H         1 UNK         0.0000 
     48 H48        -1.6227   52.0948   29.1900 H         1 UNK         0.0000 
     49 H49        -2.6792   51.9205   26.9490 H         1 UNK         0.0000 
     50 H50        -2.0959   50.3562   27.5020 H         1 UNK         0.0000 
     51 H51         0.3926   51.8080   30.6631 H         1 UNK         0.0000 
     52 H52         1.9180   51.2968   29.9233 H         1 UNK         0.0000 
     53 H53         3.1756   52.9349   28.3889 H         1 UNK         0.0000 
     54 H54         3.8249   55.2949   28.1214 H         1 UNK         0.0000 
     55 H55         2.4965   57.0738   29.2194 H         1 UNK         0.0000 
     56 H56         0.5508   56.5067   30.6080 H         1 UNK         0.0000 
     57 H57        -0.1234   54.1451   30.8784 H         1 UNK         0.0000 
     58 H58         1.3102   50.9864   23.0507 H         1 UNK         0.0000 
     59 H59         2.1294   54.1717   25.5278 H         1 UNK         0.0000 
     60 H60         4.4194   54.9385   25.4072 H         1 UNK         0.0000 
     61 H61         4.7780   53.2249   21.4634 H         1 UNK         0.0000 
     62 H62         2.4805   52.4565   21.5965 H         1 UNK         0.0000 
     63 H63         7.5825   55.6916   21.8776 H         1 UNK         0.0000 
     64 H64         5.9042   56.1320   21.6818 H         1 UNK         0.0000 
     65 H65         6.4779   54.5874   21.1055 H         1 UNK         0.0000 
     66 H66         7.3260   53.1519   24.4943 H         1 UNK         0.0000 
     67 H67         6.8616   52.5882   22.8817 H         1 UNK         0.0000 
     68 H68         8.2233   53.6653   23.0885 H         1 UNK         0.0000 
     69 H69         6.6724   55.2113   25.4037 H         1 UNK         0.0000 
     70 H70         7.6419   56.0967   24.2547 H         1 UNK         0.0000 
     71 H71         5.9524   56.5064   24.4814 H         1 UNK         0.0000 
     72 H72        -0.0700   50.3861   28.9357 H         1 UNK         0.0000 
@<TRIPOS>BOND
     1    1    2 1    
     2    1   37 1    
     3    1   38 1    
     4    1   39 1    
     5    2    3 1    
     6    2    4 1    
     7    2   24 1    
     8    4    5 1    
     9    4    6 1    
    10    4   11 1    
    11    6   10 1    
    12    6    7 2    
    13    7    8 1    
    14    7   40 1    
    15    8    9 2    
    16    8   41 1    
    17    9   10 1    
    18    9   42 1    
    19   11   16 1    
    20   11   12 1    
    21   12   13 1    
    22   12   43 1    
    23   12   44 1    
    24   13   14 1    
    25   13   45 1    
    26   13   46 1    
    27   14   15 1    
    28   14   17 1    
    29   14   72 1    
    30   15   16 1    
    31   15   47 1    
    32   15   48 1    
    33   16   49 1    
    34   16   50 1    
    35   17   18 1    
    36   17   51 1    
    37   17   52 1    
    38   18   23 ar   
    39   18   19 ar   
    40   19   20 ar   
    41   19   53 1    
    42   20   21 ar   
    43   20   54 1    
    44   21   22 ar   
    45   21   55 1    
    46   22   23 ar   
    47   22   56 1    
    48   23   57 1    
    49   24   25 am   BACKBONE|DICT|INTERRES
    50   24   58 1    
    51   25   26 2    
    52   25   27 1    
    53   27   32 ar   
    54   27   28 ar   
    55   28   29 ar   
    56   28   59 1    
    57   29   30 ar   
    58   29   60 1    
    59   30   31 ar   
    60   30   33 1    
    61   31   32 ar   
    62   31   61 1    
    63   32   62 1    
    64   33   34 1    
    65   33   35 1    
    66   33   36 1    
    67   34   63 1    
    68   34   64 1    
    69   34   65 1    
    70   35   66 1    
    71   35   67 1    
    72   35   68 1    
    73   36   69 1    
    74   36   70 1    
    75   36   71 1    
@<TRIPOS>SUBSTRUCTURE
     1 UNK         1 GROUP             0       ****    0 ROOT    
