@<TRIPOS>MOLECULE
ZINC45840892_5664
47   51    1
SMALL
USER_CHARGES


@<TRIPOS>ATOM
      1 C1          3.7676   54.2396   28.3459 C.ar      1 UNK         0.0000 
      2 C2          5.1045   54.4934   28.6514 C.ar      1 UNK         0.0000 
      3 C3          6.0747   54.6101   27.6565 C.ar      1 UNK         0.0000 
      4 C4          5.6619   54.4838   26.3249 C.ar      1 UNK         0.0000 
      5 C5          4.3046   54.2174   26.0032 C.ar      1 UNK         0.0000 
      6 C6          3.3483   54.0961   27.0230 C.ar      1 UNK         0.0000 
      7 N7          4.0399   54.0965   24.6799 N.2       1 UNK         0.0000 
      8 C8          5.1154   54.2427   23.9528 C.2       1 UNK         0.0000 
      9 S9          6.5888   54.6087   24.8352 S.3       1 UNK         0.0000 
     10 C10         5.1009   54.1229   22.4618 C.ar      1 UNK         0.0000 
     11 C11         5.9652   54.8671   21.6515 C.ar      1 UNK         0.0000 
     12 C12         5.9050   54.7527   20.2622 C.ar      1 UNK         0.0000 
     13 C13         4.9865   53.8856   19.6672 C.ar      1 UNK         0.0000 
     14 C14         4.0976   53.1557   20.4579 C.ar      1 UNK         0.0000 
     15 C15         4.1730   53.2696   21.8539 C.ar      1 UNK         0.0000 
     16 N16         3.1554   52.3419   19.8017 N.am      1 UNK         0.0000 
     17 C17         1.8897   52.0978   20.2083 C.2       1 UNK         0.0000 
     18 O18         1.4280   52.4957   21.2796 O.2       1 UNK         0.0000 
     19 C19         1.0035   51.2865   19.2508 C.3       1 UNK         0.0000 
     20 N20        -0.4490   51.5625   19.3558 N.pl3     1 UNK         0.0000 
     21 C21        -1.3067   51.2881   20.4191 C.ar      1 UNK         0.0000 
     22 N22        -2.5217   51.6968   20.1437 N.2       1 UNK         0.0000 
     23 N23        -2.5003   52.2686   18.8830 N.2       1 UNK         0.0000 
     24 C24        -1.2736   52.1997   18.4333 C.ar      1 UNK         0.0000 
     25 S25        -0.8301   52.8994   16.8727 S.3       1 UNK         0.0000 
     26 C26        -0.9376   50.7227   21.7593 C.ar      1 UNK         0.0000 
     27 C27        -1.5166   51.2842   22.9062 C.ar      1 UNK         0.0000 
     28 C28        -1.1455   50.8432   24.1736 C.ar      1 UNK         0.0000 
     29 C29        -0.1856   49.8416   24.2963 C.ar      1 UNK         0.0000 
     30 C30         0.3827   49.2678   23.1658 C.ar      1 UNK         0.0000 
     31 C31        -0.0083   49.6871   21.9006 C.ar      1 UNK         0.0000 
     32 Cl32        0.3045   49.2983   25.8563 Cl        1 UNK         0.0000 
     33 H33         3.0461   54.1560   29.1453 H         1 UNK         0.0000 
     34 H34         5.4011   54.6114   29.6817 H         1 UNK         0.0000 
     35 H35         7.1034   54.8147   27.9144 H         1 UNK         0.0000 
     36 H36         2.3147   53.8925   26.7893 H         1 UNK         0.0000 
     37 H37         6.6819   55.5441   22.0928 H         1 UNK         0.0000 
     38 H38         6.5745   55.3305   19.6422 H         1 UNK         0.0000 
     39 H39         4.9532   53.8070   18.5898 H         1 UNK         0.0000 
     40 H40         3.5070   52.6970   22.4816 H         1 UNK         0.0000 
     41 H41         3.4269   52.0101   18.8858 H         1 UNK         0.0000 
     42 H42         1.1778   50.2232   19.3905 H         1 UNK         0.0000 
     43 H43         1.3254   51.4827   18.2295 H         1 UNK         0.0000 
     44 H44        -2.2376   52.0840   22.8179 H         1 UNK         0.0000 
     45 H45        -1.5872   51.2828   25.0550 H         1 UNK         0.0000 
     46 H46         1.1295   48.4966   23.2772 H         1 UNK         0.0000 
     47 H47         0.4279   49.2076   21.0388 H         1 UNK         0.0000 
@<TRIPOS>BOND
     1    1    6 ar   
     2    1    2 ar   
     3    1   33 1    
     4    2    3 ar   
     5    2   34 1    
     6    3    4 ar   
     7    3   35 1    
     8    4    9 1    
     9    4    5 ar   
    10    5    6 ar   
    11    5    7 1    
    12    6   36 1    
    13    7    8 2    
    14    8    9 1    
    15    8   10 1    
    16   10   15 ar   
    17   10   11 ar   
    18   11   12 ar   
    19   11   37 1    
    20   12   13 ar   
    21   12   38 1    
    22   13   14 ar   
    23   13   39 1    
    24   14   15 ar   
    25   14   16 1    
    26   15   40 1    
    27   16   17 am   BACKBONE|DICT|INTERRES
    28   16   41 1    
    29   17   18 2    
    30   17   19 1    
    31   19   20 1    
    32   19   42 1    
    33   19   43 1    
    34   20   24 ar   
    35   20   21 ar   
    36   21   22 ar   
    37   21   26 1    
    38   22   23 ar   
    39   23   24 ar   
    40   24   25 1    
    41   26   31 ar   
    42   26   27 ar   
    43   27   28 ar   
    44   27   44 1    
    45   28   29 ar   
    46   28   45 1    
    47   29   30 ar   
    48   29   32 1    
    49   30   31 ar   
    50   30   46 1    
    51   31   47 1    
@<TRIPOS>SUBSTRUCTURE
     1 UNK         1 GROUP             0       ****    0 ROOT    
