ZINC13187553_5783
                    3D
 Schrodinger Suite 2024-2.
 56 58  0  0  1  0            999 V2000
    3.5876   54.3009   28.2824 C   0  0  0  0  0  0
    2.3050   53.8760   27.5501 C   0  0  2  0  0  0
    1.6565   54.7480   27.4495 H   0  0  0  0  0  0
    1.5256   52.7839   28.3228 C   0  0  0  0  0  0
    0.2017   52.4249   27.6005 C   0  0  1  0  0  0
   -0.3867   53.3302   27.4906 H   0  0  0  0  0  0
    0.5440   51.8975   26.1862 C   0  0  0  0  0  0
    1.3750   52.8954   25.4598 N   0  0  0  0  0  0
    2.6194   53.3490   26.1294 C   0  0  0  0  0  0
    0.9163   53.4906   23.8587 S   0  0  0  0  0  0
    1.5066   54.8176   23.6814 O   0  0  0  0  0  0
   -0.5272   53.2855   23.6953 O   0  0  0  0  0  0
    1.7186   52.4091   22.6625 C   0  0  0  0  0  0
    0.9476   51.4125   22.0602 C   0  0  0  0  0  0
    1.4812   50.5796   21.0678 C   0  0  0  0  0  0
    2.8139   50.7631   20.6818 C   0  0  0  0  0  0
    3.5905   51.7546   21.2813 C   0  0  0  0  0  0
    3.0568   52.5901   22.2802 C   0  0  0  0  0  0
    3.7992   53.5666   22.9200 O   0  0  0  0  0  0
    5.1552   53.7862   22.5467 C   0  0  0  0  0  0
    0.6484   49.5014   20.4255 C   0  0  0  0  0  0
    1.1639   48.4330   20.0879 O   0  0  0  0  0  0
   -0.6480   49.8365   20.2424 N   0  0  0  0  0  0
   -1.7425   49.0893   19.7654 C   0  0  0  0  0  0
   -1.6951   47.6843   19.6819 C   0  0  0  0  0  0
   -2.7871   46.9592   19.2185 C   0  0  0  0  0  0
   -3.9460   47.6190   18.8321 C   0  0  0  0  0  0
   -4.0137   49.0065   18.9110 C   0  0  0  0  0  0
   -2.9298   49.7748   19.3806 C   0  0  0  0  0  0
   -3.0926   51.2799   19.4491 C   0  0  0  0  0  0
   -4.0893   51.7824   18.8822 O   0  0  0  0  0  0
   -5.3012   46.7163   18.2560 Cl  0  0  0  0  0  0
   -0.6362   51.4194   28.4009 C   0  0  0  0  0  0
    4.2677   53.4601   28.4165 H   0  0  0  0  0  0
    4.1244   55.0730   27.7275 H   0  0  0  0  0  0
    3.3643   54.7075   29.2685 H   0  0  0  0  0  0
    1.3207   53.1251   29.3392 H   0  0  0  0  0  0
    2.1418   51.8942   28.4718 H   0  0  0  0  0  0
   -0.3585   51.6850   25.6149 H   0  0  0  0  0  0
    1.1044   50.9636   26.2436 H   0  0  0  0  0  0
    3.2967   52.5002   26.1731 H   0  0  0  0  0  0
    3.1072   54.1098   25.5169 H   0  0  0  0  0  0
   -0.0838   51.2900   22.3672 H   0  0  0  0  0  0
    3.2494   50.1492   19.9060 H   0  0  0  0  0  0
    4.6117   51.8584   20.9459 H   0  0  0  0  0  0
    5.5644   54.5981   23.1484 H   0  0  0  0  0  0
    5.7690   52.9004   22.7240 H   0  0  0  0  0  0
    5.2361   54.0790   21.4978 H   0  0  0  0  0  0
   -0.9024   50.8056   20.4202 H   0  0  0  0  0  0
   -0.8255   47.1259   19.9893 H   0  0  0  0  0  0
   -2.7348   45.8821   19.1619 H   0  0  0  0  0  0
   -4.9293   49.4878   18.6007 H   0  0  0  0  0  0
   -0.0866   50.4971   28.5460 H   0  0  0  0  0  0
   -0.8957   51.8067   29.3869 H   0  0  0  0  0  0
   -1.5636   51.1701   27.8835 H   0  0  0  0  0  0
   -2.2543   51.9680   20.0811 O   0  5  0  0  0  0
  1  2  1  0  0  0
  1 34  1  0  0  0
  1 35  1  0  0  0
  1 36  1  0  0  0
  2  3  1  0  0  0
  2  9  1  0  0  0
  2  4  1  0  0  0
  4  5  1  0  0  0
  4 37  1  0  0  0
  4 38  1  0  0  0
  5  6  1  0  0  0
  5  7  1  0  0  0
  5 33  1  0  0  0
  7  8  1  0  0  0
  7 39  1  0  0  0
  7 40  1  0  0  0
  8  9  1  0  0  0
  8 10  1  0  0  0
  9 41  1  0  0  0
  9 42  1  0  0  0
 10 11  2  0  0  0
 10 12  2  0  0  0
 10 13  1  0  0  0
 13 18  2  0  0  0
 13 14  1  0  0  0
 14 15  2  0  0  0
 14 43  1  0  0  0
 15 16  1  0  0  0
 15 21  1  0  0  0
 16 17  2  0  0  0
 16 44  1  0  0  0
 17 18  1  0  0  0
 17 45  1  0  0  0
 18 19  1  0  0  0
 19 20  1  0  0  0
 20 46  1  0  0  0
 20 47  1  0  0  0
 20 48  1  0  0  0
 21 22  2  0  0  0
 21 23  1  0  0  0
 23 24  1  0  0  0
 23 49  1  0  0  0
 24 29  2  0  0  0
 24 25  1  0  0  0
 25 26  2  0  0  0
 25 50  1  0  0  0
 26 27  1  0  0  0
 26 51  1  0  0  0
 27 28  2  0  0  0
 27 32  1  0  0  0
 28 29  1  0  0  0
 28 52  1  0  0  0
 29 30  1  0  0  0
 30 31  2  0  0  0
 30 56  1  0  0  0
 33 53  1  0  0  0
 33 54  1  0  0  0
 33 55  1  0  0  0
M  CHG  1  56  -1
M  END
> <i_i_glide_confnum>
82

> <i_i_glide_lignum>
5784

> <i_i_glide_posenum>
378

> <i_i_glide_rotatable_bonds>
7

> <i_m_Source_File_Index>
3979

> <b_m_subgroup_collapsed>
0

> <r_i_docking_score>
-3.78382

> <r_i_glide_ecoul>
-4.66079

> <r_i_glide_eff_state_penalty>
0

> <r_i_glide_einternal>
3.48049

> <r_i_glide_emodel>
-43.1013

> <r_i_glide_energy>
-32.201

> <r_i_glide_erotb>
0.440091

> <r_i_glide_esite>
-0.0176191

> <r_i_glide_evdw>
-27.5402

> <r_i_glide_gscore>
-3.78382

> <r_i_glide_hbond>
-0.156455

> <r_i_glide_ligand_efficiency>
-0.118244

> <r_i_glide_ligand_efficiency_ln>
-0.8473

> <r_i_glide_ligand_efficiency_sa>
-0.375402

> <r_i_glide_lipo>
-1.34044

> <r_i_glide_metal>
0

> <r_i_glide_rewards>
-0.633261

> <s_i_glide_gridfile>
wee1_glide-grid

> <s_m_Source_File>
wee1_decoys_glide_SP.sdf

> <s_m_Source_Path>
/Users/zhangxujun/Desktop

> <s_m_entry_id>
4254

> <s_m_entry_name>
wee1_decoys_glide_SP.3979

> <s_m_subgroup_title>
wee1_decoys_glide_SP

> <s_m_subgroupid>
wee1_decoys_glide_SP


$$$$
