@<TRIPOS>MOLECULE
ZINC34684007_1131
63   66    1
SMALL
USER_CHARGES


@<TRIPOS>ATOM
      1 C1          5.5648   54.2893   28.8820 C.3       1 UNK         0.0000 
      2 C2          4.8138   54.1992   27.5771 C.ar      1 UNK         0.0000 
      3 C3          5.4993   54.2118   26.3623 C.ar      1 UNK         0.0000 
      4 C4          4.7901   54.0968   25.1707 C.ar      1 UNK         0.0000 
      5 C5          3.3995   53.9567   25.1991 C.ar      1 UNK         0.0000 
      6 C6          2.7179   53.9724   26.4162 C.ar      1 UNK         0.0000 
      7 C7          3.4257   54.0880   27.6052 C.ar      1 UNK         0.0000 
      8 S8          2.4874   53.8104   23.6665 S.o2      1 UNK         0.0000 
      9 O9          3.4688   53.7098   22.5802 O.2       1 UNK         0.0000 
     10 O10         1.5059   54.8944   23.6809 O.2       1 UNK         0.0000 
     11 N11         1.5621   52.2761   23.7119 N.pl3     1 UNK         0.0000 
     12 C12         1.6432   51.4065   22.6114 C.ar      1 UNK         0.0000 
     13 C13         2.2392   50.1481   22.7367 C.ar      1 UNK         0.0000 
     14 C14         2.3044   49.2963   21.6340 C.ar      1 UNK         0.0000 
     15 C15         1.8141   49.7028   20.3900 C.ar      1 UNK         0.0000 
     16 C16         1.2278   50.9663   20.2625 C.ar      1 UNK         0.0000 
     17 C17         1.1422   51.8101   21.3686 C.ar      1 UNK         0.0000 
     18 F18         0.7369   51.3807   19.0707 F         1 UNK         0.0000 
     19 C19         1.9591   48.7949   19.1796 C.3       1 UNK         0.0000 
     20 C20         0.3907   52.1965   24.6114 C.3       1 UNK         0.0000 
     21 C21        -0.9305   51.9168   23.8638 C.3       1 UNK         0.0000 
     22 C22        -2.1135   51.9917   24.8433 C.3       1 UNK         0.0000 
     23 N23        -1.9056   50.9383   25.9652 N.4       1 UNK         0.0000 
     24 C24        -0.5563   51.1115   26.7060 C.3       1 UNK         0.0000 
     25 C25         0.5956   51.1105   25.6874 C.3       1 UNK         0.0000 
     26 C26        -3.0605   50.9193   27.0007 C.3       1 UNK         0.0000 
     27 C27        -4.4502   50.6924   26.4129 C.ar      1 UNK         0.0000 
     28 C28        -4.9347   49.3820   26.3317 C.ar      1 UNK         0.0000 
     29 C29        -6.1974   49.1256   25.7995 C.ar      1 UNK         0.0000 
     30 C30        -6.9929   50.1795   25.3540 C.ar      1 UNK         0.0000 
     31 C31        -6.5277   51.4898   25.4460 C.ar      1 UNK         0.0000 
     32 C32        -5.2682   51.7542   25.9847 C.ar      1 UNK         0.0000 
     33 O33        -4.8647   53.0597   26.0798 O.3       1 UNK         0.0000 
     34 H34         6.6110   53.9994   28.7820 H         1 UNK         0.0000 
     35 H35         5.5041   55.2968   29.2922 H         1 UNK         0.0000 
     36 H36         5.1044   53.6105   29.5995 H         1 UNK         0.0000 
     37 H37         6.5752   54.2995   26.3382 H         1 UNK         0.0000 
     38 H38         5.3249   54.1014   24.2320 H         1 UNK         0.0000 
     39 H39         1.6448   53.9144   26.4608 H         1 UNK         0.0000 
     40 H40         2.8926   54.0914   28.5459 H         1 UNK         0.0000 
     41 H41         2.6850   49.8303   23.6730 H         1 UNK         0.0000 
     42 H42         2.7783   48.3330   21.7427 H         1 UNK         0.0000 
     43 H43         0.7044   52.7908   21.2507 H         1 UNK         0.0000 
     44 H44         1.0013   48.3405   18.9212 H         1 UNK         0.0000 
     45 H45         2.3021   49.3679   18.3172 H         1 UNK         0.0000 
     46 H46         2.7006   48.0110   19.3435 H         1 UNK         0.0000 
     47 H47         0.2714   53.1664   25.0895 H         1 UNK         0.0000 
     48 H48        -0.9178   50.9322   23.3938 H         1 UNK         0.0000 
     49 H49        -1.0782   52.6512   23.0712 H         1 UNK         0.0000 
     50 H50        -3.0351   51.7269   24.3235 H         1 UNK         0.0000 
     51 H51        -2.2141   52.9698   25.3150 H         1 UNK         0.0000 
     52 H52        -0.6041   52.0384   27.2805 H         1 UNK         0.0000 
     53 H53        -0.4603   50.2564   27.3786 H         1 UNK         0.0000 
     54 H54         1.5039   51.3092   26.2488 H         1 UNK         0.0000 
     55 H55         0.6890   50.1208   25.2385 H         1 UNK         0.0000 
     56 H56        -2.9934   51.8463   27.5728 H         1 UNK         0.0000 
     57 H57        -2.7973   50.0981   27.6756 H         1 UNK         0.0000 
     58 H58        -4.3297   48.5553   26.6788 H         1 UNK         0.0000 
     59 H59        -6.5606   48.1091   25.7370 H         1 UNK         0.0000 
     60 H60        -7.9728   49.9803   24.9421 H         1 UNK         0.0000 
     61 H61        -7.1505   52.3051   25.1078 H         1 UNK         0.0000 
     62 H62        -4.0685   53.1717   26.5982 H         1 UNK         0.0000 
     63 H63        -1.8790   50.0286   25.5202 H         1 UNK         0.0000 
@<TRIPOS>BOND
     1    1    2 1    
     2    1   34 1    
     3    1   35 1    
     4    1   36 1    
     5    2    7 ar   
     6    2    3 ar   
     7    3    4 ar   
     8    3   37 1    
     9    4    5 ar   
    10    4   38 1    
    11    5    6 ar   
    12    5    8 1    
    13    6    7 ar   
    14    6   39 1    
    15    7   40 1    
    16    8    9 2    
    17    8   10 2    
    18    8   11 1    
    19   11   12 1    
    20   11   20 1    
    21   12   17 ar   
    22   12   13 ar   
    23   13   14 ar   
    24   13   41 1    
    25   14   15 ar   
    26   14   42 1    
    27   15   16 ar   
    28   15   19 1    
    29   16   17 ar   
    30   16   18 1    
    31   17   43 1    
    32   19   44 1    
    33   19   45 1    
    34   19   46 1    
    35   20   25 1    
    36   20   21 1    
    37   20   47 1    
    38   21   22 1    
    39   21   48 1    
    40   21   49 1    
    41   22   23 1    
    42   22   50 1    
    43   22   51 1    
    44   23   24 1    
    45   23   26 1    
    46   23   63 1    
    47   24   25 1    
    48   24   52 1    
    49   24   53 1    
    50   25   54 1    
    51   25   55 1    
    52   26   27 1    
    53   26   56 1    
    54   26   57 1    
    55   27   32 ar   
    56   27   28 ar   
    57   28   29 ar   
    58   28   58 1    
    59   29   30 ar   
    60   29   59 1    
    61   30   31 ar   
    62   30   60 1    
    63   31   32 ar   
    64   31   61 1    
    65   32   33 1    
    66   33   62 1    
@<TRIPOS>SUBSTRUCTURE
     1 UNK         1 GROUP             0       ****    0 ROOT    
