ZINC38700652_5053
                    3D
 Schrodinger Suite 2024-2.
 60 64  0  0  1  0            999 V2000
    8.9810   58.6714   17.7604 C   0  0  0  0  0  0
    7.6051   58.7989   18.4282 C   0  0  0  0  0  0
    6.4383   58.4965   17.4783 C   0  0  0  0  0  0
    6.3810   57.0885   17.2647 O   0  0  0  0  0  0
    5.4824   56.5551   16.3584 C   0  0  0  0  0  0
    4.6368   57.3493   15.5637 C   0  0  0  0  0  0
    3.7597   56.7663   14.6520 C   0  0  0  0  0  0
    3.7147   55.3829   14.5195 C   0  0  0  0  0  0
    4.5362   54.5808   15.3073 C   0  0  0  0  0  0
    5.4167   55.1523   16.2358 C   0  0  0  0  0  0
    6.2598   54.2134   17.1164 C   0  0  2  0  0  0
    6.0642   53.1932   16.7755 H   0  0  0  0  0  0
    5.8326   54.2807   18.5887 C   0  0  0  0  0  0
    4.6480   53.6941   19.0443 C   0  0  0  0  0  0
    4.3039   53.7306   20.3938 C   0  0  0  0  0  0
    5.1314   54.3572   21.3251 C   0  0  0  0  0  0
    6.3059   54.9776   20.8771 C   0  0  0  0  0  0
    6.6715   54.8970   19.5362 C   0  0  0  0  0  0
    7.9286   55.3665   19.2069 O   0  0  0  0  0  0
    8.4736   54.9552   18.0320 C   0  0  0  0  0  0
    7.7765   54.4022   17.0174 C   0  0  0  0  0  0
    8.4374   53.9861   15.8252 C   0  0  0  0  0  0
    8.9877   53.6696   14.8581 N   0  0  0  0  0  0
    9.8257   55.1676   18.0815 N   0  0  0  0  0  0
    4.7328   54.3320   22.6471 O   0  0  0  0  0  0
    5.6019   54.0970   23.6757 C   0  0  0  0  0  0
    6.8134   53.8887   23.5733 O   0  0  0  0  0  0
    4.9012   54.1067   24.9595 C   0  0  0  0  0  0
    3.5357   54.0972   25.2919 C   0  0  0  0  0  0
    3.5059   54.1106   26.7272 C   0  0  0  0  0  0
    2.5024   54.1041   27.7117 C   0  0  0  0  0  0
    2.8779   54.1588   29.0558 C   0  0  0  0  0  0
    4.2214   54.2106   29.4285 C   0  0  0  0  0  0
    5.2462   54.2043   28.4815 C   0  0  0  0  0  0
    4.8572   54.1510   27.1403 C   0  0  0  0  0  0
    5.6953   54.1442   26.0707 O   0  0  0  0  0  0
    1.9273   54.1708   30.0154 F   0  0  0  0  0  0
    2.3288   54.0552   24.3736 C   0  0  0  0  0  0
    9.7828   58.8035   18.4881 H   0  0  0  0  0  0
    9.1150   59.4206   16.9785 H   0  0  0  0  0  0
    9.1088   57.6923   17.3003 H   0  0  0  0  0  0
    7.5453   58.1250   19.2812 H   0  0  0  0  0  0
    7.5011   59.8102   18.8232 H   0  0  0  0  0  0
    5.5043   58.8357   17.9272 H   0  0  0  0  0  0
    6.5769   59.0464   16.5440 H   0  0  0  0  0  0
    4.6428   58.4260   15.6352 H   0  0  0  0  0  0
    3.1186   57.3903   14.0476 H   0  0  0  0  0  0
    3.0381   54.9299   13.8090 H   0  0  0  0  0  0
    4.4766   53.5074   15.1951 H   0  0  0  0  0  0
    3.9949   53.1890   18.3457 H   0  0  0  0  0  0
    3.3872   53.2604   20.7175 H   0  0  0  0  0  0
    6.9736   55.4642   21.5714 H   0  0  0  0  0  0
   10.4050   54.9681   17.2786 H   0  0  0  0  0  0
   10.2985   55.3037   18.9674 H   0  0  0  0  0  0
    1.4587   54.0695   27.4419 H   0  0  0  0  0  0
    4.4652   54.2636   30.4781 H   0  0  0  0  0  0
    6.2879   54.2520   28.7673 H   0  0  0  0  0  0
    1.3862   54.0919   24.9200 H   0  0  0  0  0  0
    2.3207   54.8965   23.6818 H   0  0  0  0  0  0
    2.3163   53.1455   23.7732 H   0  0  0  0  0  0
  1  2  1  0  0  0
  1 39  1  0  0  0
  1 40  1  0  0  0
  1 41  1  0  0  0
  2  3  1  0  0  0
  2 42  1  0  0  0
  2 43  1  0  0  0
  3  4  1  0  0  0
  3 44  1  0  0  0
  3 45  1  0  0  0
  4  5  1  0  0  0
  5 10  2  0  0  0
  5  6  1  0  0  0
  6  7  2  0  0  0
  6 46  1  0  0  0
  7  8  1  0  0  0
  7 47  1  0  0  0
  8  9  2  0  0  0
  8 48  1  0  0  0
  9 10  1  0  0  0
  9 49  1  0  0  0
 10 11  1  0  0  0
 11 12  1  0  0  0
 11 21  1  0  0  0
 11 13  1  0  0  0
 13 18  2  0  0  0
 13 14  1  0  0  0
 14 15  2  0  0  0
 14 50  1  0  0  0
 15 16  1  0  0  0
 15 51  1  0  0  0
 16 17  2  0  0  0
 16 25  1  0  0  0
 17 18  1  0  0  0
 17 52  1  0  0  0
 18 19  1  0  0  0
 19 20  1  0  0  0
 20 21  2  0  0  0
 20 24  1  0  0  0
 21 22  1  0  0  0
 22 23  3  0  0  0
 24 53  1  0  0  0
 24 54  1  0  0  0
 25 26  1  0  0  0
 26 27  2  0  0  0
 26 28  1  0  0  0
 28 36  1  0  0  0
 28 29  2  0  0  0
 29 30  1  0  0  0
 29 38  1  0  0  0
 30 35  2  0  0  0
 30 31  1  0  0  0
 31 32  2  0  0  0
 31 55  1  0  0  0
 32 33  1  0  0  0
 32 37  1  0  0  0
 33 34  2  0  0  0
 33 56  1  0  0  0
 34 35  1  0  0  0
 34 57  1  0  0  0
 35 36  1  0  0  0
 38 58  1  0  0  0
 38 59  1  0  0  0
 38 60  1  0  0  0
M  END
> <i_i_glide_confnum>
72

> <i_i_glide_lignum>
5054

> <i_i_glide_posenum>
373

> <i_i_glide_rotatable_bonds>
8

> <i_m_Source_File_Index>
3225

> <b_m_subgroup_collapsed>
0

> <r_i_docking_score>
-5.13478

> <r_i_glide_ecoul>
-3.58426

> <r_i_glide_eff_state_penalty>
0

> <r_i_glide_einternal>
2.50389

> <r_i_glide_emodel>
-60.2471

> <r_i_glide_energy>
-46.6379

> <r_i_glide_erotb>
0.492703

> <r_i_glide_esite>
0

> <r_i_glide_evdw>
-43.0537

> <r_i_glide_gscore>
-5.13478

> <r_i_glide_hbond>
-0.32

> <r_i_glide_ligand_efficiency>
-0.138778

> <r_i_glide_ligand_efficiency_ln>
-1.11361

> <r_i_glide_ligand_efficiency_sa>
-0.462439

> <r_i_glide_lipo>
-2.53016

> <r_i_glide_metal>
0

> <r_i_glide_rewards>
-0.0870048

> <s_i_glide_gridfile>
wee1_glide-grid

> <s_m_Source_File>
wee1_decoys_glide_SP.sdf

> <s_m_Source_Path>
/Users/zhangxujun/Desktop

> <s_m_entry_id>
3500

> <s_m_entry_name>
wee1_decoys_glide_SP.3225

> <s_m_subgroup_title>
wee1_decoys_glide_SP

> <s_m_subgroupid>
wee1_decoys_glide_SP


$$$$
