@<TRIPOS>MOLECULE
ZINC38915385_5115
49   52    1
SMALL
USER_CHARGES


@<TRIPOS>ATOM
      1 C1         -3.5660   50.8977   28.2522 C.ar      1 UNK         0.0000 
      2 C2         -4.2788   51.1484   27.0814 C.ar      1 UNK         0.0000 
      3 C3         -3.6509   51.7806   26.0098 C.ar      1 UNK         0.0000 
      4 C4         -2.3091   52.1583   26.0947 C.ar      1 UNK         0.0000 
      5 C5         -1.5862   51.9170   27.2779 C.ar      1 UNK         0.0000 
      6 C6         -2.2348   51.2964   28.3528 C.ar      1 UNK         0.0000 
      7 C7         -0.1144   52.2800   27.4383 C.3       1 UNK         0.0000 
      8 S8          0.1188   53.6953   28.5633 S.3       1 UNK         0.0000 
      9 C9          1.9089   53.6771   28.7901 C.2       1 UNK         0.0000 
     10 N10         2.4887   54.4008   29.6562 N.2       1 UNK         0.0000 
     11 N11         3.8677   54.1747   29.6822 N.pl3     1 UNK         0.0000 
     12 C12         4.4091   53.5069   28.5256 C.3       1 UNK         0.0000 
     13 H13         5.1641   52.7830   28.8340 H         1 UNK         0.0000 
     14 S14         3.0014   52.6619   27.7920 S.3       1 UNK         0.0000 
     15 S15         5.1787   54.7440   27.4513 S.3       1 UNK         0.0000 
     16 C16         5.8869   53.7078   26.1416 C.3       1 UNK         0.0000 
     17 C17         6.4229   54.5450   24.9792 C.2       1 UNK         0.0000 
     18 O18         7.0947   55.5505   25.2225 O.2       1 UNK         0.0000 
     19 N19         6.0888   54.1445   23.7365 N.am      1 UNK         0.0000 
     20 N20         6.3650   54.8966   22.6492 N.2       1 UNK         0.0000 
     21 C21         5.8397   54.5696   21.5290 C.2       1 UNK         0.0000 
     22 C22         4.9083   53.5061   21.2293 C.2       1 UNK         0.0000 
     23 C23         3.7512   53.2169   21.8698 C.2       1 UNK         0.0000 
     24 C24         3.0694   53.8379   23.0234 C.2       1 UNK         0.0000 
     25 C25         1.9163   53.3288   23.5037 C.2       1 UNK         0.0000 
     26 C26         1.3607   52.1568   22.8431 C.2       1 UNK         0.0000 
     27 C27         1.9499   51.5922   21.7577 C.2       1 UNK         0.0000 
     28 C28         3.1454   52.1138   21.2495 C.2       1 UNK         0.0000 
     29 N29         3.8456   51.7165   20.2109 N.pl3     1 UNK         0.0000 
     30 C30         5.0326   52.5637   20.0511 C.3       1 UNK         0.0000 
     31 Cl31       -1.5846   52.8965   24.7090 Cl        1 UNK         0.0000 
     32 H32        -4.0351   50.3867   29.0801 H         1 UNK         0.0000 
     33 H33        -5.3124   50.8433   27.0011 H         1 UNK         0.0000 
     34 H34        -4.2052   51.9646   25.0999 H         1 UNK         0.0000 
     35 H35        -1.6943   51.0806   29.2656 H         1 UNK         0.0000 
     36 H36         0.3562   52.4823   26.4766 H         1 UNK         0.0000 
     37 H37         0.3922   51.4045   27.8470 H         1 UNK         0.0000 
     38 H38         4.3551   54.9921   30.0193 H         1 UNK         0.0000 
     39 H39         5.1063   53.0324   25.7999 H         1 UNK         0.0000 
     40 H40         6.6890   53.1019   26.5585 H         1 UNK         0.0000 
     41 H41         5.5136   53.3311   23.5705 H         1 UNK         0.0000 
     42 H42         6.0909   55.1205   20.6272 H         1 UNK         0.0000 
     43 H43         3.4556   54.7271   23.5012 H         1 UNK         0.0000 
     44 H44         1.4064   53.7916   24.3367 H         1 UNK         0.0000 
     45 H45         0.4460   51.7238   23.2184 H         1 UNK         0.0000 
     46 H46         1.4867   50.7280   21.3029 H         1 UNK         0.0000 
     47 H47         5.9010   51.9076   20.0761 H         1 UNK         0.0000 
     48 H48         4.9705   53.0478   19.0758 H         1 UNK         0.0000 
     49 H49         3.6243   50.9484   19.5779 H         1 UNK         0.0000 
@<TRIPOS>BOND
     1    1    6 ar   
     2    1    2 ar   
     3    1   32 1    
     4    2    3 ar   
     5    2   33 1    
     6    3    4 ar   
     7    3   34 1    
     8    4    5 ar   
     9    4   31 1    
    10    5    6 ar   
    11    5    7 1    
    12    6   35 1    
    13    7    8 1    
    14    7   36 1    
    15    7   37 1    
    16    8    9 1    
    17    9   14 1    
    18    9   10 2    
    19   10   11 1    
    20   11   12 1    
    21   11   38 1    
    22   12   13 1    
    23   12   14 1    
    24   12   15 1    
    25   15   16 1    
    26   16   17 1    
    27   16   39 1    
    28   16   40 1    
    29   17   18 2    
    30   17   19 am   BACKBONE|DICT|INTERRES
    31   19   20 1    
    32   19   41 1    
    33   20   21 2    
    34   21   22 1    
    35   21   42 1    
    36   22   30 1    
    37   22   23 2    
    38   23   28 1    
    39   23   24 1    
    40   24   25 2    
    41   24   43 1    
    42   25   26 1    
    43   25   44 1    
    44   26   27 2    
    45   26   45 1    
    46   27   28 1    
    47   27   46 1    
    48   28   29 2    
    49   29   30 1    
    50   29   49 1    
    51   30   47 1    
    52   30   48 1    
@<TRIPOS>SUBSTRUCTURE
     1 UNK         1 GROUP             0       ****    0 ROOT    
