@<TRIPOS>MOLECULE
ZINC35842796_2196
60   63    1
SMALL
USER_CHARGES


@<TRIPOS>ATOM
      1 C1          9.4923   56.3853   18.4058 C.3       1 UNK         0.0000 
      2 C2          8.5603   57.2864   17.6035 C.ar      1 UNK         0.0000 
      3 C3          9.1230   58.3001   16.8193 C.ar      1 UNK         0.0000 
      4 C4          8.3158   59.1230   16.0333 C.ar      1 UNK         0.0000 
      5 C5          6.9370   58.9315   16.0130 C.ar      1 UNK         0.0000 
      6 C6          6.3605   57.9239   16.7820 C.ar      1 UNK         0.0000 
      7 C7          7.1589   57.1088   17.5911 C.ar      1 UNK         0.0000 
      8 N8          6.4980   56.1329   18.3500 N.am      1 UNK         0.0000 
      9 C9          6.5079   56.0799   19.6933 C.2       1 UNK         0.0000 
     10 O10         7.0886   56.8953   20.4148 O.2       1 UNK         0.0000 
     11 N11         5.7875   55.0393   20.1564 N.am      1 UNK         0.0000 
     12 C12         5.5887   54.7323   21.5107 C.ar      1 UNK         0.0000 
     13 C13         4.3301   54.2767   21.9144 C.ar      1 UNK         0.0000 
     14 C14         4.0762   54.0734   23.2739 C.ar      1 UNK         0.0000 
     15 C15         5.0902   54.2836   24.2299 C.ar      1 UNK         0.0000 
     16 N16         6.3045   54.6675   23.7703 N.pl3     1 UNK         0.0000 
     17 C17         6.5922   54.8981   22.4775 C.ar      1 UNK         0.0000 
     18 N18         4.8837   54.1355   25.6555 N.pl3     1 UNK         0.0000 
     19 C19         6.0471   53.7665   26.4902 C.3       1 UNK         0.0000 
     20 C20         6.1879   54.6343   27.7427 C.3       1 UNK         0.0000 
     21 C21         5.3467   54.1379   28.9303 C.3       1 UNK         0.0000 
     22 N22         3.9264   53.8115   28.6832 N.am      1 UNK         0.0000 
     23 C23         3.2321   54.5172   27.5896 C.3       1 UNK         0.0000 
     24 C24         3.5085   53.9631   26.1693 C.3       1 UNK         0.0000 
     25 C25         3.3288   52.8889   29.4992 C.2       1 UNK         0.0000 
     26 O26         3.9044   52.3668   30.4573 O.2       1 UNK         0.0000 
     27 C27         1.8897   52.4977   29.2747 C.ar      1 UNK         0.0000 
     28 C28         1.4740   51.9048   28.0763 C.ar      1 UNK         0.0000 
     29 C29         0.1471   51.5217   27.9042 C.ar      1 UNK         0.0000 
     30 C30        -0.7612   51.6969   28.9419 C.ar      1 UNK         0.0000 
     31 C31        -0.3494   52.2499   30.1496 C.ar      1 UNK         0.0000 
     32 C32         0.9711   52.6500   30.3190 C.ar      1 UNK         0.0000 
     33 F33        -2.0445   51.2982   28.7874 F         1 UNK         0.0000 
     34 H34        10.5084   56.4000   18.0114 H         1 UNK         0.0000 
     35 H35         9.5211   56.6929   19.4507 H         1 UNK         0.0000 
     36 H36         9.1596   55.3487   18.3627 H         1 UNK         0.0000 
     37 H37        10.1924   58.4520   16.8148 H         1 UNK         0.0000 
     38 H38         8.7581   59.9103   15.4406 H         1 UNK         0.0000 
     39 H39         6.3083   59.5814   15.4205 H         1 UNK         0.0000 
     40 H40         5.2861   57.8043   16.7666 H         1 UNK         0.0000 
     41 H41         5.8506   55.5443   17.8488 H         1 UNK         0.0000 
     42 H42         5.2157   54.5398   19.4930 H         1 UNK         0.0000 
     43 H43         3.5371   54.1293   21.1926 H         1 UNK         0.0000 
     44 H44         3.0897   53.7374   23.5518 H         1 UNK         0.0000 
     45 H45         7.5997   55.2363   22.2717 H         1 UNK         0.0000 
     46 H46         6.9709   53.7747   25.9144 H         1 UNK         0.0000 
     47 H47         5.8980   52.7265   26.7785 H         1 UNK         0.0000 
     48 H48         5.9983   55.6890   27.5246 H         1 UNK         0.0000 
     49 H49         7.2257   54.6010   28.0764 H         1 UNK         0.0000 
     50 H50         5.3938   54.9045   29.7053 H         1 UNK         0.0000 
     51 H51         5.8490   53.2366   29.2812 H         1 UNK         0.0000 
     52 H52         2.1543   54.5173   27.7572 H         1 UNK         0.0000 
     53 H53         3.4854   55.5785   27.6460 H         1 UNK         0.0000 
     54 H54         3.3522   52.8918   26.1411 H         1 UNK         0.0000 
     55 H55         2.7871   54.4135   25.4893 H         1 UNK         0.0000 
     56 H56         2.1735   51.6997   27.2843 H         1 UNK         0.0000 
     57 H57        -0.1756   51.0526   26.9864 H         1 UNK         0.0000 
     58 H58        -1.0428   52.3407   30.9696 H         1 UNK         0.0000 
     59 H59         1.2716   53.0616   31.2732 H         1 UNK         0.0000 
     60 H60         7.0368   54.8241   24.4471 H         1 UNK         0.0000 
@<TRIPOS>BOND
     1    1    2 1    
     2    1   34 1    
     3    1   35 1    
     4    1   36 1    
     5    2    7 ar   
     6    2    3 ar   
     7    3    4 ar   
     8    3   37 1    
     9    4    5 ar   
    10    4   38 1    
    11    5    6 ar   
    12    5   39 1    
    13    6    7 ar   
    14    6   40 1    
    15    7    8 1    
    16    8    9 am   BACKBONE|DICT|INTERRES
    17    8   41 1    
    18    9   10 2    
    19    9   11 am   BACKBONE|DICT|INTERRES
    20   11   12 1    
    21   11   42 1    
    22   12   17 ar   
    23   12   13 ar   
    24   13   14 ar   
    25   13   43 1    
    26   14   15 ar   
    27   14   44 1    
    28   15   16 ar   
    29   15   18 1    
    30   16   17 ar   
    31   16   60 1    
    32   17   45 1    
    33   18   24 1    
    34   18   19 1    
    35   19   20 1    
    36   19   46 1    
    37   19   47 1    
    38   20   21 1    
    39   20   48 1    
    40   20   49 1    
    41   21   22 1    
    42   21   50 1    
    43   21   51 1    
    44   22   23 1    
    45   22   25 am   BACKBONE|DICT|INTERRES
    46   23   24 1    
    47   23   52 1    
    48   23   53 1    
    49   24   54 1    
    50   24   55 1    
    51   25   26 2    
    52   25   27 1    
    53   27   32 ar   
    54   27   28 ar   
    55   28   29 ar   
    56   28   56 1    
    57   29   30 ar   
    58   29   57 1    
    59   30   31 ar   
    60   30   33 1    
    61   31   32 ar   
    62   31   58 1    
    63   32   59 1    
@<TRIPOS>SUBSTRUCTURE
     1 UNK         1 GROUP             0       ****    0 ROOT    
