@<TRIPOS>MOLECULE
ZINC23456673_4031
57   60    1
SMALL
USER_CHARGES


@<TRIPOS>ATOM
      1 C1         -0.0273   51.5568   15.3947 C.3       1 UNK         0.0000 
      2 C2          0.0008   52.3696   16.6780 C.3       1 UNK         0.0000 
      3 O3          0.3128   53.6856   16.3706 O.3       1 UNK         0.0000 
      4 C4          1.4768   54.1032   17.0514 C.3       1 UNK         0.0000 
      5 C5          1.8777   52.9051   17.9150 C.3       1 UNK         0.0000 
      6 H6          1.6817   53.0930   18.9713 H         1 UNK         0.0000 
      7 O7          1.0072   51.8752   17.4948 O.3       1 UNK         0.0000 
      8 C8          3.3348   52.4311   17.7256 C.3       1 UNK         0.0000 
      9 N9          4.2919   53.3050   18.4105 N.am      1 UNK         0.0000 
     10 C10         4.6725   53.1536   19.6888 C.2       1 UNK         0.0000 
     11 O11         4.3199   52.2187   20.4099 O.2       1 UNK         0.0000 
     12 C12         5.5043   54.2212   20.1855 C.ar      1 UNK         0.0000 
     13 C13         6.5394   54.8969   19.5315 C.ar      1 UNK         0.0000 
     14 N14         7.2197   55.6919   20.3313 N.2       1 UNK         0.0000 
     15 C15         6.6563   55.5232   21.4987 C.ar      1 UNK         0.0000 
     16 N16         5.5459   54.6982   21.4926 N.pl3     1 UNK         0.0000 
     17 C17         4.7537   54.3586   22.6227 C.ar      1 UNK         0.0000 
     18 C18         3.3887   54.1087   22.4616 C.ar      1 UNK         0.0000 
     19 C19         2.5841   53.8441   23.5575 C.ar      1 UNK         0.0000 
     20 C20         3.1185   53.8225   24.8488 C.ar      1 UNK         0.0000 
     21 C21         4.4857   54.0967   25.0119 C.ar      1 UNK         0.0000 
     22 C22         5.3012   54.3545   23.9117 C.ar      1 UNK         0.0000 
     23 C23         2.2394   53.5083   26.0132 C.ar      1 UNK         0.0000 
     24 C24         1.1522   52.6316   25.8808 C.ar      1 UNK         0.0000 
     25 C25         0.2991   52.3572   26.9525 C.ar      1 UNK         0.0000 
     26 C26         0.5436   52.9600   28.1902 C.ar      1 UNK         0.0000 
     27 C27         1.6209   53.8373   28.3483 C.ar      1 UNK         0.0000 
     28 C28         2.4605   54.0973   27.2626 C.ar      1 UNK         0.0000 
     29 C29         1.9066   54.5156   29.6801 C.3       1 UNK         0.0000 
     30 F30         3.1235   54.1500   30.0816 F         1 UNK         0.0000 
     31 F31         1.8762   55.8395   29.5334 F         1 UNK         0.0000 
     32 F32         1.0250   54.1781   30.6212 F         1 UNK         0.0000 
     33 C33        -0.8870   51.4217   26.7396 C.3       1 UNK         0.0000 
     34 F34        -1.6653   51.9082   25.7700 F         1 UNK         0.0000 
     35 F35        -0.4423   50.2184   26.3723 F         1 UNK         0.0000 
     36 F36        -1.6317   51.2968   27.8379 F         1 UNK         0.0000 
     37 C37        -1.3039   52.3544   17.4602 C.3       1 UNK         0.0000 
     38 H38         0.9410   51.6179   14.8958 H         1 UNK         0.0000 
     39 H39        -0.7968   51.9438   14.7243 H         1 UNK         0.0000 
     40 H40        -0.2411   50.5119   15.6207 H         1 UNK         0.0000 
     41 H41         1.2739   54.9685   17.6821 H         1 UNK         0.0000 
     42 H42         2.2617   54.3567   16.3361 H         1 UNK         0.0000 
     43 H43         3.4271   51.4047   18.0896 H         1 UNK         0.0000 
     44 H44         3.5890   52.3686   16.6662 H         1 UNK         0.0000 
     45 H45         4.7293   54.0295   17.8645 H         1 UNK         0.0000 
     46 H46         6.8287   54.7711   18.4977 H         1 UNK         0.0000 
     47 H47         6.9646   56.0062   22.4134 H         1 UNK         0.0000 
     48 H48         2.9237   54.1421   21.4873 H         1 UNK         0.0000 
     49 H49         1.5331   53.6696   23.3870 H         1 UNK         0.0000 
     50 H50         4.9338   54.0759   25.9948 H         1 UNK         0.0000 
     51 H51         6.3524   54.5419   24.0729 H         1 UNK         0.0000 
     52 H52         0.9626   52.1497   24.9314 H         1 UNK         0.0000 
     53 H53        -0.1087   52.7481   29.0262 H         1 UNK         0.0000 
     54 H54         3.2805   54.7875   27.3927 H         1 UNK         0.0000 
     55 H55        -1.1877   52.9177   18.3880 H         1 UNK         0.0000 
     56 H56        -2.1017   52.8053   16.8659 H         1 UNK         0.0000 
     57 H57        -1.5778   51.3278   17.7065 H         1 UNK         0.0000 
@<TRIPOS>BOND
     1    1    2 1    
     2    1   38 1    
     3    1   39 1    
     4    1   40 1    
     5    2    7 1    
     6    2    3 1    
     7    2   37 1    
     8    3    4 1    
     9    4    5 1    
    10    4   41 1    
    11    4   42 1    
    12    5    6 1    
    13    5    7 1    
    14    5    8 1    
    15    8    9 1    
    16    8   43 1    
    17    8   44 1    
    18    9   10 am   BACKBONE|DICT|INTERRES
    19    9   45 1    
    20   10   11 2    
    21   10   12 1    
    22   12   16 ar   
    23   12   13 ar   
    24   13   14 ar   
    25   13   46 1    
    26   14   15 ar   
    27   15   16 ar   
    28   15   47 1    
    29   16   17 1    
    30   17   22 ar   
    31   17   18 ar   
    32   18   19 ar   
    33   18   48 1    
    34   19   20 ar   
    35   19   49 1    
    36   20   21 ar   
    37   20   23 1    
    38   21   22 ar   
    39   21   50 1    
    40   22   51 1    
    41   23   28 ar   
    42   23   24 ar   
    43   24   25 ar   
    44   24   52 1    
    45   25   26 ar   
    46   25   33 1    
    47   26   27 ar   
    48   26   53 1    
    49   27   28 ar   
    50   27   29 1    
    51   28   54 1    
    52   29   30 1    
    53   29   31 1    
    54   29   32 1    
    55   33   34 1    
    56   33   35 1    
    57   33   36 1    
    58   37   55 1    
    59   37   56 1    
    60   37   57 1    
@<TRIPOS>SUBSTRUCTURE
     1 UNK         1 GROUP             0       ****    0 ROOT    
