ZINC32535255_5591
                    3D
 Schrodinger Suite 2024-2.
 58 61  0  0  1  0            999 V2000
   -7.0026   45.4907   20.5506 C   0  0  0  0  0  0
   -5.5023   45.1588   20.5588 C   0  0  0  0  0  0
   -4.8459   45.7255   21.6891 O   0  0  0  0  0  0
   -4.8978   45.1389   22.9120 C   0  0  0  0  0  0
   -5.4596   44.0699   23.1533 O   0  0  0  0  0  0
   -4.1802   45.9131   23.9283 C   0  0  0  0  0  0
   -4.1121   45.7445   25.3242 C   0  0  0  0  0  0
   -3.3356   46.5995   25.9653 N   0  0  0  0  0  0
   -2.7693   47.4677   25.1703 C   0  0  0  0  0  0
   -3.1832   47.2843   23.4909 S   0  0  0  0  0  0
   -1.9037   48.4201   25.6817 N   0  0  0  0  0  0
   -1.2276   49.3871   25.0259 C   0  0  0  0  0  0
   -1.2974   49.5937   23.8128 O   0  0  0  0  0  0
   -0.3092   50.2451   25.9211 C   0  0  1  0  0  0
   -0.9042   50.5008   26.8000 H   0  0  0  0  0  0
    0.8867   49.4037   26.3906 C   0  0  0  0  0  0
    0.1820   51.8357   25.1556 S   0  0  0  0  0  0
    0.9739   52.6541   26.5143 C   0  0  0  0  0  0
    0.4344   52.6173   27.7165 N   0  0  0  0  0  0
    1.3319   53.0722   28.6507 N   0  0  0  0  0  0
    2.4365   53.4222   27.9653 C   0  0  0  0  0  0
    2.2207   53.3036   26.5752 N   0  0  0  0  0  0
    3.1563   53.7072   25.6466 C   0  0  0  0  0  0
    2.9215   53.8991   24.2306 C   0  0  0  0  0  0
    3.9981   54.0969   23.3650 C   0  0  0  0  0  0
    5.2939   54.2423   23.8382 C   0  0  0  0  0  0
    5.5269   54.2422   25.2043 C   0  0  0  0  0  0
    4.4774   54.0083   26.1354 C   0  0  0  0  0  0
    4.7102   54.0686   27.5426 C   0  0  0  0  0  0
    3.6801   53.8334   28.4444 C   0  0  0  0  0  0
    6.0927   54.4141   28.0835 C   0  0  0  0  0  0
    6.4508   54.4769   22.8830 C   0  0  0  0  0  0
    1.5436   54.0940   23.6180 C   0  0  0  0  0  0
   -4.7881   44.7156   26.2120 C   0  0  0  0  0  0
   -7.4822   45.0977   19.6543 H   0  0  0  0  0  0
   -7.1658   46.5686   20.5709 H   0  0  0  0  0  0
   -7.5104   45.0591   21.4135 H   0  0  0  0  0  0
   -5.3435   44.0797   20.5181 H   0  0  0  0  0  0
   -5.0392   45.5733   19.6630 H   0  0  0  0  0  0
   -1.7397   48.3612   26.6909 H   0  0  0  0  0  0
    0.5518   48.4967   26.8816 H   0  0  0  0  0  0
    1.5044   49.0932   25.5483 H   0  0  0  0  0  0
    1.5042   49.9431   27.1091 H   0  0  0  0  0  0
    3.8128   54.2031   22.3049 H   0  0  0  0  0  0
    6.5328   54.4161   25.5540 H   0  0  0  0  0  0
    3.8557   53.9049   29.5075 H   0  0  0  0  0  0
    6.1002   54.4968   29.1709 H   0  0  0  0  0  0
    6.8148   53.6453   27.8055 H   0  0  0  0  0  0
    6.4331   55.3689   27.6815 H   0  0  0  0  0  0
    6.1290   54.5225   21.8419 H   0  0  0  0  0  0
    6.9571   55.4122   23.1250 H   0  0  0  0  0  0
    7.1874   53.6797   22.9846 H   0  0  0  0  0  0
    1.5686   54.8966   22.8806 H   0  0  0  0  0  0
    1.2232   53.2024   23.0805 H   0  0  0  0  0  0
    0.8013   54.3980   24.3539 H   0  0  0  0  0  0
   -5.5460   45.1794   26.8445 H   0  0  0  0  0  0
   -5.2928   43.9262   25.6566 H   0  0  0  0  0  0
   -4.0833   44.2189   26.8817 H   0  0  0  0  0  0
  1  2  1  0  0  0
  1 35  1  0  0  0
  1 36  1  0  0  0
  1 37  1  0  0  0
  2  3  1  0  0  0
  2 38  1  0  0  0
  2 39  1  0  0  0
  3  4  1  0  0  0
  4  5  2  0  0  0
  4  6  1  0  0  0
  6 10  1  0  0  0
  6  7  2  0  0  0
  7  8  1  0  0  0
  7 34  1  0  0  0
  8  9  2  0  0  0
  9 10  1  0  0  0
  9 11  1  0  0  0
 11 12  1  0  0  0
 11 40  1  0  0  0
 12 13  2  0  0  0
 12 14  1  0  0  0
 14 15  1  0  0  0
 14 16  1  0  0  0
 14 17  1  0  0  0
 16 41  1  0  0  0
 16 42  1  0  0  0
 16 43  1  0  0  0
 17 18  1  0  0  0
 18 22  1  0  0  0
 18 19  2  0  0  0
 19 20  1  0  0  0
 20 21  2  0  0  0
 21 30  1  0  0  0
 21 22  1  0  0  0
 22 23  1  0  0  0
 23 28  2  0  0  0
 23 24  1  0  0  0
 24 25  2  0  0  0
 24 33  1  0  0  0
 25 26  1  0  0  0
 25 44  1  0  0  0
 26 27  2  0  0  0
 26 32  1  0  0  0
 27 28  1  0  0  0
 27 45  1  0  0  0
 28 29  1  0  0  0
 29 30  2  0  0  0
 29 31  1  0  0  0
 30 46  1  0  0  0
 31 47  1  0  0  0
 31 48  1  0  0  0
 31 49  1  0  0  0
 32 50  1  0  0  0
 32 51  1  0  0  0
 32 52  1  0  0  0
 33 53  1  0  0  0
 33 54  1  0  0  0
 33 55  1  0  0  0
 34 56  1  0  0  0
 34 57  1  0  0  0
 34 58  1  0  0  0
M  END
> <i_i_glide_confnum>
35

> <i_i_glide_lignum>
5592

> <i_i_glide_posenum>
235

> <i_i_glide_rotatable_bonds>
8

> <i_m_Source_File_Index>
1179

> <b_m_subgroup_collapsed>
0

> <r_i_docking_score>
-6.27574

> <r_i_glide_ecoul>
-6.9378

> <r_i_glide_eff_state_penalty>
0

> <r_i_glide_einternal>
9.11774

> <r_i_glide_emodel>
-61.3378

> <r_i_glide_energy>
-46.7318

> <r_i_glide_erotb>
0.607644

> <r_i_glide_esite>
-0.16856

> <r_i_glide_evdw>
-39.794

> <r_i_glide_gscore>
-6.27574

> <r_i_glide_hbond>
-0.16

> <r_i_glide_ligand_efficiency>
-0.190174

> <r_i_glide_ligand_efficiency_ln>
-1.39569

> <r_i_glide_ligand_efficiency_sa>
-0.60999

> <r_i_glide_lipo>
-2.72678

> <r_i_glide_metal>
0

> <r_i_glide_rewards>
-0.797679

> <s_i_glide_gridfile>
wee1_glide-grid

> <s_m_Source_File>
wee1_decoys_glide_SP.sdf

> <s_m_Source_Path>
/Users/zhangxujun/Desktop

> <s_m_entry_id>
1454

> <s_m_entry_name>
wee1_decoys_glide_SP.1179

> <s_m_subgroup_title>
wee1_decoys_glide_SP

> <s_m_subgroupid>
wee1_decoys_glide_SP


$$$$
