@<TRIPOS>MOLECULE
ZINC56207217_4599
48   49    1
SMALL
USER_CHARGES


@<TRIPOS>ATOM
      1 C1          4.3392   54.5324   26.1584 C.3       1 UNK         0.0000 
      2 C2          3.0865   53.7055   26.3810 C.ar      1 UNK         0.0000 
      3 C3          2.2512   53.3969   25.3061 C.ar      1 UNK         0.0000 
      4 C4          1.1038   52.6311   25.5069 C.ar      1 UNK         0.0000 
      5 C5          0.7719   52.1674   26.7905 C.ar      1 UNK         0.0000 
      6 C6          1.6147   52.4768   27.8735 C.ar      1 UNK         0.0000 
      7 C7          2.7585   53.2535   27.6606 C.ar      1 UNK         0.0000 
      8 C8          1.3094   51.9842   29.2818 C.3       1 UNK         0.0000 
      9 N9         -0.3619   51.3625   27.0191 N.am      1 UNK         0.0000 
     10 C10        -1.5640   51.4576   26.4185 C.2       1 UNK         0.0000 
     11 O11        -1.8592   52.3189   25.5843 O.2       1 UNK         0.0000 
     12 N12        -2.3893   50.4968   26.8822 N.am      1 UNK         0.0000 
     13 C13        -3.7316   50.4093   26.7352 C.2       1 UNK         0.0000 
     14 O14        -4.4245   51.2115   26.0979 O.2       1 UNK         0.0000 
     15 C15        -4.3961   49.2165   27.4787 C.3       1 UNK         0.0000 
     16 H16        -3.6964   48.3823   27.3830 H         1 UNK         0.0000 
     17 C17        -5.7129   48.7765   26.8299 C.3       1 UNK         0.0000 
     18 N18        -4.4954   49.4444   28.9309 N.pl3     1 UNK         0.0000 
     19 C19        -5.3703   50.3157   29.6050 C.ar      1 UNK         0.0000 
     20 C20        -6.0884   51.3397   28.9759 C.ar      1 UNK         0.0000 
     21 C21        -6.9031   52.1958   29.7135 C.ar      1 UNK         0.0000 
     22 C22        -7.0376   52.0220   31.0934 C.ar      1 UNK         0.0000 
     23 C23        -6.3497   50.9805   31.7246 C.ar      1 UNK         0.0000 
     24 C24        -5.5055   50.1509   30.9853 C.ar      1 UNK         0.0000 
     25 F25        -6.4950   50.7789   33.0551 F         1 UNK         0.0000 
     26 O26        -7.7955   52.8939   31.8352 O.3       1 UNK         0.0000 
     27 C27        -9.1887   52.6123   31.8252 C.3       1 UNK         0.0000 
     28 F28        -7.5481   53.2061   29.0858 F         1 UNK         0.0000 
     29 H29         5.1619   53.8935   25.8351 H         1 UNK         0.0000 
     30 H30         4.1696   55.2895   25.3920 H         1 UNK         0.0000 
     31 H31         4.6345   55.0603   27.0664 H         1 UNK         0.0000 
     32 H32         2.4929   53.7421   24.3113 H         1 UNK         0.0000 
     33 H33         0.4871   52.3890   24.6548 H         1 UNK         0.0000 
     34 H34         3.4062   53.4945   28.4904 H         1 UNK         0.0000 
     35 H35         2.0630   52.2923   30.0072 H         1 UNK         0.0000 
     36 H36         0.3399   52.3564   29.6145 H         1 UNK         0.0000 
     37 H37         1.2590   50.8971   29.2823 H         1 UNK         0.0000 
     38 H38        -0.2886   50.7199   27.7939 H         1 UNK         0.0000 
     39 H39        -1.9769   49.7832   27.4786 H         1 UNK         0.0000 
     40 H40        -5.5496   48.5225   25.7812 H         1 UNK         0.0000 
     41 H41        -6.0934   47.8913   27.3391 H         1 UNK         0.0000 
     42 H42        -6.4720   49.5559   26.8801 H         1 UNK         0.0000 
     43 H43        -3.8340   48.9190   29.4973 H         1 UNK         0.0000 
     44 H44        -6.0105   51.5107   27.9167 H         1 UNK         0.0000 
     45 H45        -4.9610   49.3696   31.4961 H         1 UNK         0.0000 
     46 H46        -9.7037   53.3112   32.4843 H         1 UNK         0.0000 
     47 H47        -9.4009   51.6017   32.1813 H         1 UNK         0.0000 
     48 H48        -9.6136   52.7247   30.8249 H         1 UNK         0.0000 
@<TRIPOS>BOND
     1    1    2 1    
     2    1   29 1    
     3    1   30 1    
     4    1   31 1    
     5    2    7 ar   
     6    2    3 ar   
     7    3    4 ar   
     8    3   32 1    
     9    4    5 ar   
    10    4   33 1    
    11    5    6 ar   
    12    5    9 1    
    13    6    7 ar   
    14    6    8 1    
    15    7   34 1    
    16    8   35 1    
    17    8   36 1    
    18    8   37 1    
    19    9   10 am   BACKBONE|DICT|INTERRES
    20    9   38 1    
    21   10   11 2    
    22   10   12 am   BACKBONE|DICT|INTERRES
    23   12   13 am   BACKBONE|DICT|INTERRES
    24   12   39 1    
    25   13   14 2    
    26   13   15 1    
    27   15   16 1    
    28   15   17 1    
    29   15   18 1    
    30   17   40 1    
    31   17   41 1    
    32   17   42 1    
    33   18   19 1    
    34   18   43 1    
    35   19   24 ar   
    36   19   20 ar   
    37   20   21 ar   
    38   20   44 1    
    39   21   22 ar   
    40   21   28 1    
    41   22   23 ar   
    42   22   26 1    
    43   23   24 ar   
    44   23   25 1    
    45   24   45 1    
    46   26   27 1    
    47   27   46 1    
    48   27   47 1    
    49   27   48 1    
@<TRIPOS>SUBSTRUCTURE
     1 UNK         1 GROUP             0       ****    0 ROOT    
