ZINC25447193_3222
                    3D
 Schrodinger Suite 2024-2.
 58 61  0  0  1  0            999 V2000
    6.4140   53.3430   17.1709 C   0  0  0  0  0  0
    6.5337   54.8616   17.4542 C   0  0  0  0  0  0
    7.6950   55.4251   16.5969 C   0  0  0  0  0  0
    5.2247   55.5678   17.0225 C   0  0  0  0  0  0
    6.7982   55.0991   18.9518 C   0  0  0  0  0  0
    7.9086   55.6989   19.5573 C   0  0  0  0  0  0
    7.7244   55.6966   21.2804 S   0  0  0  0  0  0
    6.1973   54.8967   21.0584 C   0  0  0  0  0  0
    5.8732   54.6855   19.8069 N   0  0  0  0  0  0
    5.3514   54.4966   22.0814 N   0  0  0  0  0  0
    5.5819   54.4965   23.4156 C   0  0  0  0  0  0
    6.6709   54.7397   23.9394 O   0  0  0  0  0  0
    4.3797   54.1541   24.2756 C   0  0  0  0  0  0
    4.5269   54.0064   25.6644 C   0  0  0  0  0  0
    3.4308   53.6994   26.4700 C   0  0  0  0  0  0
    2.1675   53.5412   25.9024 C   0  0  0  0  0  0
    1.9925   53.7180   24.5303 C   0  0  0  0  0  0
    3.0904   54.0247   23.7269 C   0  0  0  0  0  0
    0.7241   53.7044   23.9478 N   0  0  0  0  0  0
   -0.3455   52.3069   24.0000 S   0  0  0  0  0  0
   -0.2317   51.6997   25.3294 O   0  0  0  0  0  0
   -1.6375   52.7702   23.4815 O   0  0  0  0  0  0
    0.3368   51.1790   22.7932 C   0  0  0  0  0  0
    1.2191   50.1766   23.1898 C   0  0  0  0  0  0
    1.7267   49.2966   22.2392 C   0  0  0  0  0  0
    1.3556   49.3804   20.9011 C   0  0  0  0  0  0
    0.4940   50.4247   20.4838 C   0  0  0  0  0  0
   -0.0051   51.3083   21.4444 C   0  0  0  0  0  0
    0.0530   50.5964   19.1850 O   0  0  0  0  0  0
   -0.0954   49.4480   18.3556 C   0  0  0  0  0  0
    1.2302   48.9506   17.7672 C   0  0  0  0  0  0
    2.3623   48.8821   18.7987 C   0  0  0  0  0  0
    1.9045   48.4361   20.0636 O   0  0  0  0  0  0
    6.2727   53.1393   16.1084 H   0  0  0  0  0  0
    5.5703   52.8976   17.7001 H   0  0  0  0  0  0
    7.3069   52.8033   17.4919 H   0  0  0  0  0  0
    7.8178   56.4984   16.7459 H   0  0  0  0  0  0
    8.6452   54.9531   16.8526 H   0  0  0  0  0  0
    7.5268   55.2605   15.5309 H   0  0  0  0  0  0
    5.2686   56.6399   17.2189 H   0  0  0  0  0  0
    5.0274   55.4362   15.9572 H   0  0  0  0  0  0
    4.3591   55.1803   17.5615 H   0  0  0  0  0  0
    8.7941   56.1119   19.0958 H   0  0  0  0  0  0
    4.4724   54.1074   21.7820 H   0  0  0  0  0  0
    5.4981   54.1139   26.1303 H   0  0  0  0  0  0
    3.5617   53.5776   27.5345 H   0  0  0  0  0  0
    1.3201   53.3214   26.5371 H   0  0  0  0  0  0
    2.9132   54.1801   22.6710 H   0  0  0  0  0  0
    0.6112   54.2711   23.1219 H   0  0  0  0  0  0
    1.5012   50.0658   24.2289 H   0  0  0  0  0  0
    2.4098   48.5147   22.5252 H   0  0  0  0  0  0
   -0.6825   52.0922   21.1334 H   0  0  0  0  0  0
   -0.7779   49.7068   17.5451 H   0  0  0  0  0  0
   -0.6025   48.6547   18.9089 H   0  0  0  0  0  0
    1.5476   49.5969   16.9486 H   0  0  0  0  0  0
    1.0774   47.9636   17.3317 H   0  0  0  0  0  0
    2.8898   49.8350   18.8857 H   0  0  0  0  0  0
    3.1226   48.1692   18.4781 H   0  0  0  0  0  0
  1  2  1  0  0  0
  1 34  1  0  0  0
  1 35  1  0  0  0
  1 36  1  0  0  0
  2  3  1  0  0  0
  2  4  1  0  0  0
  2  5  1  0  0  0
  3 37  1  0  0  0
  3 38  1  0  0  0
  3 39  1  0  0  0
  4 40  1  0  0  0
  4 41  1  0  0  0
  4 42  1  0  0  0
  5  9  1  0  0  0
  5  6  2  0  0  0
  6  7  1  0  0  0
  6 43  1  0  0  0
  7  8  1  0  0  0
  8  9  2  0  0  0
  8 10  1  0  0  0
 10 11  1  0  0  0
 10 44  1  0  0  0
 11 12  2  0  0  0
 11 13  1  0  0  0
 13 18  2  0  0  0
 13 14  1  0  0  0
 14 15  2  0  0  0
 14 45  1  0  0  0
 15 16  1  0  0  0
 15 46  1  0  0  0
 16 17  2  0  0  0
 16 47  1  0  0  0
 17 18  1  0  0  0
 17 19  1  0  0  0
 18 48  1  0  0  0
 19 20  1  0  0  0
 19 49  1  0  0  0
 20 21  2  0  0  0
 20 22  2  0  0  0
 20 23  1  0  0  0
 23 28  2  0  0  0
 23 24  1  0  0  0
 24 25  2  0  0  0
 24 50  1  0  0  0
 25 26  1  0  0  0
 25 51  1  0  0  0
 26 33  1  0  0  0
 26 27  2  0  0  0
 27 28  1  0  0  0
 27 29  1  0  0  0
 28 52  1  0  0  0
 29 30  1  0  0  0
 30 31  1  0  0  0
 30 53  1  0  0  0
 30 54  1  0  0  0
 31 32  1  0  0  0
 31 55  1  0  0  0
 31 56  1  0  0  0
 32 33  1  0  0  0
 32 57  1  0  0  0
 32 58  1  0  0  0
M  END
> <i_i_glide_confnum>
47

> <i_i_glide_lignum>
3223

> <i_i_glide_posenum>
244

> <i_i_glide_rotatable_bonds>
7

> <i_m_Source_File_Index>
5912

> <b_m_subgroup_collapsed>
0

> <r_i_docking_score>
-4.58255

> <r_i_glide_ecoul>
-3.3015

> <r_i_glide_eff_state_penalty>
0

> <r_i_glide_einternal>
4.60232

> <r_i_glide_emodel>
-54.7989

> <r_i_glide_energy>
-44.1657

> <r_i_glide_erotb>
0.513076

> <r_i_glide_esite>
0

> <r_i_glide_evdw>
-40.8642

> <r_i_glide_gscore>
-4.58255

> <r_i_glide_hbond>
0

> <r_i_glide_ligand_efficiency>
-0.138865

> <r_i_glide_ligand_efficiency_ln>
-1.01914

> <r_i_glide_ligand_efficiency_sa>
-0.445415

> <r_i_glide_lipo>
-2.10861

> <r_i_glide_metal>
0

> <r_i_glide_rewards>
-0.44858

> <s_i_glide_gridfile>
wee1_glide-grid

> <s_m_Source_File>
wee1_decoys_glide_SP.sdf

> <s_m_Source_Path>
/Users/zhangxujun/Desktop

> <s_m_entry_id>
6187

> <s_m_entry_name>
wee1_decoys_glide_SP.5912

> <s_m_subgroup_title>
wee1_decoys_glide_SP

> <s_m_subgroupid>
wee1_decoys_glide_SP


$$$$
