@<TRIPOS>MOLECULE
ZINC03631462_943
58   60    1
SMALL
USER_CHARGES


@<TRIPOS>ATOM
      1 C1         -3.5471   50.0118   24.0958 C.3       1 UNK         0.0000 
      2 C2         -3.6445   50.9412   22.8809 C.3       1 UNK         0.0000 
      3 O3         -2.3715   51.0921   22.2489 O.3       1 UNK         0.0000 
      4 C4         -1.5195   52.0930   22.5909 C.2       1 UNK         0.0000 
      5 O5         -1.8271   52.9715   23.3997 O.2       1 UNK         0.0000 
      6 C6         -0.1504   52.0081   21.9949 C.2       1 UNK         0.0000 
      7 C7          0.1558   51.2724   20.8867 C.2       1 UNK         0.0000 
      8 N8          1.4594   51.2045   20.4457 N.pl3     1 UNK         0.0000 
      9 C9          2.5347   51.8400   21.0242 C.2       1 UNK         0.0000 
     10 C10         2.3530   52.6280   22.1177 C.2       1 UNK         0.0000 
     11 C11         0.9724   52.7075   22.8296 C.3       1 UNK         0.0000 
     12 H12         0.7042   53.7613   22.9178 H         1 UNK         0.0000 
     13 C13         1.0028   52.3023   24.3232 C.ar      1 UNK         0.0000 
     14 C14         0.6473   51.0034   24.7019 C.ar      1 UNK         0.0000 
     15 C15         0.4542   50.6672   26.0496 C.ar      1 UNK         0.0000 
     16 C16         0.7054   51.6245   27.0359 C.ar      1 UNK         0.0000 
     17 C17         1.1459   52.8995   26.6776 C.ar      1 UNK         0.0000 
     18 C18         1.2800   53.2344   25.3297 C.ar      1 UNK         0.0000 
     19 Br19        1.5086   54.2277   28.0005 Br        1 UNK         0.0000 
     20 O20         0.4981   51.2975   28.3528 O.3       1 UNK         0.0000 
     21 O21         0.0503   49.4240   26.4787 O.3       1 UNK         0.0000 
     22 C22        -0.3706   48.4569   25.5278 C.3       1 UNK         0.0000 
     23 C23         3.4397   53.5045   22.6036 C.2       1 UNK         0.0000 
     24 O24         3.1811   54.4825   23.3059 O.2       1 UNK         0.0000 
     25 C25         4.8516   53.2500   22.0101 C.3       1 UNK         0.0000 
     26 H26         5.1771   52.3258   22.4817 H         1 UNK         0.0000 
     27 C27         4.7739   52.9520   20.4737 C.3       1 UNK         0.0000 
     28 H28         5.7585   52.6490   20.1126 H         1 UNK         0.0000 
     29 C29         3.8519   51.7245   20.2507 C.3       1 UNK         0.0000 
     30 C30         4.3618   54.1550   19.5856 C.3       1 UNK         0.0000 
     31 C31         5.9049   54.2865   22.4844 C.2       1 UNK         0.0000 
     32 O32         6.0995   54.4844   23.6867 O.2       1 UNK         0.0000 
     33 O33         6.5749   54.8967   21.4886 O.3       1 UNK         0.0000 
     34 C34         7.4750   55.9569   21.7538 C.3       1 UNK         0.0000 
     35 C35        -0.7959   50.5542   19.9332 C.3       1 UNK         0.0000 
     36 H36        -4.5224   49.8845   24.5653 H         1 UNK         0.0000 
     37 H37        -3.1882   49.0235   23.8058 H         1 UNK         0.0000 
     38 H38        -2.8702   50.4169   24.8498 H         1 UNK         0.0000 
     39 H39        -4.0614   51.9003   23.1960 H         1 UNK         0.0000 
     40 H40        -4.3402   50.5169   22.1558 H         1 UNK         0.0000 
     41 H41         1.6570   50.5919   19.6675 H         1 UNK         0.0000 
     42 H42         0.4686   50.2715   23.9295 H         1 UNK         0.0000 
     43 H43         1.5454   54.2487   25.0771 H         1 UNK         0.0000 
     44 H44         0.0787   50.4312   28.4170 H         1 UNK         0.0000 
     45 H45        -0.8957   47.6585   26.0505 H         1 UNK         0.0000 
     46 H46        -1.0654   48.8638   24.7956 H         1 UNK         0.0000 
     47 H47         0.4847   48.0272   25.0050 H         1 UNK         0.0000 
     48 H48         4.3390   50.7777   20.4809 H         1 UNK         0.0000 
     49 H49         3.6434   51.6976   19.1792 H         1 UNK         0.0000 
     50 H50         3.5044   54.6795   19.9922 H         1 UNK         0.0000 
     51 H51         5.1601   54.8882   19.4826 H         1 UNK         0.0000 
     52 H52         4.1108   53.8427   18.5716 H         1 UNK         0.0000 
     53 H53         8.2881   55.9562   21.0271 H         1 UNK         0.0000 
     54 H54         6.9347   56.8965   21.6705 H         1 UNK         0.0000 
     55 H55         7.9043   55.9085   22.7537 H         1 UNK         0.0000 
     56 H56        -1.7810   51.0167   19.9006 H         1 UNK         0.0000 
     57 H57        -0.4282   50.5766   18.9063 H         1 UNK         0.0000 
     58 H58        -0.9067   49.5107   20.2287 H         1 UNK         0.0000 
@<TRIPOS>BOND
     1    1    2 1    
     2    1   36 1    
     3    1   37 1    
     4    1   38 1    
     5    2    3 1    
     6    2   39 1    
     7    2   40 1    
     8    3    4 1    
     9    4    5 2    
    10    4    6 1    
    11    6   11 1    
    12    6    7 2    
    13    7    8 1    
    14    7   35 1    
    15    8    9 1    
    16    8   41 1    
    17    9   29 1    
    18    9   10 2    
    19   10   11 1    
    20   10   23 1    
    21   11   12 1    
    22   11   13 1    
    23   13   18 ar   
    24   13   14 ar   
    25   14   15 ar   
    26   14   42 1    
    27   15   16 ar   
    28   15   21 1    
    29   16   17 ar   
    30   16   20 1    
    31   17   18 ar   
    32   17   19 1    
    33   18   43 1    
    34   20   44 1    
    35   21   22 1    
    36   22   45 1    
    37   22   46 1    
    38   22   47 1    
    39   23   24 2    
    40   23   25 1    
    41   25   26 1    
    42   25   27 1    
    43   25   31 1    
    44   27   28 1    
    45   27   29 1    
    46   27   30 1    
    47   29   48 1    
    48   29   49 1    
    49   30   50 1    
    50   30   51 1    
    51   30   52 1    
    52   31   32 2    
    53   31   33 1    
    54   33   34 1    
    55   34   53 1    
    56   34   54 1    
    57   34   55 1    
    58   35   56 1    
    59   35   57 1    
    60   35   58 1    
@<TRIPOS>SUBSTRUCTURE
     1 UNK         1 GROUP             0       ****    0 ROOT    
