@<TRIPOS>MOLECULE
ZINC16573745_4483
58   60    1
SMALL
USER_CHARGES


@<TRIPOS>ATOM
      1 C1          2.5536   53.8299   16.0497 C.3       1 UNK         0.0000 
      2 C2          4.0014   53.3494   16.2356 C.3       1 UNK         0.0000 
      3 C3          4.6971   53.8630   17.5207 C.3       1 UNK         0.0000 
      4 H4          4.7050   54.9541   17.4349 H         1 UNK         0.0000 
      5 C5          6.1860   53.4219   17.4898 C.3       1 UNK         0.0000 
      6 C6          3.8914   53.5245   18.8328 C.3       1 UNK         0.0000 
      7 H7          2.9614   54.0918   18.7685 H         1 UNK         0.0000 
      8 C8          4.5623   54.0852   20.1267 C.2       1 UNK         0.0000 
      9 O9          5.4890   54.8959   20.0537 O.2       1 UNK         0.0000 
     10 N10         4.0346   53.6560   21.2909 N.am      1 UNK         0.0000 
     11 C11         4.4816   53.9827   22.5566 C.2       1 UNK         0.0000 
     12 N12         5.7090   54.2856   22.9197 N.2       1 UNK         0.0000 
     13 N13         5.8154   54.4963   24.2882 N.2       1 UNK         0.0000 
     14 C14         4.6716   54.3489   24.9206 C.2       1 UNK         0.0000 
     15 S15         3.3344   53.9761   23.8537 S.3       1 UNK         0.0000 
     16 C16         4.5090   54.4149   26.4097 C.ar      1 UNK         0.0000 
     17 C17         5.6405   54.4260   27.2373 C.ar      1 UNK         0.0000 
     18 C18         5.5041   54.4668   28.6231 C.ar      1 UNK         0.0000 
     19 C19         4.2387   54.4961   29.2034 C.ar      1 UNK         0.0000 
     20 C20         3.1050   54.4986   28.3960 C.ar      1 UNK         0.0000 
     21 C21         3.2418   54.4527   27.0086 C.ar      1 UNK         0.0000 
     22 Br22        1.3727   54.5834   29.1810 Br        1 UNK         0.0000 
     23 N23         3.5044   52.0971   18.8926 N.am      1 UNK         0.0000 
     24 C24         2.4495   51.5750   19.5366 C.2       1 UNK         0.0000 
     25 O25         1.7153   52.2398   20.2671 O.2       1 UNK         0.0000 
     26 N26         2.3047   50.2613   19.2676 N.am      1 UNK         0.0000 
     27 C27         1.3000   49.3714   19.7128 C.ar      1 UNK         0.0000 
     28 C28         0.4999   49.6237   20.8418 C.ar      1 UNK         0.0000 
     29 C29        -0.5093   48.7403   21.2162 C.ar      1 UNK         0.0000 
     30 C30        -0.7325   47.5797   20.4805 C.ar      1 UNK         0.0000 
     31 C31         0.0705   47.3024   19.3711 C.ar      1 UNK         0.0000 
     32 C32         1.0896   48.1812   18.9882 C.ar      1 UNK         0.0000 
     33 C33         1.9398   47.8176   17.7784 C.3       1 UNK         0.0000 
     34 C34        -1.8376   46.6225   20.8850 C.3       1 UNK         0.0000 
     35 H35         2.1811   53.5601   15.0609 H         1 UNK         0.0000 
     36 H36         1.8819   53.3824   16.7845 H         1 UNK         0.0000 
     37 H37         2.4820   54.9135   16.1445 H         1 UNK         0.0000 
     38 H38         4.5750   53.6687   15.3628 H         1 UNK         0.0000 
     39 H39         4.0215   52.2583   16.2140 H         1 UNK         0.0000 
     40 H40         6.3034   52.3473   17.6102 H         1 UNK         0.0000 
     41 H41         6.6437   53.6827   16.5336 H         1 UNK         0.0000 
     42 H42         6.7953   53.8998   18.2540 H         1 UNK         0.0000 
     43 H43         3.1956   53.0919   21.2229 H         1 UNK         0.0000 
     44 H44         6.6328   54.3918   26.8148 H         1 UNK         0.0000 
     45 H45         6.3823   54.4771   29.2500 H         1 UNK         0.0000 
     46 H46         4.1442   54.5210   30.2766 H         1 UNK         0.0000 
     47 H47         2.3492   54.4489   26.4038 H         1 UNK         0.0000 
     48 H48         4.1809   51.4529   18.4830 H         1 UNK         0.0000 
     49 H49         2.9305   49.8831   18.5662 H         1 UNK         0.0000 
     50 H50         0.6485   50.4992   21.4550 H         1 UNK         0.0000 
     51 H51        -1.1127   48.9613   22.0851 H         1 UNK         0.0000 
     52 H52        -0.0974   46.3963   18.8067 H         1 UNK         0.0000 
     53 H53         1.9005   48.6134   17.0314 H         1 UNK         0.0000 
     54 H54         2.9830   47.6957   18.0805 H         1 UNK         0.0000 
     55 H55         1.6201   46.8907   17.2968 H         1 UNK         0.0000 
     56 H56        -2.7012   47.1761   21.2571 H         1 UNK         0.0000 
     57 H57        -1.4907   45.9532   21.6731 H         1 UNK         0.0000 
     58 H58        -2.1819   46.0309   20.0357 H         1 UNK         0.0000 
@<TRIPOS>BOND
     1    1    2 1    
     2    1   35 1    
     3    1   36 1    
     4    1   37 1    
     5    2    3 1    
     6    2   38 1    
     7    2   39 1    
     8    3    4 1    
     9    3    5 1    
    10    3    6 1    
    11    5   40 1    
    12    5   41 1    
    13    5   42 1    
    14    6    7 1    
    15    6    8 1    
    16    6   23 1    
    17    8    9 2    
    18    8   10 am   BACKBONE|DICT|INTERRES
    19   10   11 am   BACKBONE|DICT|INTERRES
    20   10   43 1    
    21   11   15 1    
    22   11   12 2    
    23   12   13 1    
    24   13   14 2    
    25   14   15 1    
    26   14   16 1    
    27   16   21 ar   
    28   16   17 ar   
    29   17   18 ar   
    30   17   44 1    
    31   18   19 ar   
    32   18   45 1    
    33   19   20 ar   
    34   19   46 1    
    35   20   21 ar   
    36   20   22 1    
    37   21   47 1    
    38   23   24 am   BACKBONE|DICT|INTERRES
    39   23   48 1    
    40   24   25 2    
    41   24   26 am   BACKBONE|DICT|INTERRES
    42   26   27 1    
    43   26   49 1    
    44   27   32 ar   
    45   27   28 ar   
    46   28   29 ar   
    47   28   50 1    
    48   29   30 ar   
    49   29   51 1    
    50   30   31 ar   
    51   30   34 1    
    52   31   32 ar   
    53   31   52 1    
    54   32   33 1    
    55   33   53 1    
    56   33   54 1    
    57   33   55 1    
    58   34   56 1    
    59   34   57 1    
    60   34   58 1    
@<TRIPOS>SUBSTRUCTURE
     1 UNK         1 GROUP             0       ****    0 ROOT    
