ZINC13571704_5531
                    3D
 Schrodinger Suite 2024-2.
 63 67  0  0  1  0            999 V2000
    3.4735   53.2937   27.8592 C   0  0  0  0  0  0
    2.2621   52.6238   27.9889 C   0  0  0  0  0  0
    1.3568   52.6030   26.9351 C   0  0  0  0  0  0
    1.6511   53.2932   25.7388 C   0  0  0  0  0  0
    2.9099   53.9183   25.6024 C   0  0  0  0  0  0
    3.8019   53.9263   26.6669 C   0  0  0  0  0  0
    0.6517   53.2999   24.5871 C   0  0  0  0  0  0
    0.8153   52.2734   23.4284 C   0  0  2  0  0  0
   -0.0447   52.3596   22.7620 H   0  0  0  0  0  0
    0.9256   50.7697   23.8396 C   0  0  0  0  0  0
    1.9141   50.1372   23.4590 O   0  0  0  0  0  0
   -0.0449   50.1742   24.5921 N   0  0  0  0  0  0
   -1.4276   50.6535   24.7207 C   0  0  0  0  0  0
   -2.2727   49.9096   23.6599 C   0  0  0  0  0  0
   -2.1286   48.3554   23.6251 C   0  0  0  0  0  0
   -0.6393   47.9574   23.8261 C   0  0  0  0  0  0
    0.0841   48.7512   24.9401 C   0  0  0  0  0  0
   -2.9915   47.6792   24.7048 C   0  0  0  0  0  0
   -3.9680   46.7147   24.4572 C   0  0  0  0  0  0
   -4.4491   46.2625   25.6757 N   0  3  0  0  0  0
   -3.7925   46.9396   26.6793 C   0  0  0  0  0  0
   -2.8949   47.7952   26.0816 N   0  0  0  0  0  0
   -2.2234   48.3495   26.6146 H   0  0  0  0  0  0
   -4.2410   46.1561   23.0749 C   0  0  0  0  0  0
   -3.0065   46.4858   22.1897 C   0  0  0  0  0  0
   -2.6342   47.9010   22.3123 N   0  0  0  0  0  0
    1.9787   52.7230   22.6472 N   0  0  0  0  0  0
    2.2181   52.4967   21.3438 C   0  0  0  0  0  0
    1.4349   51.8692   20.6289 O   0  0  0  0  0  0
    3.5043   53.0811   20.7871 C   0  0  0  0  0  0
    4.2970   53.9790   21.5267 C   0  0  0  0  0  0
    5.4559   54.5188   20.9772 C   0  0  0  0  0  0
    5.8360   54.1781   19.6831 C   0  0  0  0  0  0
    5.0623   53.2972   18.9353 C   0  0  0  0  0  0
    3.9047   52.7502   19.4847 C   0  0  0  0  0  0
    7.4373   54.9001   18.9504 Br  0  0  0  0  0  0
    4.1752   53.3014   28.6804 H   0  0  0  0  0  0
    2.0254   52.1124   28.9101 H   0  0  0  0  0  0
    0.4176   52.0792   27.0462 H   0  0  0  0  0  0
    3.1688   54.4328   24.6899 H   0  0  0  0  0  0
    4.7542   54.4266   26.5688 H   0  0  0  0  0  0
    0.6984   54.3035   24.1600 H   0  0  0  0  0  0
   -0.3442   53.2628   25.0138 H   0  0  0  0  0  0
   -1.5438   51.7305   24.6748 H   0  0  0  0  0  0
   -1.7610   50.3974   25.7278 H   0  0  0  0  0  0
   -2.0006   50.3277   22.6885 H   0  0  0  0  0  0
   -3.3180   50.1833   23.8101 H   0  0  0  0  0  0
   -0.5604   46.8963   24.0579 H   0  0  0  0  0  0
   -0.0961   48.0980   22.8913 H   0  0  0  0  0  0
    1.1158   48.4578   25.1249 H   0  0  0  0  0  0
   -0.3818   48.5972   25.9137 H   0  0  0  0  0  0
   -3.9019   46.7936   27.7468 H   0  0  0  0  0  0
   -4.4367   45.0841   23.0784 H   0  0  0  0  0  0
   -5.1377   46.5921   22.6307 H   0  0  0  0  0  0
   -2.1647   45.8554   22.4820 H   0  0  0  0  0  0
   -3.2390   46.2528   21.1488 H   0  0  0  0  0  0
   -3.3698   48.5034   21.9691 H   0  0  0  0  0  0
    2.7085   53.1532   23.1889 H   0  0  0  0  0  0
    4.0298   54.2846   22.5263 H   0  0  0  0  0  0
    6.0611   55.2038   21.5528 H   0  0  0  0  0  0
    5.3645   53.0149   17.9369 H   0  0  0  0  0  0
    3.3318   52.0549   18.8846 H   0  0  0  0  0  0
   -5.1520   45.5477   25.8090 H   0  0  0  0  0  0
  1  6  2  0  0  0
  1  2  1  0  0  0
  1 37  1  0  0  0
  2  3  2  0  0  0
  2 38  1  0  0  0
  3  4  1  0  0  0
  3 39  1  0  0  0
  4  5  2  0  0  0
  4  7  1  0  0  0
  5  6  1  0  0  0
  5 40  1  0  0  0
  6 41  1  0  0  0
  7  8  1  0  0  0
  7 42  1  0  0  0
  7 43  1  0  0  0
  8  9  1  0  0  0
  8 10  1  0  0  0
  8 27  1  0  0  0
 10 11  2  0  0  0
 10 12  1  0  0  0
 12 17  1  0  0  0
 12 13  1  0  0  0
 13 14  1  0  0  0
 13 44  1  0  0  0
 13 45  1  0  0  0
 14 15  1  0  0  0
 14 46  1  0  0  0
 14 47  1  0  0  0
 15 26  1  0  0  0
 15 16  1  0  0  0
 15 18  1  0  0  0
 16 17  1  0  0  0
 16 48  1  0  0  0
 16 49  1  0  0  0
 17 50  1  0  0  0
 17 51  1  0  0  0
 18 22  1  0  0  0
 18 19  2  0  0  0
 19 20  1  0  0  0
 19 24  1  0  0  0
 20 21  2  0  0  0
 20 63  1  0  0  0
 21 22  1  0  0  0
 21 52  1  0  0  0
 22 23  1  0  0  0
 24 25  1  0  0  0
 24 53  1  0  0  0
 24 54  1  0  0  0
 25 26  1  0  0  0
 25 55  1  0  0  0
 25 56  1  0  0  0
 26 57  1  0  0  0
 27 28  1  0  0  0
 27 58  1  0  0  0
 28 29  2  0  0  0
 28 30  1  0  0  0
 30 35  2  0  0  0
 30 31  1  0  0  0
 31 32  2  0  0  0
 31 59  1  0  0  0
 32 33  1  0  0  0
 32 60  1  0  0  0
 33 34  2  0  0  0
 33 36  1  0  0  0
 34 35  1  0  0  0
 34 61  1  0  0  0
 35 62  1  0  0  0
M  CHG  1  20   1
M  END
> <i_i_glide_confnum>
22

> <i_i_glide_lignum>
5532

> <i_i_glide_posenum>
85

> <i_i_glide_rotatable_bonds>
7

> <i_m_Source_File_Index>
1042

> <b_m_subgroup_collapsed>
0

> <r_i_docking_score>
-4.13289

> <r_i_glide_ecoul>
-3.99661

> <r_i_glide_eff_state_penalty>
0

> <r_i_glide_einternal>
7.86248

> <r_i_glide_emodel>
-45.6962

> <r_i_glide_energy>
-37.6476

> <r_i_glide_erotb>
0.300301

> <r_i_glide_esite>
-0.239025

> <r_i_glide_evdw>
-33.651

> <r_i_glide_gscore>
-4.13289

> <r_i_glide_hbond>
-0.14619

> <r_i_glide_ligand_efficiency>
-0.121556

> <r_i_glide_ligand_efficiency_ln>
-0.913071

> <r_i_glide_ligand_efficiency_sa>
-0.393793

> <r_i_glide_lipo>
-1.75003

> <r_i_glide_metal>
0

> <r_i_glide_rewards>
-0.0159081

> <s_i_glide_gridfile>
wee1_glide-grid

> <s_m_Source_File>
wee1_decoys_glide_SP.sdf

> <s_m_Source_Path>
/Users/zhangxujun/Desktop

> <s_m_entry_id>
1317

> <s_m_entry_name>
wee1_decoys_glide_SP.1042

> <s_m_subgroup_title>
wee1_decoys_glide_SP

> <s_m_subgroupid>
wee1_decoys_glide_SP


$$$$
