ZINC39963244_3583
                    3D
 Schrodinger Suite 2024-2.
 38 40  0  0  1  0            999 V2000
    4.4524   52.9370   28.8075 C   0  0  0  0  0  0
    4.1381   53.3989   27.3788 C   0  0  0  0  0  0
    2.6680   53.1552   26.9720 C   0  0  0  0  0  0
    2.3253   53.4376   25.5146 C   0  0  0  0  0  0
    1.4838   52.8317   24.6695 C   0  0  0  0  0  0
    0.5932   51.5954   24.7145 C   0  0  2  0  0  0
    1.1031   50.8564   25.3308 H   0  0  0  0  0  0
    0.5800   50.9702   23.3133 C   0  0  0  0  0  0
    1.2160   51.5344   22.2587 C   0  0  0  0  0  0
    1.8980   52.7126   22.2690 O   0  0  0  0  0  0
    1.6083   53.5745   23.3792 C   0  0  2  0  0  0
    0.7053   54.1330   23.1348 H   0  0  0  0  0  0
    2.6616   54.4967   23.6431 N   0  0  0  0  0  0
    3.0208   54.4003   24.8584 N   0  0  0  0  0  0
    1.3109   51.0221   20.9938 N   0  0  0  0  0  0
   -0.1097   49.7308   23.1459 C   0  0  0  0  0  0
   -0.6721   48.7337   22.9792 N   0  0  0  0  0  0
   -0.7882   51.8309   25.3478 C   0  0  0  0  0  0
   -1.7480   52.6209   24.6985 C   0  0  0  0  0  0
   -3.0053   52.8255   25.2763 C   0  0  0  0  0  0
   -3.3392   52.1943   26.4711 C   0  0  0  0  0  0
   -2.4015   51.3991   27.1198 C   0  0  0  0  0  0
   -1.1284   51.2424   26.5778 C   0  0  0  0  0  0
   -0.2309   50.4967   27.2817 O   0  0  0  0  0  0
   -4.2626   54.0079   24.4817 Br  0  0  0  0  0  0
    5.5046   53.1012   29.0390 H   0  0  0  0  0  0
    3.8596   53.4834   29.5416 H   0  0  0  0  0  0
    4.2491   51.8737   28.9354 H   0  0  0  0  0  0
    4.3707   54.4615   27.2918 H   0  0  0  0  0  0
    4.8076   52.8950   26.6817 H   0  0  0  0  0  0
    2.3777   52.1278   27.1973 H   0  0  0  0  0  0
    2.0229   53.7867   27.5839 H   0  0  0  0  0  0
    0.8633   50.1486   20.7575 H   0  0  0  0  0  0
    2.0286   51.3566   20.3664 H   0  0  0  0  0  0
   -1.5103   53.1003   23.7607 H   0  0  0  0  0  0
   -4.3161   52.3408   26.9075 H   0  0  0  0  0  0
   -2.6554   50.9222   28.0566 H   0  0  0  0  0  0
   -0.6846   49.7800   27.7598 H   0  0  0  0  0  0
  1  2  1  0  0  0
  1 26  1  0  0  0
  1 27  1  0  0  0
  1 28  1  0  0  0
  2  3  1  0  0  0
  2 29  1  0  0  0
  2 30  1  0  0  0
  3  4  1  0  0  0
  3 31  1  0  0  0
  3 32  1  0  0  0
  4 14  1  0  0  0
  4  5  2  0  0  0
  5 11  1  0  0  0
  5  6  1  0  0  0
  6  7  1  0  0  0
  6  8  1  0  0  0
  6 18  1  0  0  0
  8  9  2  0  0  0
  8 16  1  0  0  0
  9 10  1  0  0  0
  9 15  1  0  0  0
 10 11  1  0  0  0
 11 12  1  0  0  0
 11 13  1  0  0  0
 13 14  2  0  0  0
 15 33  1  0  0  0
 15 34  1  0  0  0
 16 17  3  0  0  0
 18 23  2  0  0  0
 18 19  1  0  0  0
 19 20  2  0  0  0
 19 35  1  0  0  0
 20 21  1  0  0  0
 20 25  1  0  0  0
 21 22  2  0  0  0
 21 36  1  0  0  0
 22 23  1  0  0  0
 22 37  1  0  0  0
 23 24  1  0  0  0
 24 38  1  0  0  0
M  END
> <i_i_glide_confnum>
1

> <i_i_glide_lignum>
3584

> <i_i_glide_posenum>
197

> <i_i_glide_rotatable_bonds>
5

> <i_m_Source_File_Index>
3198

> <b_m_subgroup_collapsed>
0

> <r_i_docking_score>
-4.47474

> <r_i_glide_ecoul>
-4.09602

> <r_i_glide_eff_state_penalty>
0

> <r_i_glide_einternal>
4.8084

> <r_i_glide_emodel>
-37.3838

> <r_i_glide_energy>
-30.8412

> <r_i_glide_erotb>
0.274799

> <r_i_glide_esite>
-0.00169813

> <r_i_glide_evdw>
-26.7451

> <r_i_glide_gscore>
-4.47474

> <r_i_glide_hbond>
-0.16

> <r_i_glide_ligand_efficiency>
-0.194554

> <r_i_glide_ligand_efficiency_ln>
-1.08203

> <r_i_glide_ligand_efficiency_sa>
-0.553285

> <r_i_glide_lipo>
-1.4354

> <r_i_glide_metal>
0

> <r_i_glide_rewards>
-1.20078

> <s_i_glide_gridfile>
wee1_glide-grid

> <s_m_Source_File>
wee1_decoys_glide_SP.sdf

> <s_m_Source_Path>
/Users/zhangxujun/Desktop

> <s_m_entry_id>
3473

> <s_m_entry_name>
wee1_decoys_glide_SP.3198

> <s_m_subgroup_title>
wee1_decoys_glide_SP

> <s_m_subgroupid>
wee1_decoys_glide_SP


$$$$
