@<TRIPOS>MOLECULE
ZINC41551542_4047
56   60    1
SMALL
USER_CHARGES


@<TRIPOS>ATOM
      1 C1          7.4844   58.6185   17.7466 C.3       1 UNK         0.0000 
      2 C2          8.0103   57.2597   17.2342 C.3       1 UNK         0.0000 
      3 C3          9.4034   56.8616   17.7655 C.3       1 UNK         0.0000 
      4 O4          7.0442   56.2025   17.3040 O.3       1 UNK         0.0000 
      5 C5          6.5586   55.6809   18.4907 C.ar      1 UNK         0.0000 
      6 C6          6.9166   56.1101   19.7791 C.ar      1 UNK         0.0000 
      7 C7          6.3660   55.5118   20.9114 C.ar      1 UNK         0.0000 
      8 C8          5.4544   54.4577   20.7863 C.ar      1 UNK         0.0000 
      9 C9          4.8844   53.7195   21.9432 C.2       1 UNK         0.0000 
     10 C10         4.1105   52.6356   21.6756 C.2       1 UNK         0.0000 
     11 C11         3.7281   52.2237   20.3227 C.2       1 UNK         0.0000 
     12 O12         2.9991   51.2770   20.0333 O.2       1 UNK         0.0000 
     13 O13         4.2092   52.9899   19.2813 O.3       1 UNK         0.0000 
     14 C14         5.1033   54.0266   19.4972 C.ar      1 UNK         0.0000 
     15 C15         5.6395   54.6399   18.3661 C.ar      1 UNK         0.0000 
     16 C16         5.1506   54.0488   23.3405 C.2       1 UNK         0.0000 
     17 O17         6.3225   54.0991   23.7240 O.2       1 UNK         0.0000 
     18 N18         4.1082   54.3507   24.1749 N.am      1 UNK         0.0000 
     19 C19         4.3898   54.7665   25.5683 C.3       1 UNK         0.0000 
     20 C20         3.8197   53.7098   26.5325 C.3       1 UNK         0.0000 
     21 C21         2.3717   53.3859   26.1750 C.2       1 UNK         0.0000 
     22 C22         1.8824   53.6356   24.9452 C.2       1 UNK         0.0000 
     23 C23         2.6676   54.2846   23.8096 C.3       1 UNK         0.0000 
     24 C24         1.5003   52.8719   27.2095 C.ar      1 UNK         0.0000 
     25 C25         0.7969   51.6815   27.2343 C.ar      1 UNK         0.0000 
     26 N26         0.1336   51.5694   28.4310 N.pl3     1 UNK         0.0000 
     27 H27        -0.4341   50.7626   28.6643 H         1 UNK         0.0000 
     28 C28         0.3658   52.6879   29.2048 C.ar      1 UNK         0.0000 
     29 C29         1.2077   53.5489   28.4376 C.ar      1 UNK         0.0000 
     30 C30         1.5636   54.7987   28.9648 C.ar      1 UNK         0.0000 
     31 C31         1.0975   55.1595   30.2209 C.ar      1 UNK         0.0000 
     32 C32         0.3047   54.2884   30.9686 C.ar      1 UNK         0.0000 
     33 C33        -0.0774   53.0346   30.4851 C.ar      1 UNK         0.0000 
     34 Br34        1.5045   56.8957   30.8812 Br        1 UNK         0.0000 
     35 H35         8.2145   59.4092   17.5803 H         1 UNK         0.0000 
     36 H36         7.2330   58.6309   18.8037 H         1 UNK         0.0000 
     37 H37         6.5791   58.9064   17.2060 H         1 UNK         0.0000 
     38 H38         8.1476   57.4027   16.1601 H         1 UNK         0.0000 
     39 H39        10.1202   57.6718   17.6319 H         1 UNK         0.0000 
     40 H40         9.4169   56.5922   18.8193 H         1 UNK         0.0000 
     41 H41         9.7864   56.0011   17.2153 H         1 UNK         0.0000 
     42 H42         7.6323   56.8953   19.9321 H         1 UNK         0.0000 
     43 H43         6.6795   55.8643   21.8826 H         1 UNK         0.0000 
     44 H44         3.6938   52.0557   22.4815 H         1 UNK         0.0000 
     45 H45         5.3562   54.2934   17.3817 H         1 UNK         0.0000 
     46 H46         5.4371   55.0145   25.7591 H         1 UNK         0.0000 
     47 H47         3.8549   55.6996   25.7307 H         1 UNK         0.0000 
     48 H48         4.4311   52.8179   26.4571 H         1 UNK         0.0000 
     49 H49         3.9168   54.0434   27.5630 H         1 UNK         0.0000 
     50 H50         0.8411   53.4146   24.7622 H         1 UNK         0.0000 
     51 H51         2.2921   55.2969   23.6877 H         1 UNK         0.0000 
     52 H52         2.4306   53.8129   22.8628 H         1 UNK         0.0000 
     53 H53         0.7253   50.8838   26.5085 H         1 UNK         0.0000 
     54 H54         2.1687   55.4853   28.3918 H         1 UNK         0.0000 
     55 H55        -0.0385   54.5942   31.9458 H         1 UNK         0.0000 
     56 H56        -0.6985   52.3754   31.0763 H         1 UNK         0.0000 
@<TRIPOS>BOND
     1    1    2 1    
     2    1   35 1    
     3    1   36 1    
     4    1   37 1    
     5    2    3 1    
     6    2    4 1    
     7    2   38 1    
     8    3   39 1    
     9    3   40 1    
    10    3   41 1    
    11    4    5 1    
    12    5   15 ar   
    13    5    6 ar   
    14    6    7 ar   
    15    6   42 1    
    16    7    8 ar   
    17    7   43 1    
    18    8   14 ar   
    19    8    9 1    
    20    9   10 2    
    21    9   16 1    
    22   10   11 1    
    23   10   44 1    
    24   11   12 2    
    25   11   13 1    
    26   13   14 1    
    27   14   15 ar   
    28   15   45 1    
    29   16   17 2    
    30   16   18 am   BACKBONE|DICT|INTERRES
    31   18   23 1    
    32   18   19 1    
    33   19   20 1    
    34   19   46 1    
    35   19   47 1    
    36   20   21 1    
    37   20   48 1    
    38   20   49 1    
    39   21   22 2    
    40   21   24 1    
    41   22   23 1    
    42   22   50 1    
    43   23   51 1    
    44   23   52 1    
    45   24   29 ar   
    46   24   25 ar   
    47   25   26 ar   
    48   25   53 1    
    49   26   27 1    
    50   26   28 ar   
    51   28   33 ar   
    52   28   29 ar   
    53   29   30 ar   
    54   30   31 ar   
    55   30   54 1    
    56   31   32 ar   
    57   31   34 1    
    58   32   33 ar   
    59   32   55 1    
    60   33   56 1    
@<TRIPOS>SUBSTRUCTURE
     1 UNK         1 GROUP             0       ****    0 ROOT    
