@<TRIPOS>MOLECULE
ZINC01343007_3559
42   45    1
SMALL
USER_CHARGES


@<TRIPOS>ATOM
      1 C1         -2.7409   51.1521   28.3488 C.3       1 UNK         0.0000 
      2 C2         -1.3134   51.6669   28.4383 C.ar      1 UNK         0.0000 
      3 C3         -0.6933   51.8200   29.6777 C.ar      1 UNK         0.0000 
      4 C4          0.5980   52.3384   29.7786 C.ar      1 UNK         0.0000 
      5 C5          1.3042   52.7140   28.5974 C.ar      1 UNK         0.0000 
      6 C6          2.6212   53.2574   28.5842 C.ar      1 UNK         0.0000 
      7 C7          3.2486   53.6251   27.3823 C.ar      1 UNK         0.0000 
      8 C8          4.5363   54.1701   27.0939 C.2       1 UNK         0.0000 
      9 C9          4.7649   54.3441   25.7247 C.2       1 UNK         0.0000 
     10 S10         3.3184   53.9904   24.7725 S.3       1 UNK         0.0000 
     11 C11         2.4899   53.4272   26.2032 C.ar      1 UNK         0.0000 
     12 N12         1.2723   52.8966   26.1703 N.ar      1 UNK         0.0000 
     13 C13         0.6670   52.5454   27.3318 C.ar      1 UNK         0.0000 
     14 C14        -0.6413   52.0183   27.2705 C.ar      1 UNK         0.0000 
     15 C15         5.9473   54.8682   25.0689 C.2       1 UNK         0.0000 
     16 O16         6.8654   55.4008   25.6990 O.2       1 UNK         0.0000 
     17 N17         6.0013   54.6522   23.7423 N.am      1 UNK         0.0000 
     18 C18         7.0735   55.0806   22.8516 C.3       1 UNK         0.0000 
     19 C19         6.5939   55.2671   21.4239 C.2       1 UNK         0.0000 
     20 C20         7.1100   55.9317   20.3195 C.2       1 UNK         0.0000 
     21 C21         6.2314   55.7088   19.2564 C.2       1 UNK         0.0000 
     22 C22         5.2245   54.8969   19.7487 C.2       1 UNK         0.0000 
     23 O23         5.4387   54.6410   21.0635 O.3       1 UNK         0.0000 
     24 N24         5.4514   54.4434   28.0789 N.pl3     1 UNK         0.0000 
     25 C25         1.2370   52.5107   31.1472 C.3       1 UNK         0.0000 
     26 H26        -3.3053   51.7231   27.6127 H         1 UNK         0.0000 
     27 H27        -2.7674   50.1025   28.0467 H         1 UNK         0.0000 
     28 H28        -3.2665   51.2532   29.2969 H         1 UNK         0.0000 
     29 H29        -1.2276   51.5351   30.5760 H         1 UNK         0.0000 
     30 H30         3.1406   53.3921   29.5211 H         1 UNK         0.0000 
     31 H31        -1.1219   51.8972   26.3101 H         1 UNK         0.0000 
     32 H32         5.1957   54.2495   23.2895 H         1 UNK         0.0000 
     33 H33         7.8467   54.3102   22.8796 H         1 UNK         0.0000 
     34 H34         7.5036   56.0141   23.2164 H         1 UNK         0.0000 
     35 H35         8.0320   56.4953   20.2803 H         1 UNK         0.0000 
     36 H36         6.3305   56.0793   18.2445 H         1 UNK         0.0000 
     37 H37         4.3357   54.4575   19.3148 H         1 UNK         0.0000 
     38 H38         5.2734   54.2591   29.0538 H         1 UNK         0.0000 
     39 H39         6.3478   54.8583   27.8533 H         1 UNK         0.0000 
     40 H40         0.5961   52.1423   31.9496 H         1 UNK         0.0000 
     41 H41         2.1844   51.9751   31.2071 H         1 UNK         0.0000 
     42 H42         1.4266   53.5683   31.3261 H         1 UNK         0.0000 
@<TRIPOS>BOND
     1    1    2 1    
     2    1   26 1    
     3    1   27 1    
     4    1   28 1    
     5    2   14 ar   
     6    2    3 ar   
     7    3    4 ar   
     8    3   29 1    
     9    4    5 ar   
    10    4   25 1    
    11    5   13 ar   
    12    5    6 ar   
    13    6    7 ar   
    14    6   30 1    
    15    7   11 ar   
    16    7    8 1    
    17    8    9 2    
    18    8   24 1    
    19    9   10 1    
    20    9   15 1    
    21   10   11 1    
    22   11   12 ar   
    23   12   13 ar   
    24   13   14 ar   
    25   14   31 1    
    26   15   16 2    
    27   15   17 am   BACKBONE|DICT|INTERRES
    28   17   18 1    
    29   17   32 1    
    30   18   19 1    
    31   18   33 1    
    32   18   34 1    
    33   19   23 1    
    34   19   20 2    
    35   20   21 1    
    36   20   35 1    
    37   21   22 2    
    38   21   36 1    
    39   22   23 1    
    40   22   37 1    
    41   24   38 1    
    42   24   39 1    
    43   25   40 1    
    44   25   41 1    
    45   25   42 1    
@<TRIPOS>SUBSTRUCTURE
     1 UNK         1 GROUP             0       ****    0 ROOT    
