ZINC12796292_2295
                    3D
 Schrodinger Suite 2024-2.
 60 65  0  0  1  0            999 V2000
   -0.4123   50.3608   18.4610 C   0  0  0  0  0  0
    0.6867   49.5618   18.7694 C   0  0  0  0  0  0
    1.6503   50.0279   19.6588 C   0  0  0  0  0  0
    1.5143   51.2936   20.2385 C   0  0  0  0  0  0
    0.4137   52.0949   19.9124 C   0  0  0  0  0  0
   -0.5529   51.6256   19.0275 C   0  0  0  0  0  0
    2.5937   51.7892   21.2161 C   0  0  1  0  0  0
    3.1561   50.8986   21.5036 H   0  0  0  0  0  0
    3.5238   52.7064   20.4037 C   0  0  0  0  0  0
    5.0987   52.8330   21.2356 S   0  0  0  0  0  0
    4.5069   53.5297   22.7372 C   0  0  0  0  0  0
    5.4628   54.2145   23.4937 C   0  0  0  0  0  0
    5.1640   54.6931   24.7609 C   0  0  0  0  0  0
    3.8919   54.5005   25.2733 C   0  0  0  0  0  0
    2.9305   53.8307   24.5224 C   0  0  0  0  0  0
    3.1948   53.2969   23.2340 C   0  0  0  0  0  0
    2.2276   52.4856   22.5041 N   0  0  0  0  0  0
    1.0386   52.1304   23.0938 C   0  0  0  0  0  0
    0.3119   52.9519   23.6620 O   0  0  0  0  0  0
    0.6017   50.6336   23.0708 C   0  0  0  0  0  0
   -0.5176   50.3461   23.9969 N   0  0  0  0  0  0
   -0.3387   50.2221   25.3266 C   0  0  0  0  0  0
    0.7044   50.0005   25.9370 O   0  0  0  0  0  0
   -1.6886   50.4227   25.9682 C   0  0  2  0  0  0
   -1.9706   49.5054   26.4825 H   0  0  0  0  0  0
   -2.5055   50.6078   24.7958 N   0  0  0  0  0  0
   -1.8153   50.5414   23.6501 C   0  0  0  0  0  0
   -2.2941   50.5886   22.5181 O   0  0  0  0  0  0
   -1.8041   51.6731   26.8791 C   0  0  0  0  0  0
   -1.1294   51.6965   28.2270 C   0  0  0  0  0  0
   -1.6952   51.2973   29.3903 C   0  0  0  0  0  0
   -0.8955   51.6965   30.4517 N   0  0  0  0  0  0
   -1.1832   51.5948   31.4348 H   0  0  0  0  0  0
    0.3350   52.1315   30.0088 C   0  0  0  0  0  0
    0.2210   52.1307   28.5839 C   0  0  0  0  0  0
    1.3597   52.5445   27.8551 C   0  0  0  0  0  0
    2.5597   52.8987   28.5062 C   0  0  0  0  0  0
    2.6409   52.8801   29.9121 C   0  0  0  0  0  0
    1.5162   52.5080   30.6720 C   0  0  0  0  0  0
   -1.1585   49.9982   17.7694 H   0  0  0  0  0  0
    0.7980   48.5883   18.3145 H   0  0  0  0  0  0
    2.5071   49.4078   19.8829 H   0  0  0  0  0  0
    0.3064   53.0750   20.3510 H   0  0  0  0  0  0
   -1.4047   52.2398   18.7772 H   0  0  0  0  0  0
    3.1041   53.6997   20.2521 H   0  0  0  0  0  0
    3.7452   52.2883   19.4191 H   0  0  0  0  0  0
    6.4624   54.3527   23.1056 H   0  0  0  0  0  0
    5.9142   55.2103   25.3404 H   0  0  0  0  0  0
    3.6440   54.8759   26.2551 H   0  0  0  0  0  0
    1.9820   53.7219   25.0159 H   0  0  0  0  0  0
    0.2729   50.3390   22.0774 H   0  0  0  0  0  0
    1.4586   50.0072   23.3237 H   0  0  0  0  0  0
   -3.5078   50.6489   24.9040 H   0  0  0  0  0  0
   -1.4443   52.5525   26.3403 H   0  0  0  0  0  0
   -2.8603   51.8683   27.0718 H   0  0  0  0  0  0
   -2.6843   50.8711   29.4750 H   0  0  0  0  0  0
    1.3127   52.5501   26.7777 H   0  0  0  0  0  0
    3.4254   53.1742   27.9225 H   0  0  0  0  0  0
    3.5671   53.1451   30.4004 H   0  0  0  0  0  0
    1.5609   52.4880   31.7515 H   0  0  0  0  0  0
  1  6  2  0  0  0
  1  2  1  0  0  0
  1 40  1  0  0  0
  2  3  2  0  0  0
  2 41  1  0  0  0
  3  4  1  0  0  0
  3 42  1  0  0  0
  4  5  2  0  0  0
  4  7  1  0  0  0
  5  6  1  0  0  0
  5 43  1  0  0  0
  6 44  1  0  0  0
  7  8  1  0  0  0
  7 17  1  0  0  0
  7  9  1  0  0  0
  9 10  1  0  0  0
  9 45  1  0  0  0
  9 46  1  0  0  0
 10 11  1  0  0  0
 11 16  2  0  0  0
 11 12  1  0  0  0
 12 13  2  0  0  0
 12 47  1  0  0  0
 13 14  1  0  0  0
 13 48  1  0  0  0
 14 15  2  0  0  0
 14 49  1  0  0  0
 15 16  1  0  0  0
 15 50  1  0  0  0
 16 17  1  0  0  0
 17 18  1  0  0  0
 18 19  2  0  0  0
 18 20  1  0  0  0
 20 21  1  0  0  0
 20 51  1  0  0  0
 20 52  1  0  0  0
 21 27  1  0  0  0
 21 22  1  0  0  0
 22 23  2  0  0  0
 22 24  1  0  0  0
 24 25  1  0  0  0
 24 26  1  0  0  0
 24 29  1  0  0  0
 26 27  1  0  0  0
 26 53  1  0  0  0
 27 28  2  0  0  0
 29 30  1  0  0  0
 29 54  1  0  0  0
 29 55  1  0  0  0
 30 35  1  0  0  0
 30 31  2  0  0  0
 31 32  1  0  0  0
 31 56  1  0  0  0
 32 33  1  0  0  0
 32 34  1  0  0  0
 34 39  2  0  0  0
 34 35  1  0  0  0
 35 36  2  0  0  0
 36 37  1  0  0  0
 36 57  1  0  0  0
 37 38  2  0  0  0
 37 58  1  0  0  0
 38 39  1  0  0  0
 38 59  1  0  0  0
 39 60  1  0  0  0
M  END
> <i_i_glide_confnum>
91

> <i_i_glide_lignum>
2296

> <i_i_glide_posenum>
162

> <i_i_glide_rotatable_bonds>
6

> <i_m_Source_File_Index>
4491

> <b_m_subgroup_collapsed>
0

> <r_i_docking_score>
-3.81554

> <r_i_glide_ecoul>
-7.55037

> <r_i_glide_eff_state_penalty>
0

> <r_i_glide_einternal>
5.48277

> <r_i_glide_emodel>
-49.9782

> <r_i_glide_energy>
-45.3329

> <r_i_glide_erotb>
0.496201

> <r_i_glide_esite>
-0.144957

> <r_i_glide_evdw>
-37.7826

> <r_i_glide_gscore>
-3.81554

> <r_i_glide_hbond>
-0.16

> <r_i_glide_ligand_efficiency>
-0.105987

> <r_i_glide_ligand_efficiency_ln>
-0.832449

> <r_i_glide_ligand_efficiency_sa>
-0.349962

> <r_i_glide_lipo>
-2.01153

> <r_i_glide_metal>
0

> <r_i_glide_rewards>
1.02642

> <s_i_glide_gridfile>
wee1_glide-grid

> <s_m_Source_File>
wee1_decoys_glide_SP.sdf

> <s_m_Source_Path>
/Users/zhangxujun/Desktop

> <s_m_entry_id>
4766

> <s_m_entry_name>
wee1_decoys_glide_SP.4491

> <s_m_subgroup_title>
wee1_decoys_glide_SP

> <s_m_subgroupid>
wee1_decoys_glide_SP


$$$$
