@<TRIPOS>MOLECULE
ZINC28365029_3536
62   66    1
SMALL
USER_CHARGES


@<TRIPOS>ATOM
      1 C1          9.1306   56.0504   15.9644 C.3       1 UNK         0.0000 
      2 C2          8.5750   55.7871   17.3516 C.ar      1 UNK         0.0000 
      3 C3          7.4549   54.9756   17.5187 C.ar      1 UNK         0.0000 
      4 C4          6.9576   54.7308   18.7964 C.ar      1 UNK         0.0000 
      5 C5          7.5675   55.2967   19.9262 C.ar      1 UNK         0.0000 
      6 C6          8.7042   56.0878   19.7395 C.ar      1 UNK         0.0000 
      7 C7          9.2034   56.3394   18.4644 C.ar      1 UNK         0.0000 
      8 C8          7.0903   55.0794   21.3195 C.2       1 UNK         0.0000 
      9 C9          5.8896   54.6189   21.7429 C.2       1 UNK         0.0000 
     10 C10         4.6673   54.2141   20.9375 C.3       1 UNK         0.0000 
     11 C11         3.5162   54.0938   21.9199 C.3       1 UNK         0.0000 
     12 C12         4.1484   54.0965   23.2883 C.ar      1 UNK         0.0000 
     13 C13         5.4990   54.3983   23.1578 C.ar      1 UNK         0.0000 
     14 N14         6.3388   54.5216   24.2069 N.ar      1 UNK         0.0000 
     15 C15         5.8448   54.3079   25.4532 C.ar      1 UNK         0.0000 
     16 C16         6.7714   54.3367   26.5196 C.ar      1 UNK         0.0000 
     17 C17         6.3733   54.0967   27.8253 C.ar      1 UNK         0.0000 
     18 C18         5.0450   53.8397   28.1058 C.ar      1 UNK         0.0000 
     19 C19         4.1053   53.7984   27.0837 C.ar      1 UNK         0.0000 
     20 C20         4.4637   54.0223   25.7077 C.ar      1 UNK         0.0000 
     21 C21         3.5628   53.9310   24.5651 C.ar      1 UNK         0.0000 
     22 C22         2.0978   53.6121   24.7568 C.2       1 UNK         0.0000 
     23 O23         1.5044   53.6966   25.8269 O.2       1 UNK         0.0000 
     24 O24         1.4797   53.1530   23.6328 O.3       1 UNK         0.0000 
     25 C25         0.0861   52.8076   23.5928 C.3       1 UNK         0.0000 
     26 C26        -0.1502   51.3646   24.0792 C.2       1 UNK         0.0000 
     27 O27         0.7047   50.8042   24.7681 O.2       1 UNK         0.0000 
     28 N28        -1.3600   50.8299   23.8013 N.am      1 UNK         0.0000 
     29 C29        -1.8342   49.5793   24.2365 C.ar      1 UNK         0.0000 
     30 C30        -0.9849   48.4886   24.4751 C.ar      1 UNK         0.0000 
     31 C31        -1.4902   47.3342   25.0505 C.ar      1 UNK         0.0000 
     32 C32        -2.8441   47.2423   25.3759 C.ar      1 UNK         0.0000 
     33 C33        -3.7147   48.2818   25.0323 C.ar      1 UNK         0.0000 
     34 C34        -3.2067   49.4523   24.4692 C.ar      1 UNK         0.0000 
     35 C35        -3.3345   46.0490   26.1353 C.2       1 UNK         0.0000 
     36 O36        -4.1941   45.2971   25.6823 O.2       1 UNK         0.0000 
     37 N37        -2.6995   45.8168   27.2819 N.am      1 UNK         0.0000 
     38 H38         8.7482   55.3392   15.2309 H         1 UNK         0.0000 
     39 H39        10.2165   55.9525   15.9685 H         1 UNK         0.0000 
     40 H40         8.8859   57.0635   15.6410 H         1 UNK         0.0000 
     41 H41         6.9747   54.5213   16.6647 H         1 UNK         0.0000 
     42 H42         6.1129   54.0686   18.8722 H         1 UNK         0.0000 
     43 H43         9.2282   56.4967   20.5897 H         1 UNK         0.0000 
     44 H44        10.0880   56.9483   18.3481 H         1 UNK         0.0000 
     45 H45         7.8209   55.3062   22.0854 H         1 UNK         0.0000 
     46 H46         4.4238   54.8951   20.1213 H         1 UNK         0.0000 
     47 H47         4.8405   53.2313   20.4932 H         1 UNK         0.0000 
     48 H48         2.8495   54.9457   21.8154 H         1 UNK         0.0000 
     49 H49         2.9540   53.1893   21.6863 H         1 UNK         0.0000 
     50 H50         7.8140   54.4972   26.3112 H         1 UNK         0.0000 
     51 H51         7.0998   54.0978   28.6259 H         1 UNK         0.0000 
     52 H52         4.7425   53.6455   29.1243 H         1 UNK         0.0000 
     53 H53         3.1077   53.5494   27.3901 H         1 UNK         0.0000 
     54 H54        -0.5269   53.4868   24.1901 H         1 UNK         0.0000 
     55 H55        -0.2494   52.8964   22.5601 H         1 UNK         0.0000 
     56 H56        -2.0470   51.4329   23.3783 H         1 UNK         0.0000 
     57 H57         0.0744   48.5346   24.2712 H         1 UNK         0.0000 
     58 H58        -0.8113   46.5288   25.2816 H         1 UNK         0.0000 
     59 H59        -4.7696   48.2148   25.2607 H         1 UNK         0.0000 
     60 H60        -3.8794   50.2741   24.2696 H         1 UNK         0.0000 
     61 H61        -2.8954   44.9870   27.8399 H         1 UNK         0.0000 
     62 H62        -2.1456   46.5755   27.6818 H         1 UNK         0.0000 
@<TRIPOS>BOND
     1    1    2 1    
     2    1   38 1    
     3    1   39 1    
     4    1   40 1    
     5    2    7 ar   
     6    2    3 ar   
     7    3    4 ar   
     8    3   41 1    
     9    4    5 ar   
    10    4   42 1    
    11    5    6 ar   
    12    5    8 1    
    13    6    7 ar   
    14    6   43 1    
    15    7   44 1    
    16    8    9 2    
    17    8   45 1    
    18    9   13 1    
    19    9   10 1    
    20   10   11 1    
    21   10   46 1    
    22   10   47 1    
    23   11   12 1    
    24   11   48 1    
    25   11   49 1    
    26   12   21 ar   
    27   12   13 ar   
    28   13   14 ar   
    29   14   15 ar   
    30   15   20 ar   
    31   15   16 ar   
    32   16   17 ar   
    33   16   50 1    
    34   17   18 ar   
    35   17   51 1    
    36   18   19 ar   
    37   18   52 1    
    38   19   20 ar   
    39   19   53 1    
    40   20   21 ar   
    41   21   22 1    
    42   22   23 2    
    43   22   24 1    
    44   24   25 1    
    45   25   26 1    
    46   25   54 1    
    47   25   55 1    
    48   26   27 2    
    49   26   28 am   BACKBONE|DICT|INTERRES
    50   28   29 1    
    51   28   56 1    
    52   29   34 ar   
    53   29   30 ar   
    54   30   31 ar   
    55   30   57 1    
    56   31   32 ar   
    57   31   58 1    
    58   32   33 ar   
    59   32   35 1    
    60   33   34 ar   
    61   33   59 1    
    62   34   60 1    
    63   35   36 2    
    64   35   37 am   BACKBONE|DICT|INTERRES
    65   37   61 1    
    66   37   62 1    
@<TRIPOS>SUBSTRUCTURE
     1 UNK         1 GROUP             0       ****    0 ROOT    
