@<TRIPOS>MOLECULE
ZINC39657144_3679
64   66    1
SMALL
USER_CHARGES


@<TRIPOS>ATOM
      1 C1          1.1108   51.8443   26.8296 C.3       1 UNK         0.0000 
      2 C2         -0.1731   51.3805   26.1284 C.3       1 UNK         0.0000 
      3 C3         -0.0275   50.1540   25.1847 C.3       1 UNK         0.0000 
      4 H4         -1.0278   49.9303   24.8097 H         1 UNK         0.0000 
      5 C5          0.4391   48.8971   25.9443 C.3       1 UNK         0.0000 
      6 C6          0.8979   50.3296   23.9531 C.3       1 UNK         0.0000 
      7 C7          0.6061   51.4627   22.9556 C.2       1 UNK         0.0000 
      8 O8         -0.3905   52.1748   23.0830 O.2       1 UNK         0.0000 
      9 N9          1.5001   51.6391   21.9558 N.am      1 UNK         0.0000 
     10 C10         2.6106   50.7241   21.6550 C.3       1 UNK         0.0000 
     11 C11         3.3103   51.3761   20.4516 C.3       1 UNK         0.0000 
     12 H12         3.7539   50.5946   19.8367 H         1 UNK         0.0000 
     13 C13         2.1487   52.1234   19.7246 C.3       1 UNK         0.0000 
     14 C14         1.3373   52.6649   20.9251 C.3       1 UNK         0.0000 
     15 C15         2.5180   53.2062   18.6761 C.3       1 UNK         0.0000 
     16 C16         3.3414   52.6018   17.5194 C.3       1 UNK         0.0000 
     17 N17         2.4999   51.5112   16.8195 N.4       1 UNK         0.0000 
     18 C18         1.8886   50.4586   17.7699 C.3       1 UNK         0.0000 
     19 C19         1.1882   51.1764   18.9366 C.3       1 UNK         0.0000 
     20 C20         4.4805   52.3172   20.8698 C.2       1 UNK         0.0000 
     21 O21         5.4021   52.4970   20.0820 O.2       1 UNK         0.0000 
     22 N22         4.4552   52.9086   22.0815 N.am      1 UNK         0.0000 
     23 C23         5.5259   53.7272   22.6811 C.3       1 UNK         0.0000 
     24 H24         6.4015   53.0762   22.7005 H         1 UNK         0.0000 
     25 C25         5.8794   54.9771   21.8509 C.3       1 UNK         0.0000 
     26 C26         5.2717   54.0967   24.1489 C.ar      1 UNK         0.0000 
     27 C27         3.9752   54.1779   24.6784 C.ar      1 UNK         0.0000 
     28 C28         3.7919   54.3853   26.0437 C.ar      1 UNK         0.0000 
     29 C29         4.8960   54.4966   26.8848 C.ar      1 UNK         0.0000 
     30 C30         6.1871   54.4484   26.3664 C.ar      1 UNK         0.0000 
     31 C31         6.3744   54.2546   24.9998 C.ar      1 UNK         0.0000 
     32 Br32        4.6389   54.7080   28.7597 Br        1 UNK         0.0000 
     33 H33         0.9226   52.7274   27.4393 H         1 UNK         0.0000 
     34 H34         1.8863   52.1026   26.1107 H         1 UNK         0.0000 
     35 H35         1.5047   51.0739   27.4919 H         1 UNK         0.0000 
     36 H36        -0.9084   51.1396   26.8976 H         1 UNK         0.0000 
     37 H37        -0.6017   52.2248   25.5883 H         1 UNK         0.0000 
     38 H38         1.5019   48.9158   26.1880 H         1 UNK         0.0000 
     39 H39        -0.0955   48.7656   26.8816 H         1 UNK         0.0000 
     40 H40         0.2692   48.0089   25.3354 H         1 UNK         0.0000 
     41 H41         1.9045   50.5026   24.3172 H         1 UNK         0.0000 
     42 H42         0.9294   49.3893   23.4014 H         1 UNK         0.0000 
     43 H43         3.2890   50.5205   22.4815 H         1 UNK         0.0000 
     44 H44         2.2131   49.7574   21.3385 H         1 UNK         0.0000 
     45 H45         0.3130   52.9040   20.6363 H         1 UNK         0.0000 
     46 H46         1.8275   53.5718   21.2817 H         1 UNK         0.0000 
     47 H47         1.6233   53.7011   18.2970 H         1 UNK         0.0000 
     48 H48         3.1051   54.0009   19.1412 H         1 UNK         0.0000 
     49 H49         3.6026   53.3351   16.7576 H         1 UNK         0.0000 
     50 H50         4.2509   52.0975   17.8452 H         1 UNK         0.0000 
     51 H51         1.7705   51.9433   16.2711 H         1 UNK         0.0000 
     52 H52         1.2006   49.8661   17.1649 H         1 UNK         0.0000 
     53 H53         2.7044   49.8108   18.0846 H         1 UNK         0.0000 
     54 H54         0.7889   50.4067   19.5983 H         1 UNK         0.0000 
     55 H55         0.3062   51.7131   18.5833 H         1 UNK         0.0000 
     56 H56         3.6758   52.6941   22.6842 H         1 UNK         0.0000 
     57 H57         6.6216   55.5989   22.3539 H         1 UNK         0.0000 
     58 H58         6.2913   54.7239   20.8750 H         1 UNK         0.0000 
     59 H59         4.9913   55.5797   21.6800 H         1 UNK         0.0000 
     60 H60         3.1073   54.0695   24.0444 H         1 UNK         0.0000 
     61 H61         2.7947   54.4363   26.4518 H         1 UNK         0.0000 
     62 H62         7.0368   54.5393   27.0273 H         1 UNK         0.0000 
     63 H63         7.3787   54.1832   24.6072 H         1 UNK         0.0000 
     64 H64         3.1052   51.0057   16.1815 H         1 UNK         0.0000 
@<TRIPOS>BOND
     1    1    2 1    
     2    1   33 1    
     3    1   34 1    
     4    1   35 1    
     5    2    3 1    
     6    2   36 1    
     7    2   37 1    
     8    3    4 1    
     9    3    5 1    
    10    3    6 1    
    11    5   38 1    
    12    5   39 1    
    13    5   40 1    
    14    6    7 1    
    15    6   41 1    
    16    6   42 1    
    17    7    8 2    
    18    7    9 am   BACKBONE|DICT|INTERRES
    19    9   14 1    
    20    9   10 1    
    21   10   11 1    
    22   10   43 1    
    23   10   44 1    
    24   11   12 1    
    25   11   13 1    
    26   11   20 1    
    27   13   19 1    
    28   13   14 1    
    29   13   15 1    
    30   14   45 1    
    31   14   46 1    
    32   15   16 1    
    33   15   47 1    
    34   15   48 1    
    35   16   17 1    
    36   16   49 1    
    37   16   50 1    
    38   17   18 1    
    39   17   51 1    
    40   17   64 1    
    41   18   19 1    
    42   18   52 1    
    43   18   53 1    
    44   19   54 1    
    45   19   55 1    
    46   20   21 2    
    47   20   22 am   BACKBONE|DICT|INTERRES
    48   22   23 1    
    49   22   56 1    
    50   23   24 1    
    51   23   25 1    
    52   23   26 1    
    53   25   57 1    
    54   25   58 1    
    55   25   59 1    
    56   26   31 ar   
    57   26   27 ar   
    58   27   28 ar   
    59   27   60 1    
    60   28   29 ar   
    61   28   61 1    
    62   29   30 ar   
    63   29   32 1    
    64   30   31 ar   
    65   30   62 1    
    66   31   63 1    
@<TRIPOS>SUBSTRUCTURE
     1 UNK         1 GROUP             0       ****    0 ROOT    
