ZINC35871554_5245
                    3D
 Schrodinger Suite 2024-2.
 70 74  0  0  1  0            999 V2000
    1.3306   52.4872   29.4804 C   0  0  0  0  0  0
    1.5521   52.8389   27.9962 C   0  0  1  0  0  0
    0.8945   53.6948   27.8157 H   0  0  0  0  0  0
    2.9774   53.3217   27.6479 C   0  0  0  0  0  0
    4.0545   53.1758   28.5377 C   0  0  0  0  0  0
    5.3214   53.6463   28.1980 C   0  0  0  0  0  0
    5.5231   54.2713   26.9714 C   0  0  0  0  0  0
    4.4647   54.4384   26.0837 C   0  0  0  0  0  0
    3.1997   53.9686   26.4237 C   0  0  0  0  0  0
    1.1024   51.7103   27.1675 N   0  0  0  0  0  0
    0.5241   51.8072   25.9548 C   0  0  0  0  0  0
    0.2691   52.8885   25.4247 O   0  0  0  0  0  0
    0.1850   50.4919   25.2093 C   0  0  1  0  0  0
    0.8796   49.7244   25.5587 H   0  0  0  0  0  0
   -1.2471   50.0967   25.5813 C   0  0  0  0  0  0
   -1.6725   48.8682   24.7931 C   0  0  0  0  0  0
   -2.6566   48.0300   25.3267 C   0  0  0  0  0  0
   -3.1878   46.9637   24.6018 C   0  0  0  0  0  0
   -2.7042   46.7236   23.3170 C   0  0  0  0  0  0
   -1.6881   47.5158   22.7892 C   0  0  0  0  0  0
   -1.1486   48.6026   23.5017 C   0  0  0  0  0  0
   -0.0327   49.3224   23.0159 N   0  0  0  0  0  0
    0.2924   50.6272   23.6548 C   0  0  2  0  0  0
   -0.5342   51.2583   23.3178 H   0  0  0  0  0  0
    1.6472   51.2540   23.2154 C   0  0  0  0  0  0
    1.8509   51.2605   21.6875 N   0  3  2  0  0  0
    1.7082   49.7966   21.2295 C   0  0  0  0  0  0
    0.2859   49.3196   21.5716 C   0  0  0  0  0  0
    3.2246   51.8742   21.2610 C   0  0  0  0  0  0
    3.2060   52.1442   19.7323 C   0  0  0  0  0  0
    4.4565   52.8969   19.2356 C   0  0  0  0  0  0
    4.7054   54.1963   20.0120 C   0  0  0  0  0  0
    4.7727   53.9425   21.5250 C   0  0  0  0  0  0
    3.5344   53.1886   22.0432 C   0  0  0  0  0  0
   -4.2905   46.1025   25.2142 C   0  0  0  0  0  0
   -4.8935   45.3402   24.2998 F   0  0  0  0  0  0
   -3.7482   45.2967   26.1252 F   0  0  0  0  0  0
   -5.2154   46.8631   25.8010 F   0  0  0  0  0  0
    1.5890   53.3236   30.1305 H   0  0  0  0  0  0
    0.2846   52.2409   29.6737 H   0  0  0  0  0  0
    1.9237   51.6246   29.7841 H   0  0  0  0  0  0
    3.9316   52.6929   29.4957 H   0  0  0  0  0  0
    6.1494   53.5259   28.8814 H   0  0  0  0  0  0
    6.5067   54.6325   26.7111 H   0  0  0  0  0  0
    4.6233   54.9291   25.1356 H   0  0  0  0  0  0
    2.3917   54.1148   25.7261 H   0  0  0  0  0  0
    1.2664   50.7902   27.5463 H   0  0  0  0  0  0
   -1.3445   49.9131   26.6539 H   0  0  0  0  0  0
   -1.9465   50.8913   25.3108 H   0  0  0  0  0  0
   -3.0310   48.2315   26.3228 H   0  0  0  0  0  0
   -3.0972   45.9127   22.7211 H   0  0  0  0  0  0
   -1.3332   47.2434   21.8100 H   0  0  0  0  0  0
    1.6385   52.3078   23.4818 H   0  0  0  0  0  0
    2.4963   50.7288   23.6516 H   0  0  0  0  0  0
    2.4935   49.2015   21.7026 H   0  0  0  0  0  0
    1.8351   49.7715   20.1476 H   0  0  0  0  0  0
    0.2234   48.3187   21.1526 H   0  0  0  0  0  0
   -0.4422   49.9598   21.0708 H   0  0  0  0  0  0
    4.0317   51.1666   21.4663 H   0  0  0  0  0  0
    3.0661   51.2326   19.1524 H   0  0  0  0  0  0
    2.3323   52.7550   19.4952 H   0  0  0  0  0  0
    5.3293   52.2507   19.3326 H   0  0  0  0  0  0
    4.3646   53.1056   18.1691 H   0  0  0  0  0  0
    5.6273   54.6670   19.6683 H   0  0  0  0  0  0
    3.9019   54.8970   19.7924 H   0  0  0  0  0  0
    5.6666   53.3651   21.7606 H   0  0  0  0  0  0
    4.8780   54.8899   22.0538 H   0  0  0  0  0  0
    2.6767   53.8581   21.9503 H   0  0  0  0  0  0
    3.6377   53.0129   23.1138 H   0  0  0  0  0  0
    1.1187   51.8064   21.2537 H   0  0  0  0  0  0
  1  2  1  0  0  0
  1 39  1  0  0  0
  1 40  1  0  0  0
  1 41  1  0  0  0
  2  3  1  0  0  0
  2  4  1  0  0  0
  2 10  1  0  0  0
  4  9  2  0  0  0
  4  5  1  0  0  0
  5  6  2  0  0  0
  5 42  1  0  0  0
  6  7  1  0  0  0
  6 43  1  0  0  0
  7  8  2  0  0  0
  7 44  1  0  0  0
  8  9  1  0  0  0
  8 45  1  0  0  0
  9 46  1  0  0  0
 10 11  1  0  0  0
 10 47  1  0  0  0
 11 12  2  0  0  0
 11 13  1  0  0  0
 13 14  1  0  0  0
 13 23  1  0  0  0
 13 15  1  0  0  0
 15 16  1  0  0  0
 15 48  1  0  0  0
 15 49  1  0  0  0
 16 21  2  0  0  0
 16 17  1  0  0  0
 17 18  2  0  0  0
 17 50  1  0  0  0
 18 19  1  0  0  0
 18 35  1  0  0  0
 19 20  2  0  0  0
 19 51  1  0  0  0
 20 21  1  0  0  0
 20 52  1  0  0  0
 21 22  1  0  0  0
 22 28  1  0  0  0
 22 23  1  0  0  0
 23 24  1  0  0  0
 23 25  1  0  0  0
 25 26  1  0  0  0
 25 53  1  0  0  0
 25 54  1  0  0  0
 26 27  1  0  0  0
 26 29  1  0  0  0
 26 70  1  0  0  0
 27 28  1  0  0  0
 27 55  1  0  0  0
 27 56  1  0  0  0
 28 57  1  0  0  0
 28 58  1  0  0  0
 29 34  1  0  0  0
 29 30  1  0  0  0
 29 59  1  0  0  0
 30 31  1  0  0  0
 30 60  1  0  0  0
 30 61  1  0  0  0
 31 32  1  0  0  0
 31 62  1  0  0  0
 31 63  1  0  0  0
 32 33  1  0  0  0
 32 64  1  0  0  0
 32 65  1  0  0  0
 33 34  1  0  0  0
 33 66  1  0  0  0
 33 67  1  0  0  0
 34 68  1  0  0  0
 34 69  1  0  0  0
 35 36  1  0  0  0
 35 37  1  0  0  0
 35 38  1  0  0  0
M  CHG  1  26   1
M  END
> <i_i_glide_confnum>
9

> <i_i_glide_lignum>
5246

> <i_i_glide_posenum>
43

> <i_i_glide_rotatable_bonds>
6

> <i_m_Source_File_Index>
1181

> <b_m_subgroup_collapsed>
0

> <r_i_docking_score>
-4.58688

> <r_i_glide_ecoul>
-0.80906

> <r_i_glide_eff_state_penalty>
0

> <r_i_glide_einternal>
6.33434

> <r_i_glide_emodel>
-52.1762

> <r_i_glide_energy>
-41.9782

> <r_i_glide_erotb>
0.34334

> <r_i_glide_esite>
-0.154417

> <r_i_glide_evdw>
-41.1691

> <r_i_glide_gscore>
-4.58688

> <r_i_glide_hbond>
0

> <r_i_glide_ligand_efficiency>
-0.131054

> <r_i_glide_ligand_efficiency_ln>
-1.00692

> <r_i_glide_ligand_efficiency_sa>
-0.428685

> <r_i_glide_lipo>
-2.32098

> <r_i_glide_metal>
0

> <r_i_glide_rewards>
-0.275002

> <s_i_glide_gridfile>
wee1_glide-grid

> <s_m_Source_File>
wee1_decoys_glide_SP.sdf

> <s_m_Source_Path>
/Users/zhangxujun/Desktop

> <s_m_entry_id>
1456

> <s_m_entry_name>
wee1_decoys_glide_SP.1181

> <s_m_subgroup_title>
wee1_decoys_glide_SP

> <s_m_subgroupid>
wee1_decoys_glide_SP


$$$$
