@<TRIPOS>MOLECULE
ZINC02253533_3229
60   64    1
SMALL
USER_CHARGES


@<TRIPOS>ATOM
      1 C1         -0.5415   51.4428   16.5593 C.3       1 UNK         0.0000 
      2 O2         -1.3440   51.6443   17.7212 O.3       1 UNK         0.0000 
      3 C3         -0.9035   51.1639   18.9420 C.ar      1 UNK         0.0000 
      4 C4          0.2655   50.4065   19.1020 C.ar      1 UNK         0.0000 
      5 C5          0.6447   49.9516   20.3599 C.ar      1 UNK         0.0000 
      6 C6         -0.0958   50.2860   21.5000 C.ar      1 UNK         0.0000 
      7 C7         -1.2839   51.0230   21.3462 C.ar      1 UNK         0.0000 
      8 C8         -1.6960   51.4331   20.0672 C.ar      1 UNK         0.0000 
      9 O9         -2.8904   52.0966   19.9108 O.3       1 UNK         0.0000 
     10 C10        -3.9609   51.2499   19.5017 C.3       1 UNK         0.0000 
     11 O11        -2.0882   51.2612   22.4355 O.3       1 UNK         0.0000 
     12 C12        -1.9611   52.5511   23.0130 C.3       1 UNK         0.0000 
     13 C13         0.3968   49.8156   22.8792 C.3       1 UNK         0.0000 
     14 H14         1.2517   49.1631   22.6961 H         1 UNK         0.0000 
     15 C15         0.8675   50.9394   23.8309 C.ar      1 UNK         0.0000 
     16 C16         1.7455   52.0524   23.7630 C.ar      1 UNK         0.0000 
     17 N17         1.7250   52.7363   24.8978 N.2       1 UNK         0.0000 
     18 N18         0.9264   52.0964   25.7721 N.pl3     1 UNK         0.0000 
     19 C19         0.3633   51.0195   25.1200 C.ar      1 UNK         0.0000 
     20 O20        -0.5186   50.1612   25.7188 O.3       1 UNK         0.0000 
     21 C21        -0.9705   49.1595   24.9223 C.2       1 UNK         0.0000 
     22 C22        -0.6180   48.9297   23.6334 C.2       1 UNK         0.0000 
     23 C23        -1.2119   47.8346   22.9341 C.1       1 UNK         0.0000 
     24 N24        -1.7023   46.9353   22.3941 N.1       1 UNK         0.0000 
     25 N25        -1.8253   48.4107   25.6817 N.pl3     1 UNK         0.0000 
     26 C26         0.8107   52.5438   27.1297 C.ar      1 UNK         0.0000 
     27 C27         1.5051   53.6937   27.5599 C.ar      1 UNK         0.0000 
     28 C28         1.3941   54.1439   28.8739 C.ar      1 UNK         0.0000 
     29 C29         0.6053   53.4415   29.7804 C.ar      1 UNK         0.0000 
     30 C30        -0.0721   52.2925   29.3840 C.ar      1 UNK         0.0000 
     31 C31         0.0295   51.8450   28.0681 C.ar      1 UNK         0.0000 
     32 C32         2.6551   52.5056   22.6510 C.ar      1 UNK         0.0000 
     33 C33         3.1032   51.6001   21.6818 C.ar      1 UNK         0.0000 
     34 C34         3.9810   52.0005   20.6804 C.ar      1 UNK         0.0000 
     35 C35         4.4497   53.3098   20.6634 C.ar      1 UNK         0.0000 
     36 C36         4.0429   54.2167   21.6372 C.ar      1 UNK         0.0000 
     37 C37         3.1365   53.8220   22.6153 C.ar      1 UNK         0.0000 
     38 H38        -1.0198   51.9225   15.7057 H         1 UNK         0.0000 
     39 H39        -0.4319   50.3819   16.3225 H         1 UNK         0.0000 
     40 H40         0.4505   51.8866   16.6740 H         1 UNK         0.0000 
     41 H41         0.8914   50.1508   18.2607 H         1 UNK         0.0000 
     42 H42         1.5372   49.3481   20.4330 H         1 UNK         0.0000 
     43 H43        -4.8423   51.8519   19.2816 H         1 UNK         0.0000 
     44 H44        -3.7209   50.6864   18.5977 H         1 UNK         0.0000 
     45 H45        -4.2263   50.5441   20.2900 H         1 UNK         0.0000 
     46 H46        -2.3268   52.5215   24.0405 H         1 UNK         0.0000 
     47 H47        -0.9275   52.8967   23.0456 H         1 UNK         0.0000 
     48 H48        -2.5540   53.2903   22.4816 H         1 UNK         0.0000 
     49 H49        -2.3340   47.6365   25.2881 H         1 UNK         0.0000 
     50 H50        -1.7144   48.4205   26.6981 H         1 UNK         0.0000 
     51 H51         2.1287   54.2582   26.8812 H         1 UNK         0.0000 
     52 H52         1.9216   55.0323   29.1886 H         1 UNK         0.0000 
     53 H53         0.5204   53.7851   30.8012 H         1 UNK         0.0000 
     54 H54        -0.6749   51.7454   30.0966 H         1 UNK         0.0000 
     55 H55        -0.5139   50.9470   27.8277 H         1 UNK         0.0000 
     56 H56         2.8133   50.5664   21.7323 H         1 UNK         0.0000 
     57 H57         4.3044   51.2942   19.9297 H         1 UNK         0.0000 
     58 H58         5.1407   53.6162   19.8928 H         1 UNK         0.0000 
     59 H59         4.4195   55.2290   21.6331 H         1 UNK         0.0000 
     60 H60         2.8261   54.5438   23.3571 H         1 UNK         0.0000 
@<TRIPOS>BOND
     1    1    2 1    
     2    1   38 1    
     3    1   39 1    
     4    1   40 1    
     5    2    3 1    
     6    3    8 ar   
     7    3    4 ar   
     8    4    5 ar   
     9    4   41 1    
    10    5    6 ar   
    11    5   42 1    
    12    6    7 ar   
    13    6   13 1    
    14    7    8 ar   
    15    7   11 1    
    16    8    9 1    
    17    9   10 1    
    18   10   43 1    
    19   10   44 1    
    20   10   45 1    
    21   11   12 1    
    22   12   46 1    
    23   12   47 1    
    24   12   48 1    
    25   13   14 1    
    26   13   22 1    
    27   13   15 1    
    28   15   19 ar   
    29   15   16 ar   
    30   16   17 ar   
    31   16   32 1    
    32   17   18 ar   
    33   18   19 ar   
    34   18   26 1    
    35   19   20 1    
    36   20   21 1    
    37   21   22 2    
    38   21   25 1    
    39   22   23 1    
    40   23   24 3    
    41   25   49 1    
    42   25   50 1    
    43   26   31 ar   
    44   26   27 ar   
    45   27   28 ar   
    46   27   51 1    
    47   28   29 ar   
    48   28   52 1    
    49   29   30 ar   
    50   29   53 1    
    51   30   31 ar   
    52   30   54 1    
    53   31   55 1    
    54   32   37 ar   
    55   32   33 ar   
    56   33   34 ar   
    57   33   56 1    
    58   34   35 ar   
    59   34   57 1    
    60   35   36 ar   
    61   35   58 1    
    62   36   37 ar   
    63   36   59 1    
    64   37   60 1    
@<TRIPOS>SUBSTRUCTURE
     1 UNK         1 GROUP             0       ****    0 ROOT    
