@<TRIPOS>MOLECULE
ZINC25953209_1434
47   50    1
SMALL
USER_CHARGES


@<TRIPOS>ATOM
      1 C1         -3.3095   50.8969   27.2818 C.3       1 UNK         0.0000 
      2 C2         -2.2966   51.4436   26.3097 C.2       1 UNK         0.0000 
      3 C3         -1.0216   51.9598   26.4410 C.2       1 UNK         0.0000 
      4 C4         -0.5711   52.3326   25.1646 C.2       1 UNK         0.0000 
      5 C5         -1.5887   51.9343   24.2895 C.2       1 UNK         0.0000 
      6 O6         -2.6357   51.4329   24.9972 O.3       1 UNK         0.0000 
      7 C7         -1.7789   51.9576   22.7895 C.3       1 UNK         0.0000 
      8 C8          0.7267   52.8957   24.8758 C.2       1 UNK         0.0000 
      9 O9          1.6299   52.8447   25.7139 O.2       1 UNK         0.0000 
     10 N10         0.8199   53.5315   23.6826 N.am      1 UNK         0.0000 
     11 N11         2.0344   54.0956   23.2732 N.am      1 UNK         0.0000 
     12 C12         2.9870   53.3112   22.7288 C.2       1 UNK         0.0000 
     13 O13         2.8133   52.1397   22.3911 O.2       1 UNK         0.0000 
     14 C14         4.2317   53.9759   22.4341 C.ar      1 UNK         0.0000 
     15 C15         4.6983   54.2594   21.1608 C.ar      1 UNK         0.0000 
     16 C16         5.9501   54.8479   21.3177 C.ar      1 UNK         0.0000 
     17 N17         6.2829   54.8958   22.5864 N.2       1 UNK         0.0000 
     18 N18         5.2012   54.4966   23.2984 N.pl3     1 UNK         0.0000 
     19 C19         5.3302   54.4220   24.7228 C.ar      1 UNK         0.0000 
     20 C20         4.2204   54.5910   25.5639 C.ar      1 UNK         0.0000 
     21 C21         4.3422   54.4949   26.9450 C.ar      1 UNK         0.0000 
     22 C22         5.5864   54.2420   27.5083 C.ar      1 UNK         0.0000 
     23 C23         6.7056   54.0963   26.6986 C.ar      1 UNK         0.0000 
     24 C24         6.5821   54.1891   25.3144 C.ar      1 UNK         0.0000 
     25 C25         6.8256   55.2984   20.2497 C.2       1 UNK         0.0000 
     26 C26         6.6547   55.4159   18.8767 C.2       1 UNK         0.0000 
     27 C27         7.8468   55.9174   18.3579 C.2       1 UNK         0.0000 
     28 C28         8.6991   56.0833   19.4335 C.2       1 UNK         0.0000 
     29 O29         8.0815   55.7033   20.5807 O.3       1 UNK         0.0000 
     30 H30        -2.9728   50.9947   28.3140 H         1 UNK         0.0000 
     31 H31        -3.4873   49.8351   27.1096 H         1 UNK         0.0000 
     32 H32        -4.2685   51.4078   27.1991 H         1 UNK         0.0000 
     33 H33        -0.4795   52.0683   27.3701 H         1 UNK         0.0000 
     34 H34        -0.8384   51.8335   22.2507 H         1 UNK         0.0000 
     35 H35        -2.4325   51.1534   22.4555 H         1 UNK         0.0000 
     36 H36        -2.2285   52.8943   22.4661 H         1 UNK         0.0000 
     37 H37         0.1175   53.5159   22.9580 H         1 UNK         0.0000 
     38 H38         2.1621   55.0522   23.5646 H         1 UNK         0.0000 
     39 H39         4.1968   54.0447   20.2262 H         1 UNK         0.0000 
     40 H40         3.2516   54.8408   25.1810 H         1 UNK         0.0000 
     41 H41         3.4740   54.6241   27.5753 H         1 UNK         0.0000 
     42 H42         5.6913   54.1738   28.5825 H         1 UNK         0.0000 
     43 H43         7.6654   53.9025   27.1521 H         1 UNK         0.0000 
     44 H44         7.4654   54.0545   24.7067 H         1 UNK         0.0000 
     45 H45         5.7655   55.1677   18.3181 H         1 UNK         0.0000 
     46 H46         8.0646   56.1325   17.3217 H         1 UNK         0.0000 
     47 H47         9.7125   56.4449   19.5303 H         1 UNK         0.0000 
@<TRIPOS>BOND
     1    1    2 1    
     2    1   30 1    
     3    1   31 1    
     4    1   32 1    
     5    2    6 1    
     6    2    3 2    
     7    3    4 1    
     8    3   33 1    
     9    4    5 2    
    10    4    8 1    
    11    5    6 1    
    12    5    7 1    
    13    7   34 1    
    14    7   35 1    
    15    7   36 1    
    16    8    9 2    
    17    8   10 am   BACKBONE|DICT|INTERRES
    18   10   11 1    
    19   10   37 1    
    20   11   12 am   BACKBONE|DICT|INTERRES
    21   11   38 1    
    22   12   13 2    
    23   12   14 1    
    24   14   18 ar   
    25   14   15 ar   
    26   15   16 ar   
    27   15   39 1    
    28   16   17 ar   
    29   16   25 1    
    30   17   18 ar   
    31   18   19 1    
    32   19   24 ar   
    33   19   20 ar   
    34   20   21 ar   
    35   20   40 1    
    36   21   22 ar   
    37   21   41 1    
    38   22   23 ar   
    39   22   42 1    
    40   23   24 ar   
    41   23   43 1    
    42   24   44 1    
    43   25   29 1    
    44   25   26 2    
    45   26   27 1    
    46   26   45 1    
    47   27   28 2    
    48   27   46 1    
    49   28   29 1    
    50   28   47 1    
@<TRIPOS>SUBSTRUCTURE
     1 UNK         1 GROUP             0       ****    0 ROOT    
