@<TRIPOS>MOLECULE
ZINC39869557_4044
63   67    1
SMALL
USER_CHARGES


@<TRIPOS>ATOM
      1 C1          8.5058   55.6559   15.3832 C.3       1 UNK         0.0000 
      2 C2          7.5904   55.2451   16.5243 C.ar      1 UNK         0.0000 
      3 C3          6.7551   56.1898   17.1254 C.ar      1 UNK         0.0000 
      4 C4          5.9085   55.8093   18.1647 C.ar      1 UNK         0.0000 
      5 C5          5.9057   54.4780   18.6056 C.ar      1 UNK         0.0000 
      6 C6          6.7327   53.5316   17.9928 C.ar      1 UNK         0.0000 
      7 C7          7.5760   53.9159   16.9517 C.ar      1 UNK         0.0000 
      8 N8          5.0732   54.0796   19.6799 N.pl3     1 UNK         0.0000 
      9 C9          5.4991   54.4966   20.9463 C.ar      1 UNK         0.0000 
     10 O10         6.4980   55.2015   21.1461 O.2       1 UNK         0.0000 
     11 C11         4.6087   54.0032   21.9948 C.ar      1 UNK         0.0000 
     12 C12         4.7159   54.1534   23.3917 C.2       1 UNK         0.0000 
     13 C13         3.5743   53.6968   24.0480 C.2       1 UNK         0.0000 
     14 S14         2.4280   52.9623   22.9660 S.3       1 UNK         0.0000 
     15 C15         3.4760   53.2850   21.6276 C.ar      1 UNK         0.0000 
     16 N16         3.1604   52.9104   20.3633 N.2       1 UNK         0.0000 
     17 C17         3.9345   53.2956   19.4072 C.ar      1 UNK         0.0000 
     18 S18         3.4951   52.8056   17.7010 S.3       1 UNK         0.0000 
     19 C19         1.9016   51.9176   17.8531 C.3       1 UNK         0.0000 
     20 C20         0.7446   52.6908   17.2132 C.2       1 UNK         0.0000 
     21 O21         0.0934   52.1703   16.3068 O.2       1 UNK         0.0000 
     22 N22         0.5250   53.9362   17.6816 N.am      1 UNK         0.0000 
     23 C23        -0.3812   54.8707   17.1621 C.ar      1 UNK         0.0000 
     24 C24         0.1126   56.1493   16.8822 C.ar      1 UNK         0.0000 
     25 C25        -0.7404   57.1463   16.4115 C.ar      1 UNK         0.0000 
     26 C26        -2.0922   56.8713   16.2103 C.ar      1 UNK         0.0000 
     27 C27        -2.5950   55.6028   16.4996 C.ar      1 UNK         0.0000 
     28 C28        -1.7535   54.6060   16.9974 C.ar      1 UNK         0.0000 
     29 F29        -2.2910   53.4145   17.3502 F         1 UNK         0.0000 
     30 C30         3.3473   53.8724   25.5397 C.3       1 UNK         0.0000 
     31 N31         4.6182   54.0803   26.2665 N.3       1 UNK         0.0000 
     32 C32         5.3750   55.1703   25.6205 C.3       1 UNK         0.0000 
     33 C33         5.8409   54.8129   24.1849 C.3       1 UNK         0.0000 
     34 C34         4.3903   54.3080   27.7146 C.3       1 UNK         0.0000 
     35 C35         3.5517   53.1831   28.3693 C.3       1 UNK         0.0000 
     36 C36         5.7163   54.4363   28.4909 C.3       1 UNK         0.0000 
     37 H37         8.1459   56.5531   14.8812 H         1 UNK         0.0000 
     38 H38         9.5171   55.8332   15.7485 H         1 UNK         0.0000 
     39 H39         8.5515   54.8732   14.6251 H         1 UNK         0.0000 
     40 H40         6.7605   57.2179   16.7920 H         1 UNK         0.0000 
     41 H41         5.2692   56.5471   18.6276 H         1 UNK         0.0000 
     42 H42         6.7075   52.4972   18.3068 H         1 UNK         0.0000 
     43 H43         8.2090   53.1788   16.4811 H         1 UNK         0.0000 
     44 H44         1.6427   51.6296   18.8692 H         1 UNK         0.0000 
     45 H45         2.0234   50.9850   17.2985 H         1 UNK         0.0000 
     46 H46         1.1890   54.2926   18.3562 H         1 UNK         0.0000 
     47 H47         1.1587   56.3781   17.0301 H         1 UNK         0.0000 
     48 H48        -0.3486   58.1291   16.1947 H         1 UNK         0.0000 
     49 H49        -2.7508   57.6416   15.8369 H         1 UNK         0.0000 
     50 H50        -3.6462   55.3944   16.3582 H         1 UNK         0.0000 
     51 H51         2.7042   54.7325   25.6969 H         1 UNK         0.0000 
     52 H52         2.8452   52.9788   25.9050 H         1 UNK         0.0000 
     53 H53         4.8048   56.0971   25.6605 H         1 UNK         0.0000 
     54 H54         6.2941   55.3899   26.1552 H         1 UNK         0.0000 
     55 H55         6.6923   54.1345   24.2492 H         1 UNK         0.0000 
     56 H56         6.2649   55.6957   23.7060 H         1 UNK         0.0000 
     57 H57         3.8419   55.2446   27.8238 H         1 UNK         0.0000 
     58 H58         3.5001   53.3087   29.4512 H         1 UNK         0.0000 
     59 H59         2.5193   53.1750   28.0200 H         1 UNK         0.0000 
     60 H60         3.9835   52.2020   28.1774 H         1 UNK         0.0000 
     61 H61         5.5262   54.5798   29.5551 H         1 UNK         0.0000 
     62 H62         6.3341   53.5458   28.3782 H         1 UNK         0.0000 
     63 H63         6.3029   55.2969   28.1841 H         1 UNK         0.0000 
@<TRIPOS>BOND
     1    1    2 1    
     2    1   37 1    
     3    1   38 1    
     4    1   39 1    
     5    2    7 ar   
     6    2    3 ar   
     7    3    4 ar   
     8    3   40 1    
     9    4    5 ar   
    10    4   41 1    
    11    5    6 ar   
    12    5    8 1    
    13    6    7 ar   
    14    6   42 1    
    15    7   43 1    
    16    8   17 ar   
    17    8    9 ar   
    18    9   10 2    
    19    9   11 ar   
    20   11   15 ar   
    21   11   12 1    
    22   12   33 1    
    23   12   13 2    
    24   13   14 1    
    25   13   30 1    
    26   14   15 1    
    27   15   16 ar   
    28   16   17 ar   
    29   17   18 1    
    30   18   19 1    
    31   19   20 1    
    32   19   44 1    
    33   19   45 1    
    34   20   21 2    
    35   20   22 am   BACKBONE|DICT|INTERRES
    36   22   23 1    
    37   22   46 1    
    38   23   28 ar   
    39   23   24 ar   
    40   24   25 ar   
    41   24   47 1    
    42   25   26 ar   
    43   25   48 1    
    44   26   27 ar   
    45   26   49 1    
    46   27   28 ar   
    47   27   50 1    
    48   28   29 1    
    49   30   31 1    
    50   30   51 1    
    51   30   52 1    
    52   31   32 1    
    53   31   34 1    
    54   32   33 1    
    55   32   53 1    
    56   32   54 1    
    57   33   55 1    
    58   33   56 1    
    59   34   35 1    
    60   34   36 1    
    61   34   57 1    
    62   35   58 1    
    63   35   59 1    
    64   35   60 1    
    65   36   61 1    
    66   36   62 1    
    67   36   63 1    
@<TRIPOS>SUBSTRUCTURE
     1 UNK         1 GROUP             0       ****    0 ROOT    
