@<TRIPOS>MOLECULE
ZINC21810410_480
58   61    1
SMALL
USER_CHARGES


@<TRIPOS>ATOM
      1 C1          7.8817   56.0436   21.0248 C.3       1 UNK         0.0000 
      2 C2          6.6771   55.2964   21.5750 C.2       1 UNK         0.0000 
      3 O3          6.5105   55.2205   22.7904 O.2       1 UNK         0.0000 
      4 N4          5.9042   54.7059   20.6419 N.am      1 UNK         0.0000 
      5 C5          4.7907   53.8657   20.8115 C.ar      1 UNK         0.0000 
      6 C6          3.9464   53.8868   21.9324 C.ar      1 UNK         0.0000 
      7 C7          2.8234   53.0614   21.9688 C.ar      1 UNK         0.0000 
      8 C8          2.5455   52.2055   20.8991 C.ar      1 UNK         0.0000 
      9 C9          3.4067   52.1678   19.7950 C.ar      1 UNK         0.0000 
     10 C10         4.5169   53.0000   19.7515 C.ar      1 UNK         0.0000 
     11 N11         1.3333   51.4957   20.9318 N.am      1 UNK         0.0000 
     12 C12         1.0351   50.3291   20.3192 C.2       1 UNK         0.0000 
     13 O13         1.8711   49.5989   19.7863 O.2       1 UNK         0.0000 
     14 C14        -0.4341   49.8746   20.2945 C.3       1 UNK         0.0000 
     15 S15        -1.7110   51.1616   20.6144 S.3       1 UNK         0.0000 
     16 C16        -1.7158   51.2799   22.4173 C.ar      1 UNK         0.0000 
     17 N17        -2.4928   52.1900   22.8806 N.2       1 UNK         0.0000 
     18 C18        -2.5576   52.4157   24.1946 C.ar      1 UNK         0.0000 
     19 O19        -3.2956   53.2345   24.7397 O.2       1 UNK         0.0000 
     20 C20        -1.6669   51.6213   25.0659 C.ar      1 UNK         0.0000 
     21 C21        -0.9164   50.6521   24.4509 C.ar      1 UNK         0.0000 
     22 N22        -0.9408   50.4918   23.0883 N.ar      1 UNK         0.0000 
     23 C23         0.0894   49.7976   25.2070 C.3       1 UNK         0.0000 
     24 C24         0.5469   50.5037   26.4920 C.3       1 UNK         0.0000 
     25 N25        -0.7093   50.8966   27.3033 N.4       1 UNK         0.0000 
     26 C26        -1.5694   51.9463   26.5568 C.3       1 UNK         0.0000 
     27 C27        -0.3503   51.3985   28.7295 C.3       1 UNK         0.0000 
     28 C28         0.7933   52.4053   28.8421 C.ar      1 UNK         0.0000 
     29 C29         2.1138   51.9540   28.9302 C.ar      1 UNK         0.0000 
     30 C30         3.1565   52.8650   29.0712 C.ar      1 UNK         0.0000 
     31 C31         2.8774   54.2272   29.1332 C.ar      1 UNK         0.0000 
     32 C32         1.5651   54.6861   29.0552 C.ar      1 UNK         0.0000 
     33 C33         0.5219   53.7724   28.9146 C.ar      1 UNK         0.0000 
     34 F34         3.8901   55.1081   29.2794 F         1 UNK         0.0000 
     35 H35         8.5496   55.3521   20.5066 H         1 UNK         0.0000 
     36 H36         8.4455   56.4963   21.8403 H         1 UNK         0.0000 
     37 H37         7.5683   56.8138   20.3225 H         1 UNK         0.0000 
     38 H38         6.2275   54.7816   19.6889 H         1 UNK         0.0000 
     39 H39         4.1274   54.5605   22.7561 H         1 UNK         0.0000 
     40 H40         2.1551   53.1136   22.8164 H         1 UNK         0.0000 
     41 H41         3.2130   51.5294   18.9444 H         1 UNK         0.0000 
     42 H42         5.1535   52.9638   18.8782 H         1 UNK         0.0000 
     43 H43         0.6092   51.8902   21.5148 H         1 UNK         0.0000 
     44 H44        -0.6302   49.4690   19.3020 H         1 UNK         0.0000 
     45 H45        -0.5464   49.0410   20.9872 H         1 UNK         0.0000 
     46 H46        -0.3723   48.8391   25.4435 H         1 UNK         0.0000 
     47 H47         0.9547   49.5697   24.5815 H         1 UNK         0.0000 
     48 H48         1.1387   49.8208   27.0999 H         1 UNK         0.0000 
     49 H49         1.1045   51.4197   26.2910 H         1 UNK         0.0000 
     50 H50        -1.0548   52.8977   26.6768 H         1 UNK         0.0000 
     51 H51        -2.5376   51.9745   27.0605 H         1 UNK         0.0000 
     52 H52        -1.2788   51.7736   29.1612 H         1 UNK         0.0000 
     53 H53        -0.0951   50.4967   29.2802 H         1 UNK         0.0000 
     54 H54         2.3352   50.8978   28.8834 H         1 UNK         0.0000 
     55 H55         4.1799   52.5227   29.1253 H         1 UNK         0.0000 
     56 H56         1.3593   55.7456   29.1051 H         1 UNK         0.0000 
     57 H57        -0.4961   54.1232   28.8617 H         1 UNK         0.0000 
     58 H58        -1.2509   50.0415   27.4377 H         1 UNK         0.0000 
@<TRIPOS>BOND
     1    1    2 1    
     2    1   35 1    
     3    1   36 1    
     4    1   37 1    
     5    2    3 2    
     6    2    4 am   BACKBONE|DICT|INTERRES
     7    4    5 1    
     8    4   38 1    
     9    5   10 ar   
    10    5    6 ar   
    11    6    7 ar   
    12    6   39 1    
    13    7    8 ar   
    14    7   40 1    
    15    8    9 ar   
    16    8   11 1    
    17    9   10 ar   
    18    9   41 1    
    19   10   42 1    
    20   11   12 am   BACKBONE|DICT|INTERRES
    21   11   43 1    
    22   12   13 2    
    23   12   14 1    
    24   14   44 1    
    25   14   45 1    
    26   14   15 1    
    27   15   16 1    
    28   16   22 ar   
    29   16   17 ar   
    30   17   18 ar   
    31   18   19 2    
    32   18   20 ar   
    33   20   26 1    
    34   20   21 ar   
    35   21   22 ar   
    36   21   23 1    
    37   23   24 1    
    38   23   46 1    
    39   23   47 1    
    40   24   25 1    
    41   24   48 1    
    42   24   49 1    
    43   25   26 1    
    44   25   27 1    
    45   25   58 1    
    46   26   50 1    
    47   26   51 1    
    48   27   28 1    
    49   27   52 1    
    50   27   53 1    
    51   28   33 ar   
    52   28   29 ar   
    53   29   30 ar   
    54   29   54 1    
    55   30   31 ar   
    56   30   55 1    
    57   31   32 ar   
    58   31   34 1    
    59   32   33 ar   
    60   32   56 1    
    61   33   57 1    
@<TRIPOS>SUBSTRUCTURE
     1 UNK         1 GROUP             0       ****    0 ROOT    
