ZINC39403940_891
                    3D
 Schrodinger Suite 2024-2.
 49 52  0  0  1  0            999 V2000
    3.8504   58.4633   16.1648 C   0  0  0  0  0  0
    3.6796   57.1043   16.4410 C   0  0  0  0  0  0
    4.6538   56.1639   16.0592 C   0  0  0  0  0  0
    5.8008   56.6244   15.3973 C   0  0  0  0  0  0
    5.9697   57.9803   15.1150 C   0  0  0  0  0  0
    4.9932   58.8969   15.4955 C   0  0  0  0  0  0
    7.5347   58.5757   14.2120 Br  0  0  0  0  0  0
    4.5124   54.7286   16.3342 C   0  0  0  0  0  0
    3.4688   54.2114   16.8417 N   0  0  0  0  0  0
    3.5450   52.8666   17.0562 N   0  0  0  0  0  0
    2.5463   52.1851   17.6244 C   0  0  0  0  0  0
    2.7044   50.9984   18.1710 N   0  3  0  0  0  0
    1.4180   50.6843   18.7318 C   0  0  2  0  0  0
    1.0441   49.7479   18.3155 H   0  0  0  0  0  0
    0.5869   51.7766   18.3235 N   0  0  0  0  0  0
    1.2917   52.6218   17.6903 N   0  0  0  0  0  0
    1.5986   50.5460   20.5360 S   0  0  0  0  0  0
    2.2679   52.1929   20.9752 C   0  0  0  0  0  0
    2.3426   52.4842   22.4768 C   0  0  0  0  0  0
    2.2326   51.5682   23.2849 O   0  0  0  0  0  0
    2.5301   53.7724   22.8252 N   0  0  0  0  0  0
    2.6067   54.3503   24.1819 C   0  0  2  0  0  0
    2.2149   55.3583   24.0819 H   0  0  0  0  0  0
    4.0267   54.4967   24.7939 C   0  0  1  0  0  0
    4.2274   55.5482   24.9781 H   0  0  0  0  0  0
    4.0396   53.8681   26.1694 C   0  0  0  0  0  0
    2.8381   53.4645   26.6101 C   0  0  0  0  0  0
    1.5046   53.6897   25.4658 S   0  0  0  0  0  0
    2.8831   52.8724   27.9985 C   0  0  0  0  0  0
    4.3477   53.0467   28.4015 C   0  0  0  0  0  0
    5.1163   53.6101   27.2019 C   0  0  0  0  0  0
    5.1480   54.0716   23.9410 C   0  0  0  0  0  0
    6.0317   53.7395   23.2720 N   0  0  0  0  0  0
    3.1035   59.1835   16.4698 H   0  0  0  0  0  0
    2.7831   56.7913   16.9541 H   0  0  0  0  0  0
    6.5767   55.9383   15.0877 H   0  0  0  0  0  0
    5.1188   59.9500   15.2820 H   0  0  0  0  0  0
    5.3881   54.1355   16.0738 H   0  0  0  0  0  0
    4.4399   52.4100   16.9337 H   0  0  0  0  0  0
    1.6251   52.9373   20.5131 H   0  0  0  0  0  0
    3.2621   52.3039   20.5445 H   0  0  0  0  0  0
    2.5571   54.4417   22.0669 H   0  0  0  0  0  0
    2.5924   51.8211   27.9678 H   0  0  0  0  0  0
    2.2096   53.3943   28.6783 H   0  0  0  0  0  0
    4.7775   52.0996   28.7340 H   0  0  0  0  0  0
    4.4271   53.7285   29.2487 H   0  0  0  0  0  0
    5.6509   54.5266   27.4588 H   0  0  0  0  0  0
    5.8484   52.9011   26.8145 H   0  0  0  0  0  0
    3.5681   50.4485   18.1864 H   0  0  0  0  0  0
  1  6  2  0  0  0
  1  2  1  0  0  0
  1 34  1  0  0  0
  2  3  2  0  0  0
  2 35  1  0  0  0
  3  4  1  0  0  0
  3  8  1  0  0  0
  4  5  2  0  0  0
  4 36  1  0  0  0
  5  6  1  0  0  0
  5  7  1  0  0  0
  6 37  1  0  0  0
  8  9  2  0  0  0
  8 38  1  0  0  0
  9 10  1  0  0  0
 10 11  1  0  0  0
 10 39  1  0  0  0
 11 16  1  0  0  0
 11 12  2  0  0  0
 12 13  1  0  0  0
 12 49  1  0  0  0
 13 14  1  0  0  0
 13 15  1  0  0  0
 13 17  1  0  0  0
 15 16  2  0  0  0
 17 18  1  0  0  0
 18 19  1  0  0  0
 18 40  1  0  0  0
 18 41  1  0  0  0
 19 20  2  0  0  0
 19 21  1  0  0  0
 21 22  1  0  0  0
 21 42  1  0  0  0
 22 23  1  0  0  0
 22 28  1  0  0  0
 22 24  1  0  0  0
 24 25  1  0  0  0
 24 26  1  0  0  0
 24 32  1  0  0  0
 26 31  1  0  0  0
 26 27  2  0  0  0
 27 28  1  0  0  0
 27 29  1  0  0  0
 29 30  1  0  0  0
 29 43  1  0  0  0
 29 44  1  0  0  0
 30 31  1  0  0  0
 30 45  1  0  0  0
 30 46  1  0  0  0
 31 47  1  0  0  0
 31 48  1  0  0  0
 32 33  3  0  0  0
M  CHG  1  12   1
M  END
> <i_i_glide_confnum>
147

> <i_i_glide_lignum>
892

> <i_i_glide_posenum>
305

> <i_i_glide_rotatable_bonds>
9

> <i_m_Source_File_Index>
2096

> <b_m_subgroup_collapsed>
0

> <r_i_docking_score>
-4.33227

> <r_i_glide_ecoul>
-5.84794

> <r_i_glide_eff_state_penalty>
0

> <r_i_glide_einternal>
10.2465

> <r_i_glide_emodel>
-40.6737

> <r_i_glide_energy>
-31.9473

> <r_i_glide_erotb>
0.56044

> <r_i_glide_esite>
-0.269599

> <r_i_glide_evdw>
-26.0993

> <r_i_glide_gscore>
-4.33227

> <r_i_glide_hbond>
-0.322262

> <r_i_glide_ligand_efficiency>
-0.144409

> <r_i_glide_ligand_efficiency_ln>
-0.984338

> <r_i_glide_ligand_efficiency_sa>
-0.448712

> <r_i_glide_lipo>
-1.62774

> <r_i_glide_metal>
0

> <r_i_glide_rewards>
-0.49095

> <s_i_glide_gridfile>
wee1_glide-grid

> <s_m_Source_File>
wee1_decoys_glide_SP.sdf

> <s_m_Source_Path>
/Users/zhangxujun/Desktop

> <s_m_entry_id>
2371

> <s_m_entry_name>
wee1_decoys_glide_SP.2096

> <s_m_subgroup_title>
wee1_decoys_glide_SP

> <s_m_subgroupid>
wee1_decoys_glide_SP


$$$$
