@<TRIPOS>MOLECULE
ZINC63425574_1112
61   64    1
SMALL
USER_CHARGES


@<TRIPOS>ATOM
      1 C1          2.3324   49.9640   18.6005 C.3       1 UNK         0.0000 
      2 C2          0.9108   50.3923   18.1640 C.3       1 UNK         0.0000 
      3 C3          0.7958   51.9264   17.9803 C.3       1 UNK         0.0000 
      4 C4          0.5796   49.7063   16.8239 C.3       1 UNK         0.0000 
      5 O5         -0.0703   49.8665   19.0796 O.3       1 UNK         0.0000 
      6 C6         -0.0825   49.9889   20.4442 C.2       1 UNK         0.0000 
      7 O7         -0.5865   49.1188   21.1478 O.2       1 UNK         0.0000 
      8 N8          0.4973   51.1752   20.8901 N.am      1 UNK         0.0000 
      9 C9          0.7629   51.5312   22.2906 C.3       1 UNK         0.0000 
     10 H10         1.5414   50.8474   22.6380 H         1 UNK         0.0000 
     11 C11         1.3269   52.9862   22.3708 C.3       1 UNK         0.0000 
     12 C12         2.8192   53.1834   22.1247 C.2       1 UNK         0.0000 
     13 C13         3.7781   53.6606   22.9410 C.2       1 UNK         0.0000 
     14 C14         3.7170   54.1015   24.3431 C.2       1 UNK         0.0000 
     15 C15         4.8308   54.5032   24.9903 C.2       1 UNK         0.0000 
     16 C16         6.0865   54.5025   24.2572 C.2       1 UNK         0.0000 
     17 C17         6.1566   54.1208   22.9555 C.2       1 UNK         0.0000 
     18 C18         5.0074   53.6933   22.2766 C.2       1 UNK         0.0000 
     19 N19         4.8701   53.2808   21.0404 N.pl3     1 UNK         0.0000 
     20 C20         3.4752   52.8885   20.7918 C.3       1 UNK         0.0000 
     21 C21        -0.4552   51.3204   23.2465 C.3       1 UNK         0.0000 
     22 H22        -0.8711   50.3145   23.1961 H         1 UNK         0.0000 
     23 N23        -1.5156   52.2571   23.0034 N.2       1 UNK         0.0000 
     24 N24        -1.7541   52.8960   24.0561 N.2       1 UNK         0.0000 
     25 C25        -0.8845   52.4490   25.1037 C.3       1 UNK         0.0000 
     26 H26        -0.2965   53.2966   25.4358 H         1 UNK         0.0000 
     27 O27        -0.0010   51.4985   24.5628 O.3       1 UNK         0.0000 
     28 S28        -1.8356   51.8353   26.5186 S.3       1 UNK         0.0000 
     29 C29        -0.5377   51.0529   27.5284 C.3       1 UNK         0.0000 
     30 C30         0.4810   52.0427   28.0949 C.ar      1 UNK         0.0000 
     31 C31         1.5726   52.4239   27.3079 C.ar      1 UNK         0.0000 
     32 C32         2.5382   53.2939   27.8033 C.ar      1 UNK         0.0000 
     33 C33         2.4179   53.8122   29.0877 C.ar      1 UNK         0.0000 
     34 C34         1.3375   53.4434   29.8853 C.ar      1 UNK         0.0000 
     35 C35         0.3776   52.5525   29.3999 C.ar      1 UNK         0.0000 
     36 Cl36       -0.8955   52.0852   30.4613 Cl        1 UNK         0.0000 
     37 Cl37        3.6185   54.8950   29.6820 Cl        1 UNK         0.0000 
     38 H38         2.5313   50.1143   19.6579 H         1 UNK         0.0000 
     39 H39         2.5070   48.9027   18.4208 H         1 UNK         0.0000 
     40 H40         3.1000   50.5256   18.0721 H         1 UNK         0.0000 
     41 H41         1.3548   52.2549   17.1031 H         1 UNK         0.0000 
     42 H42        -0.2417   52.2250   17.8273 H         1 UNK         0.0000 
     43 H43         1.1831   52.5023   18.8184 H         1 UNK         0.0000 
     44 H44         0.6110   48.6184   16.9101 H         1 UNK         0.0000 
     45 H45        -0.4179   49.9727   16.4718 H         1 UNK         0.0000 
     46 H46         1.2947   49.9869   16.0468 H         1 UNK         0.0000 
     47 H47         0.8741   51.7838   20.1811 H         1 UNK         0.0000 
     48 H48         0.7845   53.6347   21.6850 H         1 UNK         0.0000 
     49 H49         1.1245   53.4034   23.3552 H         1 UNK         0.0000 
     50 H50         2.7852   54.1176   24.8886 H         1 UNK         0.0000 
     51 H51         4.7986   54.8446   26.0139 H         1 UNK         0.0000 
     52 H52         6.9920   54.8200   24.7596 H         1 UNK         0.0000 
     53 H53         7.1227   54.1484   22.4732 H         1 UNK         0.0000 
     54 H54         3.4798   51.8319   20.5290 H         1 UNK         0.0000 
     55 H55         3.1049   53.4836   19.9565 H         1 UNK         0.0000 
     56 H56        -1.0195   50.4970   28.3293 H         1 UNK         0.0000 
     57 H57        -0.0280   50.2901   26.9380 H         1 UNK         0.0000 
     58 H58         1.6871   52.0389   26.3070 H         1 UNK         0.0000 
     59 H59         3.3875   53.5557   27.1948 H         1 UNK         0.0000 
     60 H60         1.2404   53.8349   30.8871 H         1 UNK         0.0000 
     61 H61         5.6103   53.2147   20.3461 H         1 UNK         0.0000 
@<TRIPOS>BOND
     1    1    2 1    
     2    1   38 1    
     3    1   39 1    
     4    1   40 1    
     5    2    3 1    
     6    2    4 1    
     7    2    5 1    
     8    3   41 1    
     9    3   42 1    
    10    3   43 1    
    11    4   44 1    
    12    4   45 1    
    13    4   46 1    
    14    5    6 1    
    15    6    7 2    
    16    6    8 am   BACKBONE|DICT|INTERRES
    17    8    9 1    
    18    8   47 1    
    19    9   10 1    
    20    9   11 1    
    21    9   21 1    
    22   11   12 1    
    23   11   48 1    
    24   11   49 1    
    25   12   20 1    
    26   12   13 2    
    27   13   18 1    
    28   13   14 1    
    29   14   15 2    
    30   14   50 1    
    31   15   16 1    
    32   15   51 1    
    33   16   17 2    
    34   16   52 1    
    35   17   18 1    
    36   17   53 1    
    37   18   19 2    
    38   19   20 1    
    39   19   61 1    
    40   20   54 1    
    41   20   55 1    
    42   21   22 1    
    43   21   27 1    
    44   21   23 1    
    45   23   24 2    
    46   24   25 1    
    47   25   26 1    
    48   25   27 1    
    49   25   28 1    
    50   28   29 1    
    51   29   30 1    
    52   29   56 1    
    53   29   57 1    
    54   30   35 ar   
    55   30   31 ar   
    56   31   32 ar   
    57   31   58 1    
    58   32   33 ar   
    59   32   59 1    
    60   33   34 ar   
    61   33   37 1    
    62   34   35 ar   
    63   34   60 1    
    64   35   36 1    
@<TRIPOS>SUBSTRUCTURE
     1 UNK         1 GROUP             0       ****    0 ROOT    
