ZINC10384409_5525
                    3D
 Schrodinger Suite 2024-2.
 67 70  0  0  1  0            999 V2000
   -3.6153   51.3511   26.3359 C   0  0  0  0  0  0
   -2.7715   50.2659   26.0343 C   0  0  0  0  0  0
   -3.2957   48.9702   26.0818 C   0  0  0  0  0  0
   -4.6234   48.7529   26.4495 C   0  0  0  0  0  0
   -5.4475   49.8340   26.7614 C   0  0  0  0  0  0
   -4.9438   51.1330   26.7021 C   0  0  0  0  0  0
   -5.9650   52.4744   27.0782 Cl  0  0  0  0  0  0
   -5.2437   47.1441   26.5205 Cl  0  0  0  0  0  0
   -1.4205   50.3866   25.6505 N   0  0  0  0  0  0
   -0.6011   51.4497   25.7795 C   0  0  0  0  0  0
   -0.8938   52.4965   26.3486 O   0  0  0  0  0  0
    0.7987   51.3313   25.1655 C   0  0  0  0  0  0
    0.9388   52.1403   23.8331 C   0  0  2  0  0  0
    0.1946   52.9339   23.7250 H   0  0  0  0  0  0
    0.6954   51.2022   22.6104 C   0  0  0  0  0  0
   -0.3108   50.5082   22.4948 O   0  0  0  0  0  0
    1.6190   51.1891   21.6320 N   0  0  0  0  0  0
    2.8928   51.9095   21.6170 C   0  0  1  0  0  0
    3.6321   51.2543   22.0817 H   0  0  0  0  0  0
    3.3755   52.1486   20.1705 C   0  0  0  0  0  0
    4.7232   52.8946   20.1405 C   0  0  0  0  0  0
    4.6717   54.1979   20.9576 C   0  0  0  0  0  0
    4.1628   53.9671   22.3955 C   0  0  0  0  0  0
    2.7942   53.2395   22.4218 C   0  0  2  0  0  0
    2.0262   53.8732   21.9713 H   0  0  0  0  0  0
    2.2544   54.0923   24.8536 C   0  0  0  0  0  0
    3.3740   53.9733   25.9227 C   0  0  0  0  0  0
    4.5040   53.6968   25.5231 O   0  0  0  0  0  0
    3.0892   54.0651   27.2550 N   0  0  0  0  0  0
    4.1330   53.7881   28.2734 C   0  0  0  0  0  0
    3.5332   52.8294   29.3401 C   0  0  0  0  0  0
    2.2165   53.4040   29.9264 C   0  0  0  0  0  0
    1.2205   53.6801   28.7814 C   0  0  0  0  0  0
    1.8501   54.6668   27.7859 C   0  0  0  0  0  0
    1.6086   52.4966   31.0242 C   0  0  0  0  0  0
    2.3227   51.7450   31.6817 O   0  0  0  0  0  0
    0.3043   52.6131   31.2816 N   0  0  0  0  0  0
   -3.2664   52.3698   26.2841 H   0  0  0  0  0  0
   -2.6663   48.1177   25.8677 H   0  0  0  0  0  0
   -6.4749   49.6632   27.0465 H   0  0  0  0  0  0
   -1.0135   49.5457   25.2729 H   0  0  0  0  0  0
    1.4937   51.6968   25.9244 H   0  0  0  0  0  0
    1.0794   50.2828   25.0383 H   0  0  0  0  0  0
    1.4343   50.5506   20.8706 H   0  0  0  0  0  0
    3.4734   51.2036   19.6316 H   0  0  0  0  0  0
    2.6357   52.7409   19.6277 H   0  0  0  0  0  0
    5.0066   53.1033   19.1069 H   0  0  0  0  0  0
    5.5034   52.2426   20.5350 H   0  0  0  0  0  0
    4.0083   54.8967   20.4490 H   0  0  0  0  0  0
    5.6574   54.6662   20.9777 H   0  0  0  0  0  0
    4.1441   54.8960   22.9623 H   0  0  0  0  0  0
    4.8946   53.3522   22.9215 H   0  0  0  0  0  0
    2.3640   55.0050   24.2695 H   0  0  0  0  0  0
    1.2525   54.0968   25.2685 H   0  0  0  0  0  0
    5.0257   53.3255   27.8462 H   0  0  0  0  0  0
    4.4186   54.7331   28.7382 H   0  0  0  0  0  0
    3.3635   51.8761   28.8357 H   0  0  0  0  0  0
    4.2996   52.7220   30.1103 H   0  0  0  0  0  0
    2.4169   54.3290   30.4675 H   0  0  0  0  0  0
    0.3159   54.1772   29.1340 H   0  0  0  0  0  0
    0.9739   52.7718   28.2284 H   0  0  0  0  0  0
    2.1091   55.5963   28.2949 H   0  0  0  0  0  0
    1.1045   54.8967   27.0455 H   0  0  0  0  0  0
   -0.2672   53.2093   30.7075 H   0  0  0  0  0  0
   -0.1571   52.0949   32.0303 H   0  0  0  0  0  0
    2.3145   52.8867   23.8537 N   0  3  1  0  0  0
    2.9961   52.2301   24.2116 H   0  0  0  0  0  0
  1  6  2  0  0  0
  1  2  1  0  0  0
  1 38  1  0  0  0
  2  3  2  0  0  0
  2  9  1  0  0  0
  3  4  1  0  0  0
  3 39  1  0  0  0
  4  5  2  0  0  0
  4  8  1  0  0  0
  5  6  1  0  0  0
  5 40  1  0  0  0
  6  7  1  0  0  0
  9 10  1  0  0  0
  9 41  1  0  0  0
 10 11  2  0  0  0
 10 12  1  0  0  0
 12 13  1  0  0  0
 12 42  1  0  0  0
 12 43  1  0  0  0
 13 14  1  0  0  0
 13 15  1  0  0  0
 13 66  1  0  0  0
 15 16  2  0  0  0
 15 17  1  0  0  0
 17 18  1  0  0  0
 17 44  1  0  0  0
 18 19  1  0  0  0
 18 24  1  0  0  0
 18 20  1  0  0  0
 20 21  1  0  0  0
 20 45  1  0  0  0
 20 46  1  0  0  0
 21 22  1  0  0  0
 21 47  1  0  0  0
 21 48  1  0  0  0
 22 23  1  0  0  0
 22 49  1  0  0  0
 22 50  1  0  0  0
 23 24  1  0  0  0
 23 51  1  0  0  0
 23 52  1  0  0  0
 24 25  1  0  0  0
 24 66  1  0  0  0
 26 27  1  0  0  0
 26 53  1  0  0  0
 26 54  1  0  0  0
 26 66  1  0  0  0
 27 28  2  0  0  0
 27 29  1  0  0  0
 29 34  1  0  0  0
 29 30  1  0  0  0
 30 31  1  0  0  0
 30 55  1  0  0  0
 30 56  1  0  0  0
 31 32  1  0  0  0
 31 57  1  0  0  0
 31 58  1  0  0  0
 32 33  1  0  0  0
 32 35  1  0  0  0
 32 59  1  0  0  0
 33 34  1  0  0  0
 33 60  1  0  0  0
 33 61  1  0  0  0
 34 62  1  0  0  0
 34 63  1  0  0  0
 35 36  2  0  0  0
 35 37  1  0  0  0
 37 64  1  0  0  0
 37 65  1  0  0  0
 66 67  1  0  0  0
M  CHG  1  66   1
M  END
> <i_i_glide_confnum>
154

> <i_i_glide_lignum>
5526

> <i_i_glide_posenum>
150

> <i_i_glide_rotatable_bonds>
8

> <i_m_Source_File_Index>
316

> <b_m_subgroup_collapsed>
0

> <r_i_docking_score>
-4.9125

> <r_i_glide_ecoul>
-4.52557

> <r_i_glide_eff_state_penalty>
0

> <r_i_glide_einternal>
11.4852

> <r_i_glide_emodel>
-50.4145

> <r_i_glide_energy>
-40.14

> <r_i_glide_erotb>
0.447298

> <r_i_glide_esite>
-0.229628

> <r_i_glide_evdw>
-35.6145

> <r_i_glide_gscore>
-4.9125

> <r_i_glide_hbond>
-0.38543

> <r_i_glide_ligand_efficiency>
-0.140357

> <r_i_glide_ligand_efficiency_ln>
-1.0784

> <r_i_glide_ligand_efficiency_sa>
-0.459117

> <r_i_glide_lipo>
-1.65202

> <r_i_glide_metal>
0

> <r_i_glide_rewards>
-0.633163

> <s_i_glide_gridfile>
wee1_glide-grid

> <s_m_Source_File>
wee1_decoys_glide_SP.sdf

> <s_m_Source_Path>
/Users/zhangxujun/Desktop

> <s_m_entry_id>
591

> <s_m_entry_name>
wee1_decoys_glide_SP.316

> <s_m_subgroup_title>
wee1_decoys_glide_SP

> <s_m_subgroupid>
wee1_decoys_glide_SP


$$$$
