@<TRIPOS>MOLECULE
ZINC38547398_122
57   61    1
SMALL
USER_CHARGES


@<TRIPOS>ATOM
      1 C1          5.4318   52.2167   14.7890 C.3       1 UNK         0.0000 
      2 C2          4.4638   53.0951   15.5578 C.ar      1 UNK         0.0000 
      3 C3          3.7264   54.0950   14.9129 C.ar      1 UNK         0.0000 
      4 C4          2.8187   54.8594   15.6504 C.ar      1 UNK         0.0000 
      5 N5          2.6735   54.6172   16.9695 N.pl3     1 UNK         0.0000 
      6 C6          3.3743   53.6813   17.6413 C.ar      1 UNK         0.0000 
      7 C7          4.2872   52.8967   16.9307 C.ar      1 UNK         0.0000 
      8 N8          3.1046   53.5440   19.0280 N.pl3     1 UNK         0.0000 
      9 C9          3.8967   52.8502   20.0568 C.3       1 UNK         0.0000 
     10 H10         4.3999   52.0375   19.5344 H         1 UNK         0.0000 
     11 C11         5.0425   53.7197   20.6501 C.ar      1 UNK         0.0000 
     12 C12         5.4735   53.6079   21.9875 C.ar      1 UNK         0.0000 
     13 C13         6.4339   54.4965   22.4807 C.ar      1 UNK         0.0000 
     14 C14         7.0041   55.4309   21.6171 C.ar      1 UNK         0.0000 
     15 C15         6.5713   55.4604   20.2904 C.ar      1 UNK         0.0000 
     16 N16         5.6096   54.6317   19.8090 N.ar      1 UNK         0.0000 
     17 C17         2.9381   52.2167   21.0804 C.2       1 UNK         0.0000 
     18 C18         2.3981   52.8374   22.2446 C.2       1 UNK         0.0000 
     19 C19         1.7279   51.9393   23.0844 C.2       1 UNK         0.0000 
     20 S20         1.5284   50.4003   22.3480 S.3       1 UNK         0.0000 
     21 C21         2.3568   50.9498   20.9105 C.2       1 UNK         0.0000 
     22 N22         2.3319   50.2178   19.7215 N.am      1 UNK         0.0000 
     23 C23         1.9834   48.9210   19.5734 C.2       1 UNK         0.0000 
     24 O24         1.9040   48.0969   20.4817 O.2       1 UNK         0.0000 
     25 C25         1.7087   48.5398   18.2190 C.2       1 UNK         0.0000 
     26 C26         1.1044   49.2265   17.1658 C.2       1 UNK         0.0000 
     27 C27         0.9882   48.3220   16.1084 C.2       1 UNK         0.0000 
     28 C28         1.4733   47.1119   16.5761 C.2       1 UNK         0.0000 
     29 O29         1.8733   47.2349   17.8675 O.3       1 UNK         0.0000 
     30 C30         1.2671   52.2280   24.5091 C.3       1 UNK         0.0000 
     31 C31         1.4008   53.7286   24.8325 C.3       1 UNK         0.0000 
     32 C32         2.6295   54.3824   24.1807 C.3       1 UNK         0.0000 
     33 C33         2.4945   54.3080   22.6548 C.3       1 UNK         0.0000 
     34 H34         5.4779   52.4738   13.7312 H         1 UNK         0.0000 
     35 H35         6.4330   52.3026   15.2109 H         1 UNK         0.0000 
     36 H36         5.1330   51.1714   14.8780 H         1 UNK         0.0000 
     37 H37         3.8476   54.2702   13.8536 H         1 UNK         0.0000 
     38 H38         2.2053   55.6484   15.2360 H         1 UNK         0.0000 
     39 H39         4.8272   52.0978   17.4105 H         1 UNK         0.0000 
     40 H40         2.3146   54.0568   19.4043 H         1 UNK         0.0000 
     41 H41         5.0503   52.8749   22.6549 H         1 UNK         0.0000 
     42 H42         6.7600   54.4347   23.5090 H         1 UNK         0.0000 
     43 H43         7.7790   56.0969   21.9680 H         1 UNK         0.0000 
     44 H44         6.9976   56.1555   19.5826 H         1 UNK         0.0000 
     45 H45         2.6361   50.6938   18.8841 H         1 UNK         0.0000 
     46 H46         0.8008   50.2630   17.1605 H         1 UNK         0.0000 
     47 H47         0.5905   48.5233   15.1247 H         1 UNK         0.0000 
     48 H48         1.5807   46.1318   16.1365 H         1 UNK         0.0000 
     49 H49         0.2446   51.8892   24.6827 H         1 UNK         0.0000 
     50 H50         1.9043   51.6968   25.2081 H         1 UNK         0.0000 
     51 H51         0.5032   54.2390   24.4807 H         1 UNK         0.0000 
     52 H52         1.4354   53.8709   25.9135 H         1 UNK         0.0000 
     53 H53         2.7043   55.4228   24.4818 H         1 UNK         0.0000 
     54 H54         3.5498   53.9000   24.5154 H         1 UNK         0.0000 
     55 H55         3.2722   54.8840   22.1623 H         1 UNK         0.0000 
     56 H56         1.5656   54.8099   22.3934 H         1 UNK         0.0000 
     57 H57         2.0173   55.1769   17.4947 H         1 UNK         0.0000 
@<TRIPOS>BOND
     1    1    2 1    
     2    1   34 1    
     3    1   35 1    
     4    1   36 1    
     5    2    7 ar   
     6    2    3 ar   
     7    3    4 ar   
     8    3   37 1    
     9    4    5 ar   
    10    4   38 1    
    11    5    6 ar   
    12    5   57 1    
    13    6    7 ar   
    14    6    8 1    
    15    7   39 1    
    16    8    9 1    
    17    8   40 1    
    18    9   10 1    
    19    9   11 1    
    20    9   17 1    
    21   11   16 ar   
    22   11   12 ar   
    23   12   13 ar   
    24   12   41 1    
    25   13   14 ar   
    26   13   42 1    
    27   14   15 ar   
    28   14   43 1    
    29   15   16 ar   
    30   15   44 1    
    31   17   21 2    
    32   17   18 1    
    33   18   33 1    
    34   18   19 2    
    35   19   20 1    
    36   19   30 1    
    37   20   21 1    
    38   21   22 am   BACKBONE|DICT|INTERRES
    39   22   23 am   BACKBONE|DICT|INTERRES
    40   22   45 1    
    41   23   24 2    
    42   23   25 1    
    43   25   29 1    
    44   25   26 2    
    45   26   27 1    
    46   26   46 1    
    47   27   28 2    
    48   27   47 1    
    49   28   29 1    
    50   28   48 1    
    51   30   31 1    
    52   30   49 1    
    53   30   50 1    
    54   31   32 1    
    55   31   51 1    
    56   31   52 1    
    57   32   33 1    
    58   32   53 1    
    59   32   54 1    
    60   33   55 1    
    61   33   56 1    
@<TRIPOS>SUBSTRUCTURE
     1 UNK         1 GROUP             0       ****    0 ROOT    
