ZINC22748005_4536
                    3D
 Schrodinger Suite 2024-2.
 57 61  0  0  1  0            999 V2000
    2.1973   49.4470   22.4812 C   0  0  0  0  0  0
    2.0100   50.5359   21.4173 C   0  0  0  0  0  0
    3.2658   50.7357   20.5496 C   0  0  0  0  0  0
    3.1042   51.8280   19.5133 C   0  0  0  0  0  0
    3.8618   53.0101   19.3585 C   0  0  0  0  0  0
    3.2959   53.5965   18.2474 C   0  0  0  0  0  0
    2.3001   52.7865   17.8029 N   0  0  0  0  0  0
    1.7167   52.9597   16.9973 H   0  0  0  0  0  0
    2.1780   51.7045   18.5744 N   0  0  0  0  0  0
    3.6104   54.7937   17.6592 O   0  0  0  0  0  0
    4.6236   55.4534   18.2887 C   0  0  0  0  0  0
    5.2930   55.0376   19.3964 C   0  0  0  0  0  0
    4.9983   53.7088   20.1228 C   0  0  1  0  0  0
    5.8912   53.0862   20.0293 H   0  0  0  0  0  0
    4.8004   53.8899   21.6370 C   0  0  0  0  0  0
    5.9041   54.0642   22.4824 C   0  0  0  0  0  0
    5.7393   54.2290   23.8551 C   0  0  0  0  0  0
    4.4578   54.2430   24.4224 C   0  0  0  0  0  0
    3.3469   54.1024   23.5749 C   0  0  0  0  0  0
    3.5226   53.9253   22.1997 C   0  0  0  0  0  0
    1.9365   54.1106   24.1305 C   0  0  0  0  0  0
    1.4770   52.4448   24.7038 S   0  0  0  0  0  0
    1.1927   52.6590   26.4301 C   0  0  0  0  0  0
    1.5332   53.7104   27.1168 N   0  0  0  0  0  0
    1.0943   53.6488   28.3973 C   0  0  0  0  0  0
    1.2437   54.6780   29.3374 C   0  0  0  0  0  0
    0.7036   54.4892   30.6101 C   0  0  0  0  0  0
    0.0686   53.2973   30.9550 C   0  0  0  0  0  0
   -0.0956   52.2599   30.0356 C   0  0  0  0  0  0
    0.4196   52.4521   28.7461 C   0  0  0  0  0  0
    0.3660   51.4071   27.3347 S   0  0  0  0  0  0
    4.2233   54.4102   25.7756 O   0  0  0  0  0  0
    5.3207   54.4434   26.6824 C   0  0  0  0  0  0
    6.3035   55.8602   19.9579 C   0  0  0  0  0  0
    7.1083   56.4984   20.4803 N   0  0  0  0  0  0
    4.8114   56.6339   17.6225 N   0  0  0  0  0  0
    1.2860   49.3070   23.0626 H   0  0  0  0  0  0
    2.9941   49.6967   23.1808 H   0  0  0  0  0  0
    2.4492   48.4930   22.0233 H   0  0  0  0  0  0
    1.1623   50.2704   20.7852 H   0  0  0  0  0  0
    1.7464   51.4735   21.9034 H   0  0  0  0  0  0
    4.1204   50.9491   21.1897 H   0  0  0  0  0  0
    3.5042   49.8013   20.0404 H   0  0  0  0  0  0
    6.9037   54.0971   22.0815 H   0  0  0  0  0  0
    6.6248   54.3533   24.4583 H   0  0  0  0  0  0
    2.6572   53.8139   21.5658 H   0  0  0  0  0  0
    1.8464   54.8946   24.8789 H   0  0  0  0  0  0
    1.2371   54.4043   23.3476 H   0  0  0  0  0  0
    1.7377   55.6012   29.0763 H   0  0  0  0  0  0
    0.7858   55.2757   31.3483 H   0  0  0  0  0  0
   -0.3261   53.1838   31.9538 H   0  0  0  0  0  0
   -0.6193   51.3516   30.3085 H   0  0  0  0  0  0
    4.9410   54.5304   27.7007 H   0  0  0  0  0  0
    5.9114   53.5272   26.6262 H   0  0  0  0  0  0
    5.9700   55.3011   26.4966 H   0  0  0  0  0  0
    5.5881   57.2398   17.8435 H   0  0  0  0  0  0
    4.0917   56.9981   17.0146 H   0  0  0  0  0  0
  1  2  1  0  0  0
  1 37  1  0  0  0
  1 38  1  0  0  0
  1 39  1  0  0  0
  2  3  1  0  0  0
  2 40  1  0  0  0
  2 41  1  0  0  0
  3  4  1  0  0  0
  3 42  1  0  0  0
  3 43  1  0  0  0
  4  9  2  0  0  0
  4  5  1  0  0  0
  5 13  1  0  0  0
  5  6  2  0  0  0
  6  7  1  0  0  0
  6 10  1  0  0  0
  7  8  1  0  0  0
  7  9  1  0  0  0
 10 11  1  0  0  0
 11 12  2  0  0  0
 11 36  1  0  0  0
 12 13  1  0  0  0
 12 34  1  0  0  0
 13 14  1  0  0  0
 13 15  1  0  0  0
 15 20  2  0  0  0
 15 16  1  0  0  0
 16 17  2  0  0  0
 16 44  1  0  0  0
 17 18  1  0  0  0
 17 45  1  0  0  0
 18 19  2  0  0  0
 18 32  1  0  0  0
 19 20  1  0  0  0
 19 21  1  0  0  0
 20 46  1  0  0  0
 21 22  1  0  0  0
 21 47  1  0  0  0
 21 48  1  0  0  0
 22 23  1  0  0  0
 23 31  1  0  0  0
 23 24  2  0  0  0
 24 25  1  0  0  0
 25 30  2  0  0  0
 25 26  1  0  0  0
 26 27  2  0  0  0
 26 49  1  0  0  0
 27 28  1  0  0  0
 27 50  1  0  0  0
 28 29  2  0  0  0
 28 51  1  0  0  0
 29 30  1  0  0  0
 29 52  1  0  0  0
 30 31  1  0  0  0
 32 33  1  0  0  0
 33 53  1  0  0  0
 33 54  1  0  0  0
 33 55  1  0  0  0
 34 35  3  0  0  0
 36 56  1  0  0  0
 36 57  1  0  0  0
M  END
> <i_i_glide_confnum>
16

> <i_i_glide_lignum>
4537

> <i_i_glide_posenum>
99

> <i_i_glide_rotatable_bonds>
8

> <i_m_Source_File_Index>
4573

> <b_m_subgroup_collapsed>
0

> <r_i_docking_score>
-6.18877

> <r_i_glide_ecoul>
-3.7175

> <r_i_glide_eff_state_penalty>
0

> <r_i_glide_einternal>
3.74258

> <r_i_glide_emodel>
-65.9958

> <r_i_glide_energy>
-50.2504

> <r_i_glide_erotb>
0.42434

> <r_i_glide_esite>
-0.018271

> <r_i_glide_evdw>
-46.5329

> <r_i_glide_gscore>
-6.18877

> <r_i_glide_hbond>
-0.277172

> <r_i_glide_ligand_efficiency>
-0.182023

> <r_i_glide_ligand_efficiency_ln>
-1.36727

> <r_i_glide_ligand_efficiency_sa>
-0.589683

> <r_i_glide_lipo>
-3.23406

> <r_i_glide_metal>
0

> <r_i_glide_rewards>
-0.199332

> <s_i_glide_gridfile>
wee1_glide-grid

> <s_m_Source_File>
wee1_decoys_glide_SP.sdf

> <s_m_Source_Path>
/Users/zhangxujun/Desktop

> <s_m_entry_id>
4848

> <s_m_entry_name>
wee1_decoys_glide_SP.4573

> <s_m_subgroup_title>
wee1_decoys_glide_SP

> <s_m_subgroupid>
wee1_decoys_glide_SP


$$$$
