@<TRIPOS>MOLECULE
ZINC63608940_6075
47   50    1
SMALL
USER_CHARGES


@<TRIPOS>ATOM
      1 C1          2.3043   51.1373   18.8285 C.2       1 UNK         0.0000 
      2 C2          2.1720   49.6880   18.8820 C.2       1 UNK         0.0000 
      3 C3          1.9047   49.0278   20.0377 C.2       1 UNK         0.0000 
      4 C4          1.7317   49.7395   21.2298 C.2       1 UNK         0.0000 
      5 N5          1.4565   49.2971   22.4379 N.pl3     1 UNK         0.0000 
      6 C6          1.2955   50.4201   23.3787 C.3       1 UNK         0.0000 
      7 H7          2.0626   50.2807   24.1339 H         1 UNK         0.0000 
      8 C8         -0.1218   50.6134   24.0106 C.3       1 UNK         0.0000 
      9 H9         -0.2205   49.8500   24.7861 H         1 UNK         0.0000 
     10 N10        -0.0547   51.9418   24.6824 N.pl3     1 UNK         0.0000 
     11 C11         0.2510   53.1459   23.8766 C.3       1 UNK         0.0000 
     12 C12         1.5890   52.9565   23.1156 C.3       1 UNK         0.0000 
     13 C13         1.6356   51.5825   22.4737 C.2       1 UNK         0.0000 
     14 C14         1.8468   51.1340   21.2284 C.2       1 UNK         0.0000 
     15 C15         2.1515   51.8334   19.9724 C.2       1 UNK         0.0000 
     16 C16        -0.4144   52.1085   25.9904 C.2       1 UNK         0.0000 
     17 S17        -2.0322   52.0965   26.4283 S.2       1 UNK         0.0000 
     18 N18         0.6425   52.3622   26.8251 N.pl3     1 UNK         0.0000 
     19 C19         0.6592   52.7437   28.1809 C.ar      1 UNK         0.0000 
     20 C20        -0.0599   52.0471   29.1623 C.ar      1 UNK         0.0000 
     21 C21        -0.0619   52.4964   30.4811 C.ar      1 UNK         0.0000 
     22 C22         0.6556   53.6350   30.8349 C.ar      1 UNK         0.0000 
     23 C23         1.4076   54.3097   29.8740 C.ar      1 UNK         0.0000 
     24 C24         1.4415   53.8496   28.5529 C.ar      1 UNK         0.0000 
     25 O25         2.2208   54.4928   27.6174 O.3       1 UNK         0.0000 
     26 C26         3.6306   54.3036   27.7503 C.3       1 UNK         0.0000 
     27 F27         4.2117   54.8567   26.6864 F         1 UNK         0.0000 
     28 F28         4.1142   54.8961   28.8441 F         1 UNK         0.0000 
     29 F29         3.9510   53.0082   27.7565 F         1 UNK         0.0000 
     30 C30        -1.3539   50.4005   23.0755 C.3       1 UNK         0.0000 
     31 F31        -1.3739   49.1605   22.5872 F         1 UNK         0.0000 
     32 F32        -2.5156   50.5753   23.6983 F         1 UNK         0.0000 
     33 F33        -1.3477   51.2335   22.0339 F         1 UNK         0.0000 
     34 H34         2.5551   51.6292   17.8984 H         1 UNK         0.0000 
     35 H35         2.3043   49.1239   17.9673 H         1 UNK         0.0000 
     36 H36         1.8290   47.9512   20.0101 H         1 UNK         0.0000 
     37 H37        -0.5751   53.2948   23.1833 H         1 UNK         0.0000 
     38 H38         0.3041   54.0530   24.4825 H         1 UNK         0.0000 
     39 H39         1.7160   53.7526   22.3806 H         1 UNK         0.0000 
     40 H40         2.4186   53.0618   23.8154 H         1 UNK         0.0000 
     41 H41         2.2662   52.9085   19.9346 H         1 UNK         0.0000 
     42 H42         1.5248   52.5301   26.3635 H         1 UNK         0.0000 
     43 H43        -0.6287   51.1627   28.9090 H         1 UNK         0.0000 
     44 H44        -0.6232   51.9609   31.2333 H         1 UNK         0.0000 
     45 H45         0.6321   53.9859   31.8567 H         1 UNK         0.0000 
     46 H46         1.9639   55.1917   30.1537 H         1 UNK         0.0000 
     47 H47         1.3447   48.3234   22.7034 H         1 UNK         0.0000 
@<TRIPOS>BOND
     1    1   15 2    
     2    1    2 1    
     3    1   34 1    
     4    2    3 2    
     5    2   35 1    
     6    3    4 1    
     7    3   36 1    
     8    4   14 1    
     9    4    5 2    
    10    5    6 1    
    11    5   47 1    
    12    6    7 1    
    13    6   13 1    
    14    6    8 1    
    15    8    9 1    
    16    8   10 1    
    17    8   30 1    
    18   10   11 1    
    19   10   16 1    
    20   11   12 1    
    21   11   37 1    
    22   11   38 1    
    23   12   13 1    
    24   12   39 1    
    25   12   40 1    
    26   13   14 2    
    27   14   15 1    
    28   15   41 1    
    29   16   17 2    
    30   16   18 1    
    31   18   19 1    
    32   18   42 1    
    33   19   24 ar   
    34   19   20 ar   
    35   20   21 ar   
    36   20   43 1    
    37   21   22 ar   
    38   21   44 1    
    39   22   23 ar   
    40   22   45 1    
    41   23   24 ar   
    42   23   46 1    
    43   24   25 1    
    44   25   26 1    
    45   26   27 1    
    46   26   28 1    
    47   26   29 1    
    48   30   31 1    
    49   30   32 1    
    50   30   33 1    
@<TRIPOS>SUBSTRUCTURE
     1 UNK         1 GROUP             0       ****    0 ROOT    
