@<TRIPOS>MOLECULE
ZINC51051786_6204
64   65    1
SMALL
USER_CHARGES


@<TRIPOS>ATOM
      1 C1          2.3295   54.8213   28.1861 C.3       1 UNK         0.0000 
      2 C2          3.4787   54.3327   29.0805 C.3       1 UNK         0.0000 
      3 C3          4.3573   53.2204   28.4623 C.3       1 UNK         0.0000 
      4 C4          5.2797   53.6234   27.2835 C.3       1 UNK         0.0000 
      5 H5          5.8667   52.7288   27.0647 H         1 UNK         0.0000 
      6 C6          6.3027   54.7054   27.6774 C.3       1 UNK         0.0000 
      7 N7          4.5235   53.8943   26.0529 N.am      1 UNK         0.0000 
      8 C8          5.0309   54.0968   24.8202 C.2       1 UNK         0.0000 
      9 O9          6.2308   54.3042   24.6372 O.2       1 UNK         0.0000 
     10 C10         4.0741   53.9916   23.5939 C.3       1 UNK         0.0000 
     11 H11         3.8486   55.0262   23.3485 H         1 UNK         0.0000 
     12 C12         4.8470   53.3822   22.3832 C.3       1 UNK         0.0000 
     13 C13         3.9329   52.8617   21.2658 C.3       1 UNK         0.0000 
     14 C14         2.8054   51.9692   21.7946 C.3       1 UNK         0.0000 
     15 N15         1.9013   52.8544   22.6888 N.4       1 UNK         0.0000 
     16 C16         2.6850   53.3516   23.9387 C.3       1 UNK         0.0000 
     17 C17         0.5702   52.1528   23.1315 C.3       1 UNK         0.0000 
     18 H18         0.9282   51.2587   23.6472 H         1 UNK         0.0000 
     19 C19        -0.3219   53.0029   24.0532 C.3       1 UNK         0.0000 
     20 C20        -0.2756   51.7004   21.8994 C.2       1 UNK         0.0000 
     21 O21        -0.1343   52.3041   20.8338 O.2       1 UNK         0.0000 
     22 N22        -1.0816   50.6074   21.9977 N.am      1 UNK         0.0000 
     23 C23        -1.7232   50.0165   20.8078 C.3       1 UNK         0.0000 
     24 C24        -1.2004   48.5642   20.7041 C.3       1 UNK         0.0000 
     25 C25        -1.4601   47.7376   21.9839 C.3       1 UNK         0.0000 
     26 C26        -0.9364   48.5011   23.2310 C.3       1 UNK         0.0000 
     27 H27         0.1548   48.5061   23.2005 H         1 UNK         0.0000 
     28 C28        -1.4532   49.9651   23.2703 C.3       1 UNK         0.0000 
     29 C29        -1.2774   47.7751   24.5551 C.2       1 UNK         0.0000 
     30 O30        -1.6960   46.6176   24.5689 O.2       1 UNK         0.0000 
     31 N31        -1.0777   48.4620   25.6817 N.am      1 UNK         0.0000 
     32 H32         1.7157   55.5564   28.7080 H         1 UNK         0.0000 
     33 H33         2.7043   55.2985   27.2835 H         1 UNK         0.0000 
     34 H34         1.6781   53.9990   27.8887 H         1 UNK         0.0000 
     35 H35         3.0471   53.9518   30.0067 H         1 UNK         0.0000 
     36 H36         4.0999   55.1801   29.3742 H         1 UNK         0.0000 
     37 H37         3.7180   52.3922   28.1528 H         1 UNK         0.0000 
     38 H38         4.9809   52.8022   29.2550 H         1 UNK         0.0000 
     39 H39         6.7046   54.4967   28.6687 H         1 UNK         0.0000 
     40 H40         7.1594   54.7226   27.0049 H         1 UNK         0.0000 
     41 H41         5.8609   55.6964   27.7116 H         1 UNK         0.0000 
     42 H42         3.5264   53.7886   26.1422 H         1 UNK         0.0000 
     43 H43         5.4035   52.4973   22.6970 H         1 UNK         0.0000 
     44 H44         5.5324   54.1119   21.9466 H         1 UNK         0.0000 
     45 H45         4.5216   52.3094   20.5300 H         1 UNK         0.0000 
     46 H46         3.5016   53.7039   20.7206 H         1 UNK         0.0000 
     47 H47         3.1330   51.1073   22.3762 H         1 UNK         0.0000 
     48 H48         2.2323   51.6186   20.9373 H         1 UNK         0.0000 
     49 H49         2.0482   54.1235   24.3740 H         1 UNK         0.0000 
     50 H50         2.7491   52.4967   24.6155 H         1 UNK         0.0000 
     51 H51        -1.3419   52.6259   24.1389 H         1 UNK         0.0000 
     52 H52         0.1010   53.0233   25.0577 H         1 UNK         0.0000 
     53 H53        -0.3760   54.0262   23.6824 H         1 UNK         0.0000 
     54 H54        -1.5538   50.5866   19.8923 H         1 UNK         0.0000 
     55 H55        -2.8015   50.0171   20.9741 H         1 UNK         0.0000 
     56 H56        -0.1326   48.5799   20.4763 H         1 UNK         0.0000 
     57 H57        -1.6705   48.0735   19.8508 H         1 UNK         0.0000 
     58 H58        -0.9600   46.7753   21.8596 H         1 UNK         0.0000 
     59 H59        -2.5439   47.6128   22.0376 H         1 UNK         0.0000 
     60 H60        -2.5429   49.9741   23.3359 H         1 UNK         0.0000 
     61 H61        -1.0980   50.5099   24.1421 H         1 UNK         0.0000 
     62 H62        -0.6736   49.3819   25.6485 H         1 UNK         0.0000 
     63 H63        -1.2948   48.0862   26.6085 H         1 UNK         0.0000 
     64 H64         1.6491   53.6444   22.1066 H         1 UNK         0.0000 
@<TRIPOS>BOND
     1    1    2 1    
     2    1   32 1    
     3    1   33 1    
     4    1   34 1    
     5    2    3 1    
     6    2   35 1    
     7    2   36 1    
     8    3    4 1    
     9    3   37 1    
    10    3   38 1    
    11    4    5 1    
    12    4    6 1    
    13    4    7 1    
    14    6   39 1    
    15    6   40 1    
    16    6   41 1    
    17    7    8 am   BACKBONE|DICT|INTERRES
    18    7   42 1    
    19    8    9 2    
    20    8   10 1    
    21   10   11 1    
    22   10   16 1    
    23   10   12 1    
    24   12   13 1    
    25   12   43 1    
    26   12   44 1    
    27   13   14 1    
    28   13   45 1    
    29   13   46 1    
    30   14   15 1    
    31   14   47 1    
    32   14   48 1    
    33   15   16 1    
    34   15   17 1    
    35   15   64 1    
    36   16   49 1    
    37   16   50 1    
    38   17   18 1    
    39   17   19 1    
    40   17   20 1    
    41   19   51 1    
    42   19   52 1    
    43   19   53 1    
    44   20   21 2    
    45   20   22 am   BACKBONE|DICT|INTERRES
    46   22   28 1    
    47   22   23 1    
    48   23   24 1    
    49   23   54 1    
    50   23   55 1    
    51   24   25 1    
    52   24   56 1    
    53   24   57 1    
    54   25   26 1    
    55   25   58 1    
    56   25   59 1    
    57   26   27 1    
    58   26   28 1    
    59   26   29 1    
    60   28   60 1    
    61   28   61 1    
    62   29   30 2    
    63   29   31 am   BACKBONE|DICT|INTERRES
    64   31   62 1    
    65   31   63 1    
@<TRIPOS>SUBSTRUCTURE
     1 UNK         1 GROUP             0       ****    0 ROOT    
