@<TRIPOS>MOLECULE
ZINC15435512_1429
52   54    1
SMALL
USER_CHARGES


@<TRIPOS>ATOM
      1 C1          3.8582   51.9257   31.6816 C.3       1 UNK         0.0000 
      2 C2          3.0918   52.4820   30.4879 C.3       1 UNK         0.0000 
      3 H3          2.8499   53.5276   30.6661 H         1 UNK         0.0000 
      4 C4          3.8976   52.3181   29.1946 C.3       1 UNK         0.0000 
      5 N5          3.0491   52.5692   28.0037 N.pl3     1 UNK         0.0000 
      6 C6          1.7281   51.8787   28.0366 C.3       1 UNK         0.0000 
      7 C7          0.9861   52.0804   29.3721 C.3       1 UNK         0.0000 
      8 H8          0.1757   51.3479   29.3965 H         1 UNK         0.0000 
      9 O9          1.9044   51.6992   30.3931 O.3       1 UNK         0.0000 
     10 C10         0.3047   53.4397   29.6232 C.3       1 UNK         0.0000 
     11 S11         3.1951   54.1418   27.2097 S.o2      1 UNK         0.0000 
     12 O12         2.1489   54.9955   27.7729 O.2       1 UNK         0.0000 
     13 O13         4.6009   54.5550   27.2989 O.2       1 UNK         0.0000 
     14 C14         2.8230   53.8963   25.4643 C.ar      1 UNK         0.0000 
     15 C15         1.5046   53.6948   25.0509 C.ar      1 UNK         0.0000 
     16 C16         1.1994   53.5319   23.7032 C.ar      1 UNK         0.0000 
     17 C17         2.2144   53.5592   22.7514 C.ar      1 UNK         0.0000 
     18 C18         3.5479   53.7418   23.1433 C.ar      1 UNK         0.0000 
     19 C19         3.8402   53.9205   24.5062 C.ar      1 UNK         0.0000 
     20 C20         4.6706   53.6715   22.1405 C.2       1 UNK         0.0000 
     21 O21         5.7743   53.2550   22.5028 O.2       1 UNK         0.0000 
     22 N22         4.3951   54.0999   20.8872 N.am      1 UNK         0.0000 
     23 N23         5.3723   53.8613   19.9204 N.am      1 UNK         0.0000 
     24 C24         6.0743   54.8959   19.4120 C.2       1 UNK         0.0000 
     25 O25         5.9061   56.0777   19.7295 O.2       1 UNK         0.0000 
     26 C26         7.1943   54.4969   18.4792 C.ar      1 UNK         0.0000 
     27 C27         7.1088   53.3429   17.6818 C.ar      1 UNK         0.0000 
     28 C28         8.1790   52.9655   16.8751 C.ar      1 UNK         0.0000 
     29 C29         9.3381   53.7372   16.8596 C.ar      1 UNK         0.0000 
     30 C30         9.4352   54.8873   17.6361 C.ar      1 UNK         0.0000 
     31 C31         8.3644   55.2685   18.4399 C.ar      1 UNK         0.0000 
     32 H32         4.7043   52.5432   31.9693 H         1 UNK         0.0000 
     33 H33         4.2092   50.9062   31.5159 H         1 UNK         0.0000 
     34 H34         3.1761   51.8776   32.5217 H         1 UNK         0.0000 
     35 H35         4.7718   52.9692   29.1780 H         1 UNK         0.0000 
     36 H36         4.2546   51.2967   29.1139 H         1 UNK         0.0000 
     37 H37         1.1227   52.1476   27.1771 H         1 UNK         0.0000 
     38 H38         1.9517   50.8144   27.9408 H         1 UNK         0.0000 
     39 H39        -0.3127   53.7270   28.7726 H         1 UNK         0.0000 
     40 H40        -0.3432   53.3800   30.4966 H         1 UNK         0.0000 
     41 H41         1.0036   54.2495   29.8095 H         1 UNK         0.0000 
     42 H42         0.7085   53.6648   25.7737 H         1 UNK         0.0000 
     43 H43         0.1765   53.3695   23.3981 H         1 UNK         0.0000 
     44 H44         1.9462   53.4083   21.7146 H         1 UNK         0.0000 
     45 H45         4.8655   54.0524   24.8261 H         1 UNK         0.0000 
     46 H46         3.4615   54.0996   20.4992 H         1 UNK         0.0000 
     47 H47         5.2274   52.9961   19.4183 H         1 UNK         0.0000 
     48 H48         6.2276   52.7146   17.6827 H         1 UNK         0.0000 
     49 H49         8.1122   52.0725   16.2706 H         1 UNK         0.0000 
     50 H50        10.1700   53.4393   16.2406 H         1 UNK         0.0000 
     51 H51        10.3400   55.4758   17.6254 H         1 UNK         0.0000 
     52 H52         8.4640   56.1560   19.0498 H         1 UNK         0.0000 
@<TRIPOS>BOND
     1    1    2 1    
     2    1   32 1    
     3    1   33 1    
     4    1   34 1    
     5    2    3 1    
     6    2    9 1    
     7    2    4 1    
     8    4    5 1    
     9    4   35 1    
    10    4   36 1    
    11    5    6 1    
    12    5   11 1    
    13    6    7 1    
    14    6   37 1    
    15    6   38 1    
    16    7    8 1    
    17    7    9 1    
    18    7   10 1    
    19   10   39 1    
    20   10   40 1    
    21   10   41 1    
    22   11   12 2    
    23   11   13 2    
    24   11   14 1    
    25   14   19 ar   
    26   14   15 ar   
    27   15   16 ar   
    28   15   42 1    
    29   16   17 ar   
    30   16   43 1    
    31   17   18 ar   
    32   17   44 1    
    33   18   19 ar   
    34   18   20 1    
    35   19   45 1    
    36   20   21 2    
    37   20   22 am   BACKBONE|DICT|INTERRES
    38   22   23 1    
    39   22   46 1    
    40   23   24 am   BACKBONE|DICT|INTERRES
    41   23   47 1    
    42   24   25 2    
    43   24   26 1    
    44   26   31 ar   
    45   26   27 ar   
    46   27   28 ar   
    47   27   48 1    
    48   28   29 ar   
    49   28   49 1    
    50   29   30 ar   
    51   29   50 1    
    52   30   31 ar   
    53   30   51 1    
    54   31   52 1    
@<TRIPOS>SUBSTRUCTURE
     1 UNK         1 GROUP             0       ****    0 ROOT    
