ZINC50367438_4799
                    3D
 Schrodinger Suite 2024-2.
 35 36  0  0  1  0            999 V2000
    2.6276   53.3740   22.9531 C   0  0  0  0  0  0
    3.2571   53.3783   24.2304 O   0  0  0  0  0  0
    4.2723   54.3760   24.4031 C   0  0  2  0  0  0
    3.8791   55.2967   23.9847 H   0  0  0  0  0  0
    5.5689   53.9411   23.6867 C   0  0  0  0  0  0
    6.7048   54.1138   24.6970 C   0  0  0  0  0  0
    6.0398   53.9535   26.0633 C   0  0  0  0  0  0
    4.6467   54.5831   25.9021 C   0  0  2  0  0  0
    4.7203   55.6627   26.0556 H   0  0  0  0  0  0
    3.6395   53.9852   26.7723 N   0  0  0  0  0  0
    3.5547   54.0396   28.1118 C   0  0  0  0  0  0
    4.4011   54.5829   28.8212 O   0  0  0  0  0  0
    2.3294   53.3832   28.7107 C   0  0  0  0  0  0
    2.2800   53.0813   30.0808 C   0  0  0  0  0  0
    1.1436   52.4966   30.6476 C   0  0  0  0  0  0
    0.0607   52.1473   29.8269 C   0  0  0  0  0  0
    0.0922   52.4536   28.4634 C   0  0  0  0  0  0
    1.2105   53.0742   27.9191 C   0  0  0  0  0  0
   -1.2320   52.0793   27.4143 Cl  0  0  0  0  0  0
   -1.2956   51.2967   30.4811 Cl  0  0  0  0  0  0
    1.1044   52.2344   32.0222 N   0  0  0  0  0  0
    1.8784   52.5831   22.9195 H   0  0  0  0  0  0
    2.1203   54.3197   22.7561 H   0  0  0  0  0  0
    3.3406   53.1884   22.1492 H   0  0  0  0  0  0
    5.5095   52.8969   23.3795 H   0  0  0  0  0  0
    5.7479   54.5289   22.7851 H   0  0  0  0  0  0
    7.5042   53.3895   24.5359 H   0  0  0  0  0  0
    7.1400   55.1108   24.6055 H   0  0  0  0  0  0
    6.6037   54.4047   26.8812 H   0  0  0  0  0  0
    5.9471   52.8971   26.3168 H   0  0  0  0  0  0
    2.9766   53.4071   26.2756 H   0  0  0  0  0  0
    3.1352   53.2961   30.7050 H   0  0  0  0  0  0
    1.1878   53.3029   26.8633 H   0  0  0  0  0  0
    1.8652   52.4959   32.6341 H   0  0  0  0  0  0
    0.1852   52.0327   32.4229 H   0  0  0  0  0  0
  1  2  1  0  0  0
  1 22  1  0  0  0
  1 23  1  0  0  0
  1 24  1  0  0  0
  2  3  1  0  0  0
  3  4  1  0  0  0
  3  8  1  0  0  0
  3  5  1  0  0  0
  5  6  1  0  0  0
  5 25  1  0  0  0
  5 26  1  0  0  0
  6  7  1  0  0  0
  6 27  1  0  0  0
  6 28  1  0  0  0
  7  8  1  0  0  0
  7 29  1  0  0  0
  7 30  1  0  0  0
  8  9  1  0  0  0
  8 10  1  0  0  0
 10 11  1  0  0  0
 10 31  1  0  0  0
 11 12  2  0  0  0
 11 13  1  0  0  0
 13 18  2  0  0  0
 13 14  1  0  0  0
 14 15  2  0  0  0
 14 32  1  0  0  0
 15 16  1  0  0  0
 15 21  1  0  0  0
 16 17  2  0  0  0
 16 20  1  0  0  0
 17 18  1  0  0  0
 17 19  1  0  0  0
 18 33  1  0  0  0
 21 34  1  0  0  0
 21 35  1  0  0  0
M  END
> <i_i_glide_confnum>
30

> <i_i_glide_lignum>
4800

> <i_i_glide_posenum>
89

> <i_i_glide_rotatable_bonds>
4

> <i_m_Source_File_Index>
795

> <b_m_subgroup_collapsed>
0

> <r_i_docking_score>
-5.33456

> <r_i_glide_ecoul>
-1.93281

> <r_i_glide_eff_state_penalty>
0

> <r_i_glide_einternal>
0.285354

> <r_i_glide_emodel>
-42.8891

> <r_i_glide_energy>
-31.8412

> <r_i_glide_erotb>
0.601282

> <r_i_glide_esite>
-0.1

> <r_i_glide_evdw>
-29.9084

> <r_i_glide_gscore>
-5.33456

> <r_i_glide_hbond>
-0.324755

> <r_i_glide_ligand_efficiency>
-0.280766

> <r_i_glide_ligand_efficiency_ln>
-1.35243

> <r_i_glide_ligand_efficiency_sa>
-0.749197

> <r_i_glide_lipo>
-2.02994

> <r_i_glide_metal>
0

> <r_i_glide_rewards>
-1.6958

> <s_i_glide_gridfile>
wee1_glide-grid

> <s_m_Source_File>
wee1_decoys_glide_SP.sdf

> <s_m_Source_Path>
/Users/zhangxujun/Desktop

> <s_m_entry_id>
1070

> <s_m_entry_name>
wee1_decoys_glide_SP.795

> <s_m_subgroup_title>
wee1_decoys_glide_SP

> <s_m_subgroupid>
wee1_decoys_glide_SP


$$$$
