@<TRIPOS>MOLECULE
ZINC39673844_1290
65   68    1
SMALL
USER_CHARGES


@<TRIPOS>ATOM
      1 C1          3.6735   52.3320   30.1266 C.3       1 UNK         0.0000 
      2 C2          3.6134   53.5268   29.1599 C.3       1 UNK         0.0000 
      3 C3          2.8320   53.2551   27.8526 C.3       1 UNK         0.0000 
      4 C4          1.3585   52.8062   28.0136 C.3       1 UNK         0.0000 
      5 H5          1.3612   51.8723   28.5824 H         1 UNK         0.0000 
      6 C6          0.5057   53.8381   28.7829 C.3       1 UNK         0.0000 
      7 N7          0.7733   52.4969   26.7036 N.am      1 UNK         0.0000 
      8 C8         -0.3551   51.7891   26.5008 C.2       1 UNK         0.0000 
      9 O9         -0.9978   51.3019   27.4268 O.2       1 UNK         0.0000 
     10 C10        -0.8609   51.5804   25.0467 C.3       1 UNK         0.0000 
     11 H11        -1.9427   51.5065   25.1264 H         1 UNK         0.0000 
     12 C12        -0.5318   52.7611   24.1176 C.3       1 UNK         0.0000 
     13 N13         0.7346   52.3659   23.4897 N.am      1 UNK         0.0000 
     14 C14         1.0432   50.9451   23.7162 C.3       1 UNK         0.0000 
     15 C15        -0.2412   50.3455   24.3175 C.3       1 UNK         0.0000 
     16 C16         0.0370   49.0491   25.1238 C.3       1 UNK         0.0000 
     17 C17        -1.2746   48.4611   25.6815 C.3       1 UNK         0.0000 
     18 N18        -2.2279   48.1265   24.5150 N.4       1 UNK         0.0000 
     19 C19        -2.4720   49.3018   23.5436 C.3       1 UNK         0.0000 
     20 C20        -1.1027   49.8601   23.1086 C.3       1 UNK         0.0000 
     21 C21         1.6123   53.3023   23.0517 C.2       1 UNK         0.0000 
     22 O22         1.5034   54.4957   23.3358 O.2       1 UNK         0.0000 
     23 C23         2.6547   52.8954   22.1456 C.2       1 UNK         0.0000 
     24 C24         2.7764   51.8447   21.2378 C.2       1 UNK         0.0000 
     25 C25         3.9142   52.0967   20.4791 C.2       1 UNK         0.0000 
     26 C26         4.4011   53.3297   20.8801 C.2       1 UNK         0.0000 
     27 O27         3.6409   53.7976   21.9010 O.3       1 UNK         0.0000 
     28 C28         5.5046   54.1971   20.4108 C.ar      1 UNK         0.0000 
     29 C29         5.9510   54.1029   19.0894 C.ar      1 UNK         0.0000 
     30 C30         7.0194   54.8868   18.6628 C.ar      1 UNK         0.0000 
     31 C31         7.6489   55.7471   19.5585 C.ar      1 UNK         0.0000 
     32 C32         7.2093   55.8402   20.8776 C.ar      1 UNK         0.0000 
     33 C33         6.1300   55.0735   21.3012 C.ar      1 UNK         0.0000 
     34 F34         8.6955   56.4965   19.1488 F         1 UNK         0.0000 
     35 H35         4.3034   52.5534   30.9888 H         1 UNK         0.0000 
     36 H36         4.0867   51.4518   29.6340 H         1 UNK         0.0000 
     37 H37         2.6837   52.0775   30.5099 H         1 UNK         0.0000 
     38 H38         3.1985   54.3930   29.6763 H         1 UNK         0.0000 
     39 H39         4.6349   53.8124   28.8975 H         1 UNK         0.0000 
     40 H40         2.8667   54.1508   27.2297 H         1 UNK         0.0000 
     41 H41         3.3749   52.4973   27.2870 H         1 UNK         0.0000 
     42 H42         0.9408   54.0765   29.7518 H         1 UNK         0.0000 
     43 H43         0.4237   54.7764   28.2334 H         1 UNK         0.0000 
     44 H44        -0.4955   53.4610   28.9850 H         1 UNK         0.0000 
     45 H45         1.2713   52.8451   25.8965 H         1 UNK         0.0000 
     46 H46        -1.3213   52.7958   23.3660 H         1 UNK         0.0000 
     47 H47        -0.5154   53.6965   24.6741 H         1 UNK         0.0000 
     48 H48         1.8189   50.9066   24.4815 H         1 UNK         0.0000 
     49 H49         1.4366   50.3595   22.8897 H         1 UNK         0.0000 
     50 H50         0.5688   48.3063   24.5246 H         1 UNK         0.0000 
     51 H51         0.7067   49.2511   25.9607 H         1 UNK         0.0000 
     52 H52        -1.1145   47.5327   26.2289 H         1 UNK         0.0000 
     53 H53        -1.8140   49.1525   26.3309 H         1 UNK         0.0000 
     54 H54        -1.8337   47.3547   23.9985 H         1 UNK         0.0000 
     55 H55        -3.0401   48.8956   22.7057 H         1 UNK         0.0000 
     56 H56        -3.1010   50.0214   24.0677 H         1 UNK         0.0000 
     57 H57        -1.2821   50.6848   22.4169 H         1 UNK         0.0000 
     58 H58        -0.5633   49.1214   22.5118 H         1 UNK         0.0000 
     59 H59         2.1102   51.0098   21.0922 H         1 UNK         0.0000 
     60 H60         4.3028   51.4807   19.6821 H         1 UNK         0.0000 
     61 H61         5.4772   53.4207   18.3966 H         1 UNK         0.0000 
     62 H62         7.3707   54.8177   17.6443 H         1 UNK         0.0000 
     63 H63         7.7122   56.4953   21.5718 H         1 UNK         0.0000 
     64 H64         5.8013   55.1386   22.3281 H         1 UNK         0.0000 
     65 H65        -3.1082   47.8075   24.8969 H         1 UNK         0.0000 
@<TRIPOS>BOND
     1    1    2 1    
     2    1   35 1    
     3    1   36 1    
     4    1   37 1    
     5    2    3 1    
     6    2   38 1    
     7    2   39 1    
     8    3    4 1    
     9    3   40 1    
    10    3   41 1    
    11    4    5 1    
    12    4    6 1    
    13    4    7 1    
    14    6   42 1    
    15    6   43 1    
    16    6   44 1    
    17    7    8 am   BACKBONE|DICT|INTERRES
    18    7   45 1    
    19    8    9 2    
    20    8   10 1    
    21   10   11 1    
    22   10   15 1    
    23   10   12 1    
    24   12   13 1    
    25   12   46 1    
    26   12   47 1    
    27   13   14 1    
    28   13   21 am   BACKBONE|DICT|INTERRES
    29   14   15 1    
    30   14   48 1    
    31   14   49 1    
    32   15   20 1    
    33   15   16 1    
    34   16   17 1    
    35   16   50 1    
    36   16   51 1    
    37   17   18 1    
    38   17   52 1    
    39   17   53 1    
    40   18   19 1    
    41   18   54 1    
    42   18   65 1    
    43   19   20 1    
    44   19   55 1    
    45   19   56 1    
    46   20   57 1    
    47   20   58 1    
    48   21   22 2    
    49   21   23 1    
    50   23   27 1    
    51   23   24 2    
    52   24   25 1    
    53   24   59 1    
    54   25   26 2    
    55   25   60 1    
    56   26   27 1    
    57   26   28 1    
    58   28   33 ar   
    59   28   29 ar   
    60   29   30 ar   
    61   29   61 1    
    62   30   31 ar   
    63   30   62 1    
    64   31   32 ar   
    65   31   34 1    
    66   32   33 ar   
    67   32   63 1    
    68   33   64 1    
@<TRIPOS>SUBSTRUCTURE
     1 UNK         1 GROUP             0       ****    0 ROOT    
