@<TRIPOS>MOLECULE
ZINC36213576_2725
70   72    1
SMALL
USER_CHARGES


@<TRIPOS>ATOM
      1 C1         -4.0697   50.2034   23.6844 C.3       1 UNK         0.0000 
      2 C2         -3.1763   51.3371   24.2188 C.3       1 UNK         0.0000 
      3 H3         -3.5302   52.2481   23.7310 H         1 UNK         0.0000 
      4 C4         -3.3766   51.5965   25.7334 C.3       1 UNK         0.0000 
      5 C5         -2.6404   50.6081   26.6444 C.3       1 UNK         0.0000 
      6 C6         -1.1669   50.5424   26.2499 C.3       1 UNK         0.0000 
      7 C7         -0.9728   50.1745   24.7655 C.3       1 UNK         0.0000 
      8 N8         -1.7274   51.1428   23.9249 N.am      1 UNK         0.0000 
      9 C9         -1.2125   51.7228   22.7966 C.2       1 UNK         0.0000 
     10 O10        -1.8721   52.4938   22.0885 O.2       1 UNK         0.0000 
     11 C11         0.2749   51.4959   22.3679 C.3       1 UNK         0.0000 
     12 H12         0.6774   50.5803   22.7925 H         1 UNK         0.0000 
     13 C13         1.1845   52.6830   22.8252 C.3       1 UNK         0.0000 
     14 C14         1.3650   52.7358   24.3546 C.3       1 UNK         0.0000 
     15 C15         2.0033   54.0691   24.7610 C.3       1 UNK         0.0000 
     16 N16         3.3503   54.0830   24.1347 N.am      1 UNK         0.0000 
     17 C17         3.3714   53.9876   22.6494 C.3       1 UNK         0.0000 
     18 C18         2.6158   52.6930   22.2395 C.3       1 UNK         0.0000 
     19 C19         4.5162   54.0998   24.8443 C.2       1 UNK         0.0000 
     20 O20         5.6189   54.0906   24.2948 O.2       1 UNK         0.0000 
     21 N21         4.3784   54.1696   26.1907 N.am      1 UNK         0.0000 
     22 C22         5.3806   54.2934   27.2640 C.3       1 UNK         0.0000 
     23 C23         6.6092   55.1408   26.8489 C.3       1 UNK         0.0000 
     24 C24         5.9090   52.9157   27.6770 C.3       1 UNK         0.0000 
     25 C25         4.6747   54.8954   28.5024 C.3       1 UNK         0.0000 
     26 N26         0.3847   51.2383   20.9246 N.am      1 UNK         0.0000 
     27 C27        -0.0883   50.1516   20.2868 C.2       1 UNK         0.0000 
     28 O28        -0.6917   49.2398   20.8580 O.2       1 UNK         0.0000 
     29 C29         0.1406   50.1097   18.7962 C.ar      1 UNK         0.0000 
     30 C30        -0.8079   49.4942   17.9677 C.ar      1 UNK         0.0000 
     31 C31        -0.6057   49.4298   16.5918 C.ar      1 UNK         0.0000 
     32 C32         0.5510   49.9721   16.0380 C.ar      1 UNK         0.0000 
     33 C33         1.5047   50.5815   16.8482 C.ar      1 UNK         0.0000 
     34 C34         1.3027   50.6510   18.2244 C.ar      1 UNK         0.0000 
     35 H35        -5.1128   50.3774   23.9468 H         1 UNK         0.0000 
     36 H36        -4.0203   50.1383   22.5978 H         1 UNK         0.0000 
     37 H37        -3.7924   49.2375   24.1083 H         1 UNK         0.0000 
     38 H38        -4.4380   51.6238   25.9816 H         1 UNK         0.0000 
     39 H39        -3.0035   52.5976   25.9544 H         1 UNK         0.0000 
     40 H40        -3.0870   49.6150   26.5666 H         1 UNK         0.0000 
     41 H41        -2.7356   50.9061   27.6892 H         1 UNK         0.0000 
     42 H42        -0.6545   49.8112   26.8790 H         1 UNK         0.0000 
     43 H43        -0.6822   51.4930   26.4697 H         1 UNK         0.0000 
     44 H44        -1.3595   49.1717   24.5802 H         1 UNK         0.0000 
     45 H45         0.1028   50.1871   24.6230 H         1 UNK         0.0000 
     46 H46         0.7051   53.6013   22.4842 H         1 UNK         0.0000 
     47 H47         1.8932   51.8634   24.7438 H         1 UNK         0.0000 
     48 H48         0.3907   52.6958   24.8351 H         1 UNK         0.0000 
     49 H49         1.9912   54.2107   25.8408 H         1 UNK         0.0000 
     50 H50         1.4305   54.8958   24.3432 H         1 UNK         0.0000 
     51 H51         2.8413   54.8571   22.2588 H         1 UNK         0.0000 
     52 H52         4.3780   54.0124   22.2277 H         1 UNK         0.0000 
     53 H53         2.5711   52.6542   21.1516 H         1 UNK         0.0000 
     54 H54         3.1567   51.7792   22.4819 H         1 UNK         0.0000 
     55 H55         3.4320   54.1246   26.5294 H         1 UNK         0.0000 
     56 H56         7.2855   55.3025   27.6815 H         1 UNK         0.0000 
     57 H57         6.3237   56.0954   26.4212 H         1 UNK         0.0000 
     58 H58         7.2099   54.6339   26.0945 H         1 UNK         0.0000 
     59 H59         5.1130   52.2114   27.9282 H         1 UNK         0.0000 
     60 H60         6.5052   52.5101   26.8734 H         1 UNK         0.0000 
     61 H61         6.5736   52.9909   28.5353 H         1 UNK         0.0000 
     62 H62         4.0719   54.1488   29.0225 H         1 UNK         0.0000 
     63 H63         5.3891   55.2900   29.2274 H         1 UNK         0.0000 
     64 H64         3.9829   55.6967   28.2454 H         1 UNK         0.0000 
     65 H65         0.8157   51.9673   20.3774 H         1 UNK         0.0000 
     66 H66        -1.7077   49.0636   18.3859 H         1 UNK         0.0000 
     67 H67        -1.3419   48.9544   15.9591 H         1 UNK         0.0000 
     68 H68         0.7213   49.9103   14.9725 H         1 UNK         0.0000 
     69 H69         2.4149   50.9740   16.4173 H         1 UNK         0.0000 
     70 H70         2.0733   51.1049   18.8332 H         1 UNK         0.0000 
@<TRIPOS>BOND
     1    1    2 1    
     2    1   35 1    
     3    1   36 1    
     4    1   37 1    
     5    2    3 1    
     6    2    8 1    
     7    2    4 1    
     8    4    5 1    
     9    4   38 1    
    10    4   39 1    
    11    5    6 1    
    12    5   40 1    
    13    5   41 1    
    14    6    7 1    
    15    6   42 1    
    16    6   43 1    
    17    7    8 1    
    18    7   44 1    
    19    7   45 1    
    20    8    9 am   BACKBONE|DICT|INTERRES
    21    9   10 2    
    22    9   11 1    
    23   11   12 1    
    24   11   13 1    
    25   11   26 1    
    26   13   18 1    
    27   13   14 1    
    28   13   46 1    
    29   14   15 1    
    30   14   47 1    
    31   14   48 1    
    32   15   16 1    
    33   15   49 1    
    34   15   50 1    
    35   16   17 1    
    36   16   19 am   BACKBONE|DICT|INTERRES
    37   17   18 1    
    38   17   51 1    
    39   17   52 1    
    40   18   53 1    
    41   18   54 1    
    42   19   20 2    
    43   19   21 am   BACKBONE|DICT|INTERRES
    44   21   22 1    
    45   21   55 1    
    46   22   23 1    
    47   22   24 1    
    48   22   25 1    
    49   23   56 1    
    50   23   57 1    
    51   23   58 1    
    52   24   59 1    
    53   24   60 1    
    54   24   61 1    
    55   25   62 1    
    56   25   63 1    
    57   25   64 1    
    58   26   27 am   BACKBONE|DICT|INTERRES
    59   26   65 1    
    60   27   28 2    
    61   27   29 1    
    62   29   34 ar   
    63   29   30 ar   
    64   30   31 ar   
    65   30   66 1    
    66   31   32 ar   
    67   31   67 1    
    68   32   33 ar   
    69   32   68 1    
    70   33   34 ar   
    71   33   69 1    
    72   34   70 1    
@<TRIPOS>SUBSTRUCTURE
     1 UNK         1 GROUP             0       ****    0 ROOT    
