@<TRIPOS>MOLECULE
ZINC35294154_363
70   72    1
SMALL
USER_CHARGES


@<TRIPOS>ATOM
      1 C1          0.6781   49.9483   24.4974 C.3       1 UNK         0.0000 
      2 C2         -0.1228   51.2665   24.4549 C.3       1 UNK         0.0000 
      3 H3         -0.4197   51.4061   23.4134 H         1 UNK         0.0000 
      4 C4          0.7092   52.5084   24.8513 C.3       1 UNK         0.0000 
      5 N5          1.1076   52.5765   26.2774 N.pl3     1 UNK         0.0000 
      6 C6         -0.0038   52.2321   27.2009 C.3       1 UNK         0.0000 
      7 C7         -1.0097   51.1350   26.7479 C.3       1 UNK         0.0000 
      8 N8         -1.3140   51.3270   25.3196 N.am      1 UNK         0.0000 
      9 C9         -2.4513   51.9519   24.9023 C.2       1 UNK         0.0000 
     10 O10        -2.5493   52.4403   23.7730 O.2       1 UNK         0.0000 
     11 C11        -3.6612   52.0043   25.8699 C.3       1 UNK         0.0000 
     12 C12        -5.0479   52.5034   25.3440 C.3       1 UNK         0.0000 
     13 C13        -4.9994   53.9943   24.9226 C.3       1 UNK         0.0000 
     14 C14        -6.0654   52.3636   26.4998 C.3       1 UNK         0.0000 
     15 C15        -5.5590   51.6389   24.1651 C.3       1 UNK         0.0000 
     16 C16         2.2425   53.2868   26.6940 C.ar      1 UNK         0.0000 
     17 C17         2.6145   53.3888   28.0456 C.ar      1 UNK         0.0000 
     18 C18         3.8250   54.0159   28.3477 C.ar      1 UNK         0.0000 
     19 N19         4.6491   54.4966   27.3846 N.ar      1 UNK         0.0000 
     20 C20         4.2422   54.3340   26.1037 C.ar      1 UNK         0.0000 
     21 N21         3.0793   53.7517   25.7218 N.ar      1 UNK         0.0000 
     22 S22         5.3451   54.8954   24.8451 S.3       1 UNK         0.0000 
     23 C23         4.6630   54.3418   23.2427 C.3       1 UNK         0.0000 
     24 C24         5.6233   54.4979   22.0413 C.2       1 UNK         0.0000 
     25 O25         6.7744   54.8968   22.2316 O.2       1 UNK         0.0000 
     26 N26         5.1449   54.2960   20.7816 N.am      1 UNK         0.0000 
     27 C27         5.3535   55.4436   19.8584 C.3       1 UNK         0.0000 
     28 C28         6.4415   55.2550   18.7884 C.3       1 UNK         0.0000 
     29 C29         5.9557   54.4667   17.5648 C.3       1 UNK         0.0000 
     30 C30         5.4887   53.0409   17.8936 C.3       1 UNK         0.0000 
     31 C31         4.3250   52.8826   18.9041 C.3       1 UNK         0.0000 
     32 H32         3.9049   51.8771   18.7975 H         1 UNK         0.0000 
     33 C33         4.6223   53.0797   20.4123 C.2       1 UNK         0.0000 
     34 O34         4.3981   52.1337   21.1753 O.2       1 UNK         0.0000 
     35 N35         3.1023   53.7017   18.4786 N.4       1 UNK         0.0000 
     36 Cl36        4.3025   54.1714   29.9942 Cl        1 UNK         0.0000 
     37 H37         1.5205   49.9930   23.8070 H         1 UNK         0.0000 
     38 H38         1.1028   49.7478   25.4803 H         1 UNK         0.0000 
     39 H39         0.0626   49.0962   24.2082 H         1 UNK         0.0000 
     40 H40         0.0960   53.3916   24.6598 H         1 UNK         0.0000 
     41 H41         1.5562   52.5908   24.1706 H         1 UNK         0.0000 
     42 H42        -0.5823   53.1509   27.2960 H         1 UNK         0.0000 
     43 H43         0.3701   51.9390   28.1808 H         1 UNK         0.0000 
     44 H44        -1.8781   51.0418   27.4010 H         1 UNK         0.0000 
     45 H45        -0.5106   50.1709   26.8508 H         1 UNK         0.0000 
     46 H46        -3.3673   52.6398   26.7065 H         1 UNK         0.0000 
     47 H47        -3.7932   50.9976   26.2722 H         1 UNK         0.0000 
     48 H48        -5.9898   54.3606   24.6432 H         1 UNK         0.0000 
     49 H49        -4.3494   54.1652   24.0652 H         1 UNK         0.0000 
     50 H50        -4.6328   54.6251   25.7327 H         1 UNK         0.0000 
     51 H51        -6.1794   51.3241   26.8100 H         1 UNK         0.0000 
     52 H52        -5.7550   52.9272   27.3786 H         1 UNK         0.0000 
     53 H53        -7.0545   52.7228   26.2153 H         1 UNK         0.0000 
     54 H54        -5.6172   50.5861   24.4411 H         1 UNK         0.0000 
     55 H55        -6.5564   51.9474   23.8501 H         1 UNK         0.0000 
     56 H56        -4.9223   51.6988   23.2838 H         1 UNK         0.0000 
     57 H57         2.0061   53.0028   28.8463 H         1 UNK         0.0000 
     58 H58         4.3932   53.2951   23.3579 H         1 UNK         0.0000 
     59 H59         3.7459   54.8963   23.0456 H         1 UNK         0.0000 
     60 H60         4.4160   55.6979   19.3660 H         1 UNK         0.0000 
     61 H61         5.5974   56.3498   20.4197 H         1 UNK         0.0000 
     62 H62         6.7573   56.2396   18.4391 H         1 UNK         0.0000 
     63 H63         7.3340   54.7989   19.2215 H         1 UNK         0.0000 
     64 H64         5.1606   55.0158   17.0605 H         1 UNK         0.0000 
     65 H65         6.7696   54.4040   16.8388 H         1 UNK         0.0000 
     66 H66         6.3526   52.4957   18.2703 H         1 UNK         0.0000 
     67 H67         5.2244   52.5291   16.9644 H         1 UNK         0.0000 
     68 H68         2.3445   53.6005   19.1419 H         1 UNK         0.0000 
     69 H69         3.3296   54.6810   18.4013 H         1 UNK         0.0000 
     70 H70         2.7788   53.3816   17.5772 H         1 UNK         0.0000 
@<TRIPOS>BOND
     1    1    2 1    
     2    1   37 1    
     3    1   38 1    
     4    1   39 1    
     5    2    3 1    
     6    2    8 1    
     7    2    4 1    
     8    4    5 1    
     9    4   40 1    
    10    4   41 1    
    11    5    6 1    
    12    5   16 1    
    13    6    7 1    
    14    6   42 1    
    15    6   43 1    
    16    7    8 1    
    17    7   44 1    
    18    7   45 1    
    19    8    9 am   BACKBONE|DICT|INTERRES
    20    9   10 2    
    21    9   11 1    
    22   11   12 1    
    23   11   46 1    
    24   11   47 1    
    25   12   13 1    
    26   12   14 1    
    27   12   15 1    
    28   13   48 1    
    29   13   49 1    
    30   13   50 1    
    31   14   51 1    
    32   14   52 1    
    33   14   53 1    
    34   15   54 1    
    35   15   55 1    
    36   15   56 1    
    37   16   21 ar   
    38   16   17 ar   
    39   17   18 ar   
    40   17   57 1    
    41   18   19 ar   
    42   18   36 1    
    43   19   20 ar   
    44   20   21 ar   
    45   20   22 1    
    46   22   23 1    
    47   23   24 1    
    48   23   58 1    
    49   23   59 1    
    50   24   25 2    
    51   24   26 am   BACKBONE|DICT|INTERRES
    52   26   33 am   BACKBONE|DICT|INTERRES
    53   26   27 1    
    54   27   28 1    
    55   27   60 1    
    56   27   61 1    
    57   28   29 1    
    58   28   62 1    
    59   28   63 1    
    60   29   30 1    
    61   29   64 1    
    62   29   65 1    
    63   30   31 1    
    64   30   66 1    
    65   30   67 1    
    66   31   32 1    
    67   31   33 1    
    68   31   35 1    
    69   33   34 2    
    70   35   68 1    
    71   35   69 1    
    72   35   70 1    
@<TRIPOS>SUBSTRUCTURE
     1 UNK         1 GROUP             0       ****    0 ROOT    
