@<TRIPOS>MOLECULE
ZINC49424960_41
48   51    1
SMALL
USER_CHARGES


@<TRIPOS>ATOM
      1 C1          0.4792   54.2782   30.7742 C.2       1 UNK         0.0000 
      2 C2          0.7217   53.4385   29.6877 C.2       1 UNK         0.0000 
      3 C3          1.5232   54.1452   28.8003 C.2       1 UNK         0.0000 
      4 O4          1.7595   55.3900   29.3006 O.3       1 UNK         0.0000 
      5 C5          1.1042   55.4800   30.4818 C.2       1 UNK         0.0000 
      6 C6          2.0657   53.8704   27.4900 C.2       1 UNK         0.0000 
      7 C7          3.1858   54.4972   26.9504 C.2       1 UNK         0.0000 
      8 S8          3.3527   54.0836   25.2755 S.3       1 UNK         0.0000 
      9 C9          1.9832   53.0131   25.4825 C.2       1 UNK         0.0000 
     10 N10         1.4784   52.9999   26.6907 N.2       1 UNK         0.0000 
     11 N11         1.5043   52.1553   24.5032 N.am      1 UNK         0.0000 
     12 C12         1.6683   52.2764   23.1697 C.2       1 UNK         0.0000 
     13 O13         2.1122   53.2916   22.6321 O.2       1 UNK         0.0000 
     14 C14         1.2146   51.0522   22.3237 C.3       1 UNK         0.0000 
     15 H15         0.8981   50.2813   23.0276 H         1 UNK         0.0000 
     16 C16         0.0058   51.4633   21.4351 C.3       1 UNK         0.0000 
     17 C17         0.3795   52.2792   20.1773 C.3       1 UNK         0.0000 
     18 C18         1.5524   51.6499   19.3980 C.3       1 UNK         0.0000 
     19 N19         2.6675   51.4986   20.3571 N.am      1 UNK         0.0000 
     20 C20         2.3921   50.5305   21.4397 C.3       1 UNK         0.0000 
     21 C21         3.8855   52.0955   20.2370 C.2       1 UNK         0.0000 
     22 O22         4.8699   51.7327   20.8891 O.2       1 UNK         0.0000 
     23 N23         3.9350   53.1323   19.3742 N.am      1 UNK         0.0000 
     24 C24         5.1391   53.6672   18.7306 C.3       1 UNK         0.0000 
     25 C25         6.0582   54.4984   19.6156 C.2       1 UNK         0.0000 
     26 C26         7.2988   55.0391   19.2743 C.2       1 UNK         0.0000 
     27 C27         7.9623   55.6911   20.3146 C.2       1 UNK         0.0000 
     28 C28         7.2248   55.6966   21.4823 C.2       1 UNK         0.0000 
     29 S29         5.7061   54.8964   21.2837 S.3       1 UNK         0.0000 
     30 H30        -0.0948   54.0410   31.6578 H         1 UNK         0.0000 
     31 H31         0.3537   52.4307   29.5573 H         1 UNK         0.0000 
     32 H32         1.1828   56.4267   30.9983 H         1 UNK         0.0000 
     33 H33         3.8438   55.2078   27.4208 H         1 UNK         0.0000 
     34 H34         0.9187   51.4017   24.8294 H         1 UNK         0.0000 
     35 H35        -0.5140   50.5477   21.1512 H         1 UNK         0.0000 
     36 H36        -0.7760   51.9373   22.0317 H         1 UNK         0.0000 
     37 H37        -0.4894   52.3694   19.5248 H         1 UNK         0.0000 
     38 H38         0.6461   53.2962   20.4613 H         1 UNK         0.0000 
     39 H39         1.2801   50.6482   19.0634 H         1 UNK         0.0000 
     40 H40         1.8212   52.1917   18.4915 H         1 UNK         0.0000 
     41 H41         3.2766   50.2748   22.0252 H         1 UNK         0.0000 
     42 H42         2.0980   49.5884   20.9739 H         1 UNK         0.0000 
     43 H43         3.0561   53.4405   18.9864 H         1 UNK         0.0000 
     44 H44         5.7088   52.8285   18.3253 H         1 UNK         0.0000 
     45 H45         4.8256   54.2374   17.8565 H         1 UNK         0.0000 
     46 H46         7.7316   54.9250   18.2917 H         1 UNK         0.0000 
     47 H47         8.9511   56.1121   20.2213 H         1 UNK         0.0000 
     48 H48         7.5056   56.0955   22.4446 H         1 UNK         0.0000 
@<TRIPOS>BOND
     1    1    5 2    
     2    1    2 1    
     3    1   30 1    
     4    2    3 2    
     5    2   31 1    
     6    3    4 1    
     7    3    6 1    
     8    4    5 1    
     9    5   32 1    
    10    6   10 1    
    11    6    7 2    
    12    7    8 1    
    13    7   33 1    
    14    8    9 1    
    15    9   10 2    
    16    9   11 am   BACKBONE|DICT|INTERRES
    17   11   12 am   BACKBONE|DICT|INTERRES
    18   11   34 1    
    19   12   13 2    
    20   12   14 1    
    21   14   15 1    
    22   14   20 1    
    23   14   16 1    
    24   16   17 1    
    25   16   35 1    
    26   16   36 1    
    27   17   18 1    
    28   17   37 1    
    29   17   38 1    
    30   18   19 1    
    31   18   39 1    
    32   18   40 1    
    33   19   20 1    
    34   19   21 am   BACKBONE|DICT|INTERRES
    35   20   41 1    
    36   20   42 1    
    37   21   22 2    
    38   21   23 am   BACKBONE|DICT|INTERRES
    39   23   24 1    
    40   23   43 1    
    41   24   25 1    
    42   24   44 1    
    43   24   45 1    
    44   25   29 1    
    45   25   26 2    
    46   26   27 1    
    47   26   46 1    
    48   27   28 2    
    49   27   47 1    
    50   28   29 1    
    51   28   48 1    
@<TRIPOS>SUBSTRUCTURE
     1 UNK         1 GROUP             0       ****    0 ROOT    
