@<TRIPOS>MOLECULE
ZINC38849815_4042
62   65    1
SMALL
USER_CHARGES


@<TRIPOS>ATOM
      1 C1          6.3236   47.7932   12.4274 C.3       1 UNK         0.0000 
      2 C2          6.6024   49.2175   12.8810 C.ar      1 UNK         0.0000 
      3 C3          5.5616   50.1480   12.9081 C.ar      1 UNK         0.0000 
      4 C4          5.8022   51.4461   13.3424 C.ar      1 UNK         0.0000 
      5 C5          7.0888   51.8150   13.7400 C.ar      1 UNK         0.0000 
      6 C6          8.1360   50.8930   13.7015 C.ar      1 UNK         0.0000 
      7 C7          7.8916   49.5924   13.2726 C.ar      1 UNK         0.0000 
      8 S8          7.3690   53.4481   14.4070 S.o2      1 UNK         0.0000 
      9 O9          6.3704   54.3304   13.7889 O.2       1 UNK         0.0000 
     10 O10         8.8103   53.7102   14.3085 O.2       1 UNK         0.0000 
     11 N11         6.9507   53.2334   16.1101 N.pl3     1 UNK         0.0000 
     12 C12         5.5839   53.4062   16.6235 C.3       1 UNK         0.0000 
     13 C13         5.5659   54.6411   17.5492 C.3       1 UNK         0.0000 
     14 N14         6.5866   54.4988   18.6141 N.3       1 UNK         0.0000 
     15 C15         7.9537   54.2287   18.1135 C.3       1 UNK         0.0000 
     16 C16         7.9499   53.0053   17.1645 C.3       1 UNK         0.0000 
     17 C17         6.5567   55.6290   19.5479 C.3       1 UNK         0.0000 
     18 C18         6.2170   55.1798   20.9632 C.ar      1 UNK         0.0000 
     19 C19         7.0521   55.5384   22.0206 C.ar      1 UNK         0.0000 
     20 C20         6.7045   55.2043   23.3254 C.ar      1 UNK         0.0000 
     21 C21         5.5308   54.4967   23.5987 C.ar      1 UNK         0.0000 
     22 C22         4.7165   54.0960   22.5252 C.ar      1 UNK         0.0000 
     23 C23         5.0520   54.4500   21.2206 C.ar      1 UNK         0.0000 
     24 C24         5.1615   54.2161   25.0356 C.2       1 UNK         0.0000 
     25 O25         6.0401   54.1355   25.8973 O.2       1 UNK         0.0000 
     26 N26         3.8369   54.0953   25.2673 N.am      1 UNK         0.0000 
     27 C27         3.1603   53.7310   26.4473 C.ar      1 UNK         0.0000 
     28 C28         3.7173   53.9151   27.7256 C.ar      1 UNK         0.0000 
     29 C29         3.0192   53.5288   28.8662 C.ar      1 UNK         0.0000 
     30 C30         1.7538   52.9632   28.7503 C.ar      1 UNK         0.0000 
     31 C31         1.1839   52.7870   27.4911 C.ar      1 UNK         0.0000 
     32 C32         1.8700   53.1674   26.3264 C.ar      1 UNK         0.0000 
     33 C33         1.2038   52.9521   24.9554 C.3       1 UNK         0.0000 
     34 F34         1.1620   54.0965   24.2745 F         1 UNK         0.0000 
     35 F35         1.9038   52.0769   24.2384 F         1 UNK         0.0000 
     36 F36        -0.0447   52.4944   25.0542 F         1 UNK         0.0000 
     37 H37         6.3044   47.1205   13.2812 H         1 UNK         0.0000 
     38 H38         5.3785   47.7073   11.8940 H         1 UNK         0.0000 
     39 H39         7.1036   47.4512   11.7492 H         1 UNK         0.0000 
     40 H40         4.5613   49.8604   12.6149 H         1 UNK         0.0000 
     41 H41         4.9866   52.1557   13.3861 H         1 UNK         0.0000 
     42 H42         9.1281   51.1682   14.0303 H         1 UNK         0.0000 
     43 H43         8.7009   48.8764   13.2806 H         1 UNK         0.0000 
     44 H44         4.9112   53.5482   15.7776 H         1 UNK         0.0000 
     45 H45         5.2683   52.4985   17.1390 H         1 UNK         0.0000 
     46 H46         4.5668   54.8019   17.9565 H         1 UNK         0.0000 
     47 H47         5.8834   55.5078   16.9649 H         1 UNK         0.0000 
     48 H48         8.2141   55.1094   17.5200 H         1 UNK         0.0000 
     49 H49         8.6683   54.0966   18.9264 H         1 UNK         0.0000 
     50 H50         8.9305   52.8710   16.7046 H         1 UNK         0.0000 
     51 H51         7.7108   52.0745   17.6816 H         1 UNK         0.0000 
     52 H52         5.8094   56.3692   19.2553 H         1 UNK         0.0000 
     53 H53         7.5092   56.1645   19.5506 H         1 UNK         0.0000 
     54 H54         7.9620   56.0948   21.8433 H         1 UNK         0.0000 
     55 H55         7.3663   55.5143   24.1226 H         1 UNK         0.0000 
     56 H56         3.8069   53.5331   22.6828 H         1 UNK         0.0000 
     57 H57         4.4023   54.1591   20.4063 H         1 UNK         0.0000 
     58 H58         3.2449   54.1771   24.4555 H         1 UNK         0.0000 
     59 H59         4.6899   54.3627   27.8598 H         1 UNK         0.0000 
     60 H60         3.4642   53.6682   29.8400 H         1 UNK         0.0000 
     61 H61         1.2103   52.6612   29.6346 H         1 UNK         0.0000 
     62 H62         0.2002   52.3417   27.4338 H         1 UNK         0.0000 
@<TRIPOS>BOND
     1    1    2 1    
     2    1   37 1    
     3    1   38 1    
     4    1   39 1    
     5    2    7 ar   
     6    2    3 ar   
     7    3    4 ar   
     8    3   40 1    
     9    4    5 ar   
    10    4   41 1    
    11    5    6 ar   
    12    5    8 1    
    13    6    7 ar   
    14    6   42 1    
    15    7   43 1    
    16    8    9 2    
    17    8   10 2    
    18    8   11 1    
    19   11   16 1    
    20   11   12 1    
    21   12   13 1    
    22   12   44 1    
    23   12   45 1    
    24   13   14 1    
    25   13   46 1    
    26   13   47 1    
    27   14   15 1    
    28   14   17 1    
    29   15   16 1    
    30   15   48 1    
    31   15   49 1    
    32   16   50 1    
    33   16   51 1    
    34   17   18 1    
    35   17   52 1    
    36   17   53 1    
    37   18   23 ar   
    38   18   19 ar   
    39   19   20 ar   
    40   19   54 1    
    41   20   21 ar   
    42   20   55 1    
    43   21   22 ar   
    44   21   24 1    
    45   22   23 ar   
    46   22   56 1    
    47   23   57 1    
    48   24   25 2    
    49   24   26 am   BACKBONE|DICT|INTERRES
    50   26   27 1    
    51   26   58 1    
    52   27   32 ar   
    53   27   28 ar   
    54   28   29 ar   
    55   28   59 1    
    56   29   30 ar   
    57   29   60 1    
    58   30   31 ar   
    59   30   61 1    
    60   31   32 ar   
    61   31   62 1    
    62   32   33 1    
    63   33   34 1    
    64   33   35 1    
    65   33   36 1    
@<TRIPOS>SUBSTRUCTURE
     1 UNK         1 GROUP             0       ****    0 ROOT    
