@<TRIPOS>MOLECULE
ZINC23184529_685
64   67    1
SMALL
USER_CHARGES


@<TRIPOS>ATOM
      1 C1          5.2836   54.6843   25.9445 C.3       1 UNK         0.0000 
      2 C2          5.6390   54.6857   27.4458 C.3       1 UNK         0.0000 
      3 C3          4.4740   54.4046   28.4111 C.2       1 UNK         0.0000 
      4 O4          4.5209   54.8875   29.5394 O.2       1 UNK         0.0000 
      5 N5          3.4752   53.6251   27.9486 N.am      1 UNK         0.0000 
      6 C6          2.3283   53.0869   28.5796 C.ar      1 UNK         0.0000 
      7 C7          2.1265   53.1068   29.9643 C.ar      1 UNK         0.0000 
      8 C8          0.9990   52.5088   30.5249 C.ar      1 UNK         0.0000 
      9 C9          0.0894   51.8288   29.7151 C.ar      1 UNK         0.0000 
     10 C10         0.2867   51.7532   28.3419 C.ar      1 UNK         0.0000 
     11 C11         1.3763   52.4406   27.7628 C.ar      1 UNK         0.0000 
     12 C12         1.5211   52.5325   26.2543 C.3       1 UNK         0.0000 
     13 N13        -0.5687   50.9008   27.6200 N.am      1 UNK         0.0000 
     14 C14        -1.4428   51.2643   26.6550 C.2       1 UNK         0.0000 
     15 O15        -1.6781   52.4383   26.3458 O.2       1 UNK         0.0000 
     16 C16        -2.0868   50.0890   25.8841 C.3       1 UNK         0.0000 
     17 H17        -1.8059   49.2233   26.4815 H         1 UNK         0.0000 
     18 C18        -3.6328   50.1001   25.8269 C.3       1 UNK         0.0000 
     19 C19        -4.1562   48.8820   25.0439 C.ar      1 UNK         0.0000 
     20 C20        -5.4994   48.5067   25.1598 C.ar      1 UNK         0.0000 
     21 C21        -6.0011   47.4010   24.4776 C.ar      1 UNK         0.0000 
     22 C22        -5.1596   46.6467   23.6644 C.ar      1 UNK         0.0000 
     23 C23        -3.8185   47.0048   23.5361 C.ar      1 UNK         0.0000 
     24 C24        -3.2999   48.1119   24.2156 C.ar      1 UNK         0.0000 
     25 C25        -1.8088   48.4467   24.1230 C.3       1 UNK         0.0000 
     26 N26        -1.4610   49.8252   24.5487 N.pl3     1 UNK         0.0000 
     27 S27        -1.6685   51.0236   23.2246 S.o2      1 UNK         0.0000 
     28 O28        -1.7880   50.2960   21.9555 O.2       1 UNK         0.0000 
     29 O29        -2.6819   52.0163   23.5967 O.2       1 UNK         0.0000 
     30 C30        -0.1038   51.8861   23.1192 C.ar      1 UNK         0.0000 
     31 C31         0.0240   53.1587   23.6704 C.ar      1 UNK         0.0000 
     32 C32         1.1946   53.8870   23.4626 C.ar      1 UNK         0.0000 
     33 C33         2.2480   53.3297   22.7400 C.ar      1 UNK         0.0000 
     34 C34         2.1434   52.0320   22.2416 C.ar      1 UNK         0.0000 
     35 C35         0.9645   51.3103   22.4291 C.ar      1 UNK         0.0000 
     36 C36         3.5084   54.1450   22.5267 C.3       1 UNK         0.0000 
     37 H37         6.1553   54.9829   25.3607 H         1 UNK         0.0000 
     38 H38         4.4804   55.3800   25.7061 H         1 UNK         0.0000 
     39 H39         5.0182   53.6883   25.5951 H         1 UNK         0.0000 
     40 H40         6.4164   53.9442   27.6396 H         1 UNK         0.0000 
     41 H41         6.0792   55.6448   27.7066 H         1 UNK         0.0000 
     42 H42         3.5498   53.3752   26.9738 H         1 UNK         0.0000 
     43 H43         2.8409   53.5635   30.6280 H         1 UNK         0.0000 
     44 H44         0.8492   52.5235   31.5914 H         1 UNK         0.0000 
     45 H45        -0.7473   51.3220   30.1778 H         1 UNK         0.0000 
     46 H46         2.5338   52.4966   25.8811 H         1 UNK         0.0000 
     47 H47         1.0307   51.7124   25.7300 H         1 UNK         0.0000 
     48 H48         1.0943   53.4919   25.9813 H         1 UNK         0.0000 
     49 H49        -0.5308   49.9079   27.8410 H         1 UNK         0.0000 
     50 H50        -4.0345   50.0459   26.8415 H         1 UNK         0.0000 
     51 H51        -4.0229   51.0021   25.3578 H         1 UNK         0.0000 
     52 H52        -6.1662   49.0781   25.7901 H         1 UNK         0.0000 
     53 H53        -7.0410   47.1224   24.5840 H         1 UNK         0.0000 
     54 H54        -5.5456   45.7902   23.1328 H         1 UNK         0.0000 
     55 H55        -3.1726   46.4129   22.9066 H         1 UNK         0.0000 
     56 H56        -1.3697   48.2301   23.1503 H         1 UNK         0.0000 
     57 H57        -1.3340   47.7760   24.8437 H         1 UNK         0.0000 
     58 H58        -0.7922   53.6148   24.2165 H         1 UNK         0.0000 
     59 H59         1.2753   54.8880   23.8582 H         1 UNK         0.0000 
     60 H60         2.9572   51.5886   21.6895 H         1 UNK         0.0000 
     61 H61         0.8744   50.3198   22.0124 H         1 UNK         0.0000 
     62 H62         3.7313   54.7324   23.4105 H         1 UNK         0.0000 
     63 H63         4.3697   53.5082   22.3356 H         1 UNK         0.0000 
     64 H64         3.3867   54.8424   21.6983 H         1 UNK         0.0000 
@<TRIPOS>BOND
     1    1    2 1    
     2    1   37 1    
     3    1   38 1    
     4    1   39 1    
     5    2    3 1    
     6    2   40 1    
     7    2   41 1    
     8    3    4 2    
     9    3    5 am   BACKBONE|DICT|INTERRES
    10    5    6 1    
    11    5   42 1    
    12    6   11 ar   
    13    6    7 ar   
    14    7    8 ar   
    15    7   43 1    
    16    8    9 ar   
    17    8   44 1    
    18    9   10 ar   
    19    9   45 1    
    20   10   11 ar   
    21   10   13 1    
    22   11   12 1    
    23   12   46 1    
    24   12   47 1    
    25   12   48 1    
    26   13   14 am   BACKBONE|DICT|INTERRES
    27   13   49 1    
    28   14   15 2    
    29   14   16 1    
    30   16   17 1    
    31   16   26 1    
    32   16   18 1    
    33   18   19 1    
    34   18   50 1    
    35   18   51 1    
    36   19   24 ar   
    37   19   20 ar   
    38   20   21 ar   
    39   20   52 1    
    40   21   22 ar   
    41   21   53 1    
    42   22   23 ar   
    43   22   54 1    
    44   23   24 ar   
    45   23   55 1    
    46   24   25 1    
    47   25   26 1    
    48   25   56 1    
    49   25   57 1    
    50   26   27 1    
    51   27   28 2    
    52   27   29 2    
    53   27   30 1    
    54   30   35 ar   
    55   30   31 ar   
    56   31   32 ar   
    57   31   58 1    
    58   32   33 ar   
    59   32   59 1    
    60   33   34 ar   
    61   33   36 1    
    62   34   35 ar   
    63   34   60 1    
    64   35   61 1    
    65   36   62 1    
    66   36   63 1    
    67   36   64 1    
@<TRIPOS>SUBSTRUCTURE
     1 UNK         1 GROUP             0       ****    0 ROOT    
