@<TRIPOS>MOLECULE
ZINC44460416_1904
59   62    1
SMALL
USER_CHARGES


@<TRIPOS>ATOM
      1 C1         -2.7112   49.3178   21.3649 C.3       1 UNK         0.0000 
      2 C2         -2.1992   50.6735   21.8329 C.2       1 UNK         0.0000 
      3 O3         -2.4954   51.6968   21.2159 O.2       1 UNK         0.0000 
      4 C4         -1.3225   50.6885   23.1099 C.3       1 UNK         0.0000 
      5 H5         -1.4830   49.7206   23.5867 H         1 UNK         0.0000 
      6 C6         -1.7702   51.8337   24.0711 C.3       1 UNK         0.0000 
      7 C7         -0.6536   52.8969   24.0602 C.3       1 UNK         0.0000 
      8 C8          0.2563   52.4966   22.8914 C.3       1 UNK         0.0000 
      9 H9         -0.3004   52.7843   21.9977 H         1 UNK         0.0000 
     10 C10         0.2074   50.9400   22.8580 C.3       1 UNK         0.0000 
     11 C11         0.8703   50.3929   21.5344 C.3       1 UNK         0.0000 
     12 C12         1.8528   51.3823   20.8308 C.3       1 UNK         0.0000 
     13 H13         2.5474   50.7846   20.2436 H         1 UNK         0.0000 
     14 C14         2.6047   52.2901   21.8620 C.3       1 UNK         0.0000 
     15 H15         2.9145   51.5756   22.6153 H         1 UNK         0.0000 
     16 C16         1.6336   53.2010   22.6651 C.3       1 UNK         0.0000 
     17 H17         1.4416   54.0970   22.0801 H         1 UNK         0.0000 
     18 C18         2.3564   53.6966   23.9263 C.3       1 UNK         0.0000 
     19 C19         3.5913   54.4956   23.4865 C.3       1 UNK         0.0000 
     20 C20         4.6421   53.6411   22.7472 C.3       1 UNK         0.0000 
     21 H21         4.9293   52.8967   23.4710 H         1 UNK         0.0000 
     22 C22         4.0147   52.9239   21.4672 C.3       1 UNK         0.0000 
     23 C23         4.0601   53.9437   20.2711 C.3       1 UNK         0.0000 
     24 H24         3.5043   54.8255   20.5601 H         1 UNK         0.0000 
     25 C25         5.4742   54.4935   19.9638 C.3       1 UNK         0.0000 
     26 C26         6.0837   55.2290   21.1668 C.3       1 UNK         0.0000 
     27 H27         5.4944   56.1356   21.2816 H         1 UNK         0.0000 
     28 C28         5.9520   54.4490   22.4920 C.3       1 UNK         0.0000 
     29 O29         7.4143   55.6455   20.9392 O.3       1 UNK         0.0000 
     30 O30         3.5117   53.4311   19.0681 O.3       1 UNK         0.0000 
     31 C31         4.8788   51.7065   21.0859 C.3       1 UNK         0.0000 
     32 O32         1.1781   52.1859   19.8826 O.3       1 UNK         0.0000 
     33 C33         0.9415   50.2860   24.0711 C.3       1 UNK         0.0000 
     34 H34        -1.8781   48.6387   21.1852 H         1 UNK         0.0000 
     35 H35        -3.2721   49.4260   20.4365 H         1 UNK         0.0000 
     36 H36        -3.3738   48.8854   22.1143 H         1 UNK         0.0000 
     37 H37        -2.7298   52.2823   23.8047 H         1 UNK         0.0000 
     38 H38        -1.8978   51.4419   25.0816 H         1 UNK         0.0000 
     39 H39        -1.0132   53.9219   23.9758 H         1 UNK         0.0000 
     40 H40        -0.1059   52.8417   25.0015 H         1 UNK         0.0000 
     41 H41         1.3358   49.4249   21.7257 H         1 UNK         0.0000 
     42 H42         0.1101   50.2085   20.7780 H         1 UNK         0.0000 
     43 H43         1.6929   54.3460   24.4982 H         1 UNK         0.0000 
     44 H44         2.6040   52.8753   24.6005 H         1 UNK         0.0000 
     45 H45         4.0401   54.9591   24.3657 H         1 UNK         0.0000 
     46 H46         3.2920   55.2968   22.8279 H         1 UNK         0.0000 
     47 H47         5.4459   55.1589   19.0991 H         1 UNK         0.0000 
     48 H48         6.1317   53.6738   19.6784 H         1 UNK         0.0000 
     49 H49         6.2084   55.0713   23.3509 H         1 UNK         0.0000 
     50 H50         6.7393   53.6970   22.4828 H         1 UNK         0.0000 
     51 H51         7.8623   55.7229   21.7865 H         1 UNK         0.0000 
     52 H52         4.0799   52.7206   18.7486 H         1 UNK         0.0000 
     53 H53         5.9044   51.9930   21.0429 H         1 UNK         0.0000 
     54 H54         4.8228   50.8984   21.8083 H         1 UNK         0.0000 
     55 H55         4.6419   51.2959   20.1053 H         1 UNK         0.0000 
     56 H56         1.8296   52.7992   19.5087 H         1 UNK         0.0000 
     57 H57         2.0172   50.4241   24.0654 H         1 UNK         0.0000 
     58 H58         0.5886   50.6553   25.0336 H         1 UNK         0.0000 
     59 H59         0.7816   49.2068   24.0831 H         1 UNK         0.0000 
@<TRIPOS>BOND
     1    1    2 1    
     2    1   34 1    
     3    1   35 1    
     4    1   36 1    
     5    2    3 2    
     6    2    4 1    
     7    4    5 1    
     8    4   10 1    
     9    4    6 1    
    10    6    7 1    
    11    6   37 1    
    12    6   38 1    
    13    7    8 1    
    14    7   39 1    
    15    7   40 1    
    16    8    9 1    
    17    8   16 1    
    18    8   10 1    
    19   10   11 1    
    20   10   33 1    
    21   11   12 1    
    22   11   41 1    
    23   11   42 1    
    24   12   13 1    
    25   12   14 1    
    26   12   32 1    
    27   14   15 1    
    28   14   22 1    
    29   14   16 1    
    30   16   17 1    
    31   16   18 1    
    32   18   19 1    
    33   18   43 1    
    34   18   44 1    
    35   19   20 1    
    36   19   45 1    
    37   19   46 1    
    38   20   21 1    
    39   20   28 1    
    40   20   22 1    
    41   22   23 1    
    42   22   31 1    
    43   23   24 1    
    44   23   25 1    
    45   23   30 1    
    46   25   26 1    
    47   25   47 1    
    48   25   48 1    
    49   26   27 1    
    50   26   28 1    
    51   26   29 1    
    52   28   49 1    
    53   28   50 1    
    54   29   51 1    
    55   30   52 1    
    56   31   53 1    
    57   31   54 1    
    58   31   55 1    
    59   32   56 1    
    60   33   57 1    
    61   33   58 1    
    62   33   59 1    
@<TRIPOS>SUBSTRUCTURE
     1 UNK         1 GROUP             0       ****    0 ROOT    
