@<TRIPOS>MOLECULE
ZINC00218408_4666
37   39    1
SMALL
USER_CHARGES


@<TRIPOS>ATOM
      1 C1          5.5745   54.4949   20.7742 C.3       1 UNK         0.0000 
      2 C2          5.5290   54.0408   22.2478 C.3       1 UNK         0.0000 
      3 H3          5.8315   52.9921   22.2669 H         1 UNK         0.0000 
      4 C4          6.5075   54.8636   23.1182 C.3       1 UNK         0.0000 
      5 C5          6.5635   54.3846   24.5830 C.3       1 UNK         0.0000 
      6 C6          5.1518   54.1352   25.1410 C.2       1 UNK         0.0000 
      7 C7          4.0500   53.9873   24.2768 C.2       1 UNK         0.0000 
      8 S8          2.5707   53.6970   25.1168 S.3       1 UNK         0.0000 
      9 C9          3.3697   53.8804   26.6342 C.2       1 UNK         0.0000 
     10 C10         4.7612   54.0973   26.5164 C.2       1 UNK         0.0000 
     11 C11         5.6268   54.3571   27.6578 C.2       1 UNK         0.0000 
     12 O12         5.2213   54.8954   28.6847 O.2       1 UNK         0.0000 
     13 N13         6.8909   53.9559   27.5508 N.am      1 UNK         0.0000 
     14 N14         2.5460   53.7965   27.7436 N.am      1 UNK         0.0000 
     15 C15         2.7510   52.9576   28.7797 C.2       1 UNK         0.0000 
     16 O16         3.6754   52.1485   28.8817 O.2       1 UNK         0.0000 
     17 C17         1.7819   53.0857   29.8231 C.2       1 UNK         0.0000 
     18 C18         0.9100   54.1152   30.1776 C.2       1 UNK         0.0000 
     19 C19         0.3044   53.7246   31.3714 C.2       1 UNK         0.0000 
     20 C20         0.8424   52.4967   31.6997 C.2       1 UNK         0.0000 
     21 O21         1.7542   52.1163   30.7760 O.3       1 UNK         0.0000 
     22 C22         4.0733   54.1017   22.7609 C.3       1 UNK         0.0000 
     23 H23         5.1936   55.5086   20.6600 H         1 UNK         0.0000 
     24 H24         6.5911   54.4968   20.3795 H         1 UNK         0.0000 
     25 H25         4.9732   53.8441   20.1385 H         1 UNK         0.0000 
     26 H26         6.3044   55.9311   23.0769 H         1 UNK         0.0000 
     27 H27         7.5048   54.7934   22.6837 H         1 UNK         0.0000 
     28 H28         7.1454   53.4648   24.6416 H         1 UNK         0.0000 
     29 H29         7.1020   55.1279   25.1688 H         1 UNK         0.0000 
     30 H30         7.1719   53.3645   26.7833 H         1 UNK         0.0000 
     31 H31         7.5038   54.1148   28.3368 H         1 UNK         0.0000 
     32 H32         1.6436   54.2410   27.6818 H         1 UNK         0.0000 
     33 H33         0.7512   55.0442   29.6516 H         1 UNK         0.0000 
     34 H34        -0.4169   54.2690   31.9582 H         1 UNK         0.0000 
     35 H35         0.7045   51.8213   32.5308 H         1 UNK         0.0000 
     36 H36         3.6101   55.0452   22.4730 H         1 UNK         0.0000 
     37 H37         3.4816   53.3051   22.3057 H         1 UNK         0.0000 
@<TRIPOS>BOND
     1    1    2 1    
     2    1   23 1    
     3    1   24 1    
     4    1   25 1    
     5    2    3 1    
     6    2   22 1    
     7    2    4 1    
     8    4    5 1    
     9    4   26 1    
    10    4   27 1    
    11    5    6 1    
    12    5   28 1    
    13    5   29 1    
    14    6   10 1    
    15    6    7 2    
    16    7    8 1    
    17    7   22 1    
    18    8    9 1    
    19    9   10 2    
    20    9   14 am   BACKBONE|DICT|INTERRES
    21   10   11 1    
    22   11   12 2    
    23   11   13 am   BACKBONE|DICT|INTERRES
    24   13   30 1    
    25   13   31 1    
    26   14   15 am   BACKBONE|DICT|INTERRES
    27   14   32 1    
    28   15   16 2    
    29   15   17 1    
    30   17   21 1    
    31   17   18 2    
    32   18   19 1    
    33   18   33 1    
    34   19   20 2    
    35   19   34 1    
    36   20   21 1    
    37   20   35 1    
    38   22   36 1    
    39   22   37 1    
@<TRIPOS>SUBSTRUCTURE
     1 UNK         1 GROUP             0       ****    0 ROOT    
