@<TRIPOS>MOLECULE
ZINC33297924_838
54   56    1
SMALL
USER_CHARGES


@<TRIPOS>ATOM
      1 C1         -1.8745   43.4127   19.4853 C.3       1 UNK         0.0000 
      2 C2         -2.1213   44.9172   19.7086 C.3       1 UNK         0.0000 
      3 C3         -2.2706   45.3359   21.1791 C.2       1 UNK         0.0000 
      4 O4         -2.2702   44.4953   22.0816 O.2       1 UNK         0.0000 
      5 N5         -2.3911   46.6614   21.3792 N.am      1 UNK         0.0000 
      6 C6         -2.4927   47.2571   22.6244 C.2       1 UNK         0.0000 
      7 C7         -3.4817   47.0926   23.6081 C.2       1 UNK         0.0000 
      8 N8         -3.2637   47.8785   24.6379 N.2       1 UNK         0.0000 
      9 O9         -2.1228   48.6167   24.3302 O.3       1 UNK         0.0000 
     10 C10        -1.6491   48.2379   23.1182 C.2       1 UNK         0.0000 
     11 C11        -0.4625   48.8650   22.5568 C.2       1 UNK         0.0000 
     12 C12         0.3572   49.8274   23.0273 C.2       1 UNK         0.0000 
     13 C13         0.3461   50.5420   24.3166 C.ar      1 UNK         0.0000 
     14 C14         0.5589   51.9225   24.2970 C.ar      1 UNK         0.0000 
     15 C15         0.6531   52.6349   25.4871 C.ar      1 UNK         0.0000 
     16 C16         0.5451   51.9737   26.7111 C.ar      1 UNK         0.0000 
     17 C17         0.2758   50.6059   26.7326 C.ar      1 UNK         0.0000 
     18 C18         0.1917   49.8863   25.5426 C.ar      1 UNK         0.0000 
     19 S19         0.8578   52.8252   28.2665 S.o2      1 UNK         0.0000 
     20 O20         0.7638   54.2757   28.0818 O.2       1 UNK         0.0000 
     21 O21         0.0755   52.1472   29.3038 O.2       1 UNK         0.0000 
     22 N22         2.5472   52.4701   28.6433 N.pl3     1 UNK         0.0000 
     23 C23         3.6444   53.1741   28.1256 C.ar      1 UNK         0.0000 
     24 C24         4.7352   53.3789   28.9631 C.ar      1 UNK         0.0000 
     25 C25         5.9052   53.9646   28.4815 C.ar      1 UNK         0.0000 
     26 C26         6.0045   54.3299   27.1429 C.ar      1 UNK         0.0000 
     27 C27         4.9257   54.1214   26.2870 C.ar      1 UNK         0.0000 
     28 C28         3.7395   53.5731   26.7867 C.ar      1 UNK         0.0000 
     29 S29         5.1296   54.4969   24.5696 S.3       1 UNK         0.0000 
     30 C30         3.5423   54.2775   23.7145 C.3       1 UNK         0.0000 
     31 C31        -4.7041   46.2021   23.6163 C.3       1 UNK         0.0000 
     32 H32        -1.7687   43.2045   18.4207 H         1 UNK         0.0000 
     33 H33        -2.7104   42.8120   19.8430 H         1 UNK         0.0000 
     34 H34        -0.9529   43.0828   19.9649 H         1 UNK         0.0000 
     35 H35        -1.2984   45.4809   19.2677 H         1 UNK         0.0000 
     36 H36        -3.0232   45.2174   19.1735 H         1 UNK         0.0000 
     37 H37        -2.2916   47.2724   20.5822 H         1 UNK         0.0000 
     38 H38        -0.2252   48.4743   21.5780 H         1 UNK         0.0000 
     39 H39         1.1735   50.1130   22.3780 H         1 UNK         0.0000 
     40 H40         0.6784   52.4453   23.3595 H         1 UNK         0.0000 
     41 H41         0.8504   53.6957   25.4476 H         1 UNK         0.0000 
     42 H42         0.1542   50.0969   27.6755 H         1 UNK         0.0000 
     43 H43         0.0353   48.8170   25.5876 H         1 UNK         0.0000 
     44 H44         2.6887   51.9091   29.4665 H         1 UNK         0.0000 
     45 H45         4.6992   53.0568   29.9922 H         1 UNK         0.0000 
     46 H46         6.7504   54.1042   29.1395 H         1 UNK         0.0000 
     47 H47         6.9255   54.7505   26.7678 H         1 UNK         0.0000 
     48 H48         2.9319   53.3783   26.1139 H         1 UNK         0.0000 
     49 H49         3.6389   54.5737   22.6700 H         1 UNK         0.0000 
     50 H50         3.2344   53.2327   23.7426 H         1 UNK         0.0000 
     51 H51         2.7693   54.8958   24.1703 H         1 UNK         0.0000 
     52 H52        -4.7157   45.5000   22.7829 H         1 UNK         0.0000 
     53 H53        -4.7723   45.6143   24.5335 H         1 UNK         0.0000 
     54 H54        -5.6203   46.7906   23.5449 H         1 UNK         0.0000 
@<TRIPOS>BOND
     1    1    2 1    
     2    1   32 1    
     3    1   33 1    
     4    1   34 1    
     5    2    3 1    
     6    2   35 1    
     7    2   36 1    
     8    3    4 2    
     9    3    5 am   BACKBONE|DICT|INTERRES
    10    5    6 1    
    11    5   37 1    
    12    6   10 2    
    13    6    7 1    
    14    7    8 2    
    15    7   31 1    
    16    8    9 1    
    17    9   10 1    
    18   10   11 1    
    19   11   12 2    
    20   11   38 1    
    21   12   13 1    
    22   12   39 1    
    23   13   18 ar   
    24   13   14 ar   
    25   14   15 ar   
    26   14   40 1    
    27   15   16 ar   
    28   15   41 1    
    29   16   17 ar   
    30   16   19 1    
    31   17   18 ar   
    32   17   42 1    
    33   18   43 1    
    34   19   20 2    
    35   19   21 2    
    36   19   22 1    
    37   22   23 1    
    38   22   44 1    
    39   23   28 ar   
    40   23   24 ar   
    41   24   25 ar   
    42   24   45 1    
    43   25   26 ar   
    44   25   46 1    
    45   26   27 ar   
    46   26   47 1    
    47   27   28 ar   
    48   27   29 1    
    49   28   48 1    
    50   29   30 1    
    51   30   49 1    
    52   30   50 1    
    53   30   51 1    
    54   31   52 1    
    55   31   53 1    
    56   31   54 1    
@<TRIPOS>SUBSTRUCTURE
     1 UNK         1 GROUP             0       ****    0 ROOT    
