@<TRIPOS>MOLECULE
ZINC20504555_680
79   82    1
SMALL
USER_CHARGES


@<TRIPOS>ATOM
      1 C1          1.1418   51.2500   21.0764 C.3       1 UNK         0.0000 
      2 C2          0.0899   52.0081   21.9240 C.3       1 UNK         0.0000 
      3 H3         -0.2209   52.8808   21.3527 H         1 UNK         0.0000 
      4 C4          0.7336   52.5035   23.2277 C.2       1 UNK         0.0000 
      5 C5          0.2403   52.1726   24.4888 C.2       1 UNK         0.0000 
      6 S6          1.2165   52.8957   25.7061 S.3       1 UNK         0.0000 
      7 C7          2.2338   53.5455   24.4467 C.2       1 UNK         0.0000 
      8 N8          1.8078   53.2808   23.2342 N.2       1 UNK         0.0000 
      9 N9          3.3899   54.3037   24.6443 N.am      1 UNK         0.0000 
     10 C10         4.1200   54.5168   25.7638 C.2       1 UNK         0.0000 
     11 O11         5.0696   55.2949   25.7024 O.2       1 UNK         0.0000 
     12 C12         3.7797   53.8049   27.0936 C.3       1 UNK         0.0000 
     13 C13         4.8127   53.6690   28.2495 C.3       1 UNK         0.0000 
     14 C14         5.1345   55.0108   28.9188 C.3       1 UNK         0.0000 
     15 C15         6.1263   53.0594   27.7267 C.3       1 UNK         0.0000 
     16 C16         4.1527   52.7236   29.2913 C.3       1 UNK         0.0000 
     17 C17        -0.9434   51.2829   24.7591 C.3       1 UNK         0.0000 
     18 C18        -1.9468   51.4510   23.5891 C.3       1 UNK         0.0000 
     19 C19        -1.1988   51.1432   22.2297 C.3       1 UNK         0.0000 
     20 H20        -0.7927   50.1454   22.3791 H         1 UNK         0.0000 
     21 C21        -2.2509   51.0403   21.0619 C.3       1 UNK         0.0000 
     22 H22        -2.8164   51.9708   21.0399 H         1 UNK         0.0000 
     23 C23        -3.2745   49.8803   21.2994 C.3       1 UNK         0.0000 
     24 H24        -4.0314   49.9567   20.5167 H         1 UNK         0.0000 
     25 C25        -4.0324   50.2574   22.6107 C.3       1 UNK         0.0000 
     26 C26        -3.0686   50.3913   23.8054 C.3       1 UNK         0.0000 
     27 C27        -2.6821   48.4126   21.2587 C.3       1 UNK         0.0000 
     28 H28        -1.7714   48.3944   21.8325 H         1 UNK         0.0000 
     29 C29        -2.2498   47.9797   19.8337 C.3       1 UNK         0.0000 
     30 C30        -3.6725   47.3498   21.8185 C.2       1 UNK         0.0000 
     31 O31        -4.7140   47.1889   21.1771 O.2       1 UNK         0.0000 
     32 N32        -3.4764   46.7526   23.0330 N.am      1 UNK         0.0000 
     33 C33        -2.1470   46.6466   23.6812 C.3       1 UNK         0.0000 
     34 C34        -2.3048   46.6603   25.2194 C.3       1 UNK         0.0000 
     35 N35        -3.2976   45.6972   25.6959 N.3       1 UNK         0.0000 
     36 C36        -4.6023   45.9494   25.0873 C.3       1 UNK         0.0000 
     37 C37        -4.5503   45.8682   23.5459 C.3       1 UNK         0.0000 
     38 C38        -3.4034   45.8071   27.1516 C.3       1 UNK         0.0000 
     39 O39        -1.6984   51.0178   19.7630 O.3       1 UNK         0.0000 
     40 C40        -2.5417   52.8909   23.6390 C.3       1 UNK         0.0000 
     41 H41         1.9780   51.8985   20.8118 H         1 UNK         0.0000 
     42 H42         1.5486   50.3976   21.6232 H         1 UNK         0.0000 
     43 H43         0.7430   50.8671   20.1400 H         1 UNK         0.0000 
     44 H44         3.7747   54.7184   23.8087 H         1 UNK         0.0000 
     45 H45         3.5426   52.7790   26.8257 H         1 UNK         0.0000 
     46 H46         2.8751   54.2750   27.4813 H         1 UNK         0.0000 
     47 H47         5.8070   54.8968   29.7660 H         1 UNK         0.0000 
     48 H48         4.2301   55.5015   29.2815 H         1 UNK         0.0000 
     49 H49         5.6504   55.6770   28.2257 H         1 UNK         0.0000 
     50 H50         5.9042   52.1007   27.2825 H         1 UNK         0.0000 
     51 H51         6.6064   53.6694   26.9622 H         1 UNK         0.0000 
     52 H52         6.8719   52.8990   28.4983 H         1 UNK         0.0000 
     53 H53         4.0277   51.7154   28.8964 H         1 UNK         0.0000 
     54 H54         4.7043   52.6289   30.2210 H         1 UNK         0.0000 
     55 H55         3.1590   53.0773   29.5693 H         1 UNK         0.0000 
     56 H56        -0.5776   50.2567   24.8285 H         1 UNK         0.0000 
     57 H57        -1.4003   51.5052   25.7262 H         1 UNK         0.0000 
     58 H58        -4.5828   51.1883   22.4817 H         1 UNK         0.0000 
     59 H59        -4.8023   49.5243   22.8519 H         1 UNK         0.0000 
     60 H60        -2.6149   49.4174   23.9822 H         1 UNK         0.0000 
     61 H61        -3.6236   50.6062   24.7206 H         1 UNK         0.0000 
     62 H62        -1.9544   46.9293   19.8017 H         1 UNK         0.0000 
     63 H63        -3.0529   48.1143   19.1077 H         1 UNK         0.0000 
     64 H64        -1.3818   48.5363   19.4845 H         1 UNK         0.0000 
     65 H65        -1.6962   45.6946   23.4088 H         1 UNK         0.0000 
     66 H66        -1.4510   47.4540   23.4802 H         1 UNK         0.0000 
     67 H67        -2.6305   47.6572   25.5242 H         1 UNK         0.0000 
     68 H68        -1.3356   46.4556   25.6786 H         1 UNK         0.0000 
     69 H69        -4.9260   46.9539   25.3692 H         1 UNK         0.0000 
     70 H70        -5.3371   45.2320   25.4563 H         1 UNK         0.0000 
     71 H71        -5.5383   46.1456   23.1764 H         1 UNK         0.0000 
     72 H72        -4.3379   44.8342   23.2723 H         1 UNK         0.0000 
     73 H73        -2.4307   45.6848   27.6313 H         1 UNK         0.0000 
     74 H74        -3.7887   46.7807   27.4581 H         1 UNK         0.0000 
     75 H75        -4.0694   45.0411   27.5509 H         1 UNK         0.0000 
     76 H76        -2.4053   50.9106   19.1252 H         1 UNK         0.0000 
     77 H77        -3.2957   53.0690   22.8817 H         1 UNK         0.0000 
     78 H78        -3.0199   53.0830   24.6005 H         1 UNK         0.0000 
     79 H79        -1.7840   53.6633   23.5079 H         1 UNK         0.0000 
@<TRIPOS>BOND
     1    1    2 1    
     2    1   41 1    
     3    1   42 1    
     4    1   43 1    
     5    2    3 1    
     6    2   19 1    
     7    2    4 1    
     8    4    8 1    
     9    4    5 2    
    10    5    6 1    
    11    5   17 1    
    12    6    7 1    
    13    7    8 2    
    14    7    9 am   BACKBONE|DICT|INTERRES
    15    9   10 am   BACKBONE|DICT|INTERRES
    16    9   44 1    
    17   10   11 2    
    18   10   12 1    
    19   12   13 1    
    20   12   45 1    
    21   12   46 1    
    22   13   14 1    
    23   13   15 1    
    24   13   16 1    
    25   14   47 1    
    26   14   48 1    
    27   14   49 1    
    28   15   50 1    
    29   15   51 1    
    30   15   52 1    
    31   16   53 1    
    32   16   54 1    
    33   16   55 1    
    34   17   18 1    
    35   17   56 1    
    36   17   57 1    
    37   18   26 1    
    38   18   19 1    
    39   18   40 1    
    40   19   20 1    
    41   19   21 1    
    42   21   22 1    
    43   21   23 1    
    44   21   39 1    
    45   23   24 1    
    46   23   25 1    
    47   23   27 1    
    48   25   26 1    
    49   25   58 1    
    50   25   59 1    
    51   26   60 1    
    52   26   61 1    
    53   27   28 1    
    54   27   29 1    
    55   27   30 1    
    56   29   62 1    
    57   29   63 1    
    58   29   64 1    
    59   30   31 2    
    60   30   32 am   BACKBONE|DICT|INTERRES
    61   32   37 1    
    62   32   33 1    
    63   33   34 1    
    64   33   65 1    
    65   33   66 1    
    66   34   35 1    
    67   34   67 1    
    68   34   68 1    
    69   35   36 1    
    70   35   38 1    
    71   36   37 1    
    72   36   69 1    
    73   36   70 1    
    74   37   71 1    
    75   37   72 1    
    76   38   73 1    
    77   38   74 1    
    78   38   75 1    
    79   39   76 1    
    80   40   77 1    
    81   40   78 1    
    82   40   79 1    
@<TRIPOS>SUBSTRUCTURE
     1 UNK         1 GROUP             0       ****    0 ROOT    
