@<TRIPOS>MOLECULE
ZINC42620557_1847
32   33    1
SMALL
USER_CHARGES


@<TRIPOS>ATOM
      1 C1          6.2977   54.4675   24.8876 C.ar      1 UNK         0.0000 
      2 C2          5.4656   54.4370   26.0082 C.ar      1 UNK         0.0000 
      3 C3          4.0888   54.2230   25.8626 C.ar      1 UNK         0.0000 
      4 C4          3.5487   54.0965   24.5711 C.ar      1 UNK         0.0000 
      5 C5          4.3829   54.0967   23.4520 C.ar      1 UNK         0.0000 
      6 C6          5.7627   54.2825   23.6129 C.ar      1 UNK         0.0000 
      7 N7          3.7941   53.9598   22.1893 N.am      1 UNK         0.0000 
      8 C8          4.2012   53.1112   21.2333 C.2       1 UNK         0.0000 
      9 O9          5.1042   52.2894   21.3436 O.2       1 UNK         0.0000 
     10 N10         3.5045   53.2420   20.1116 N.am      1 UNK         0.0000 
     11 N11         3.3159   54.1649   27.0376 N.am      1 UNK         0.0000 
     12 C12         2.1147   53.5685   27.2121 C.2       1 UNK         0.0000 
     13 O13         1.5078   52.9382   26.3438 O.2       1 UNK         0.0000 
     14 C14         1.5220   53.6919   28.5905 C.ar      1 UNK         0.0000 
     15 C15         0.9960   52.5576   29.2351 C.ar      1 UNK         0.0000 
     16 C16         0.3884   52.6734   30.4858 C.ar      1 UNK         0.0000 
     17 C17         0.3047   53.9126   31.1127 C.ar      1 UNK         0.0000 
     18 C18         0.8230   55.0422   30.4827 C.ar      1 UNK         0.0000 
     19 C19         1.4296   54.9403   29.2323 C.ar      1 UNK         0.0000 
     20 F20         1.9046   56.0696   28.6557 F         1 UNK         0.0000 
     21 F21         1.0748   51.3302   28.6651 F         1 UNK         0.0000 
     22 H22         7.3626   54.6105   25.0023 H         1 UNK         0.0000 
     23 H23         5.9028   54.5548   26.9902 H         1 UNK         0.0000 
     24 H24         2.4871   53.9759   24.4235 H         1 UNK         0.0000 
     25 H25         6.4191   54.2978   22.7534 H         1 UNK         0.0000 
     26 H26         2.9144   54.4299   22.0407 H         1 UNK         0.0000 
     27 H27         2.7756   53.9377   20.0206 H         1 UNK         0.0000 
     28 H28         3.7294   52.6368   19.3347 H         1 UNK         0.0000 
     29 H29         3.7311   54.5843   27.8539 H         1 UNK         0.0000 
     30 H30        -0.0290   51.8007   30.9719 H         1 UNK         0.0000 
     31 H31        -0.1685   53.9911   32.0814 H         1 UNK         0.0000 
     32 H32         0.7521   56.0066   30.9643 H         1 UNK         0.0000 
@<TRIPOS>BOND
     1    1    6 ar   
     2    1    2 ar   
     3    1   22 1    
     4    2    3 ar   
     5    2   23 1    
     6    3    4 ar   
     7    3   11 1    
     8    4    5 ar   
     9    4   24 1    
    10    5    6 ar   
    11    5    7 1    
    12    6   25 1    
    13    7    8 am   BACKBONE|DICT|INTERRES
    14    7   26 1    
    15    8    9 2    
    16    8   10 am   BACKBONE|DICT|INTERRES
    17   10   27 1    
    18   10   28 1    
    19   11   12 am   BACKBONE|DICT|INTERRES
    20   11   29 1    
    21   12   13 2    
    22   12   14 1    
    23   14   19 ar   
    24   14   15 ar   
    25   15   16 ar   
    26   15   21 1    
    27   16   17 ar   
    28   16   30 1    
    29   17   18 ar   
    30   17   31 1    
    31   18   19 ar   
    32   18   32 1    
    33   19   20 1    
@<TRIPOS>SUBSTRUCTURE
     1 UNK         1 GROUP             0       ****    0 ROOT    
