@<TRIPOS>MOLECULE
ZINC36024594_1146
62   64    1
SMALL
USER_CHARGES


@<TRIPOS>ATOM
      1 C1         -3.0973   52.1358   22.9895 C.3       1 UNK         0.0000 
      2 C2         -3.3130   53.3381   23.9115 C.3       1 UNK         0.0000 
      3 C3         -4.2709   53.0872   25.1102 C.3       1 UNK         0.0000 
      4 H4         -5.0819   52.4453   24.7609 H         1 UNK         0.0000 
      5 C5         -4.9319   54.4129   25.5355 C.3       1 UNK         0.0000 
      6 C6         -3.6518   52.4054   26.3663 C.3       1 UNK         0.0000 
      7 N7         -2.7814   51.2332   26.1772 N.am      1 UNK         0.0000 
      8 C8         -3.2049   50.0749   25.6254 C.2       1 UNK         0.0000 
      9 O9         -4.3394   49.7951   25.2392 O.2       1 UNK         0.0000 
     10 C10        -2.0020   49.1201   25.5149 C.3       1 UNK         0.0000 
     11 H11        -2.2114   48.1592   25.9884 H         1 UNK         0.0000 
     12 N12        -0.9741   49.7693   26.3763 N.4       1 UNK         0.0000 
     13 C13        -1.3908   51.2164   26.6228 C.3       1 UNK         0.0000 
     14 C14        -0.4939   52.1361   25.7780 C.3       1 UNK         0.0000 
     15 C15         0.9728   52.1674   26.2150 C.3       1 UNK         0.0000 
     16 N16         1.1889   52.2987   27.6846 N.pl3     1 UNK         0.0000 
     17 C17         0.3164   51.4913   28.5687 C.3       1 UNK         0.0000 
     18 C18        -1.1636   51.5011   28.1302 C.3       1 UNK         0.0000 
     19 S19         1.9979   53.7256   28.3804 S.o2      1 UNK         0.0000 
     20 O20         1.1652   54.8942   28.0815 O.2       1 UNK         0.0000 
     21 O21         2.3214   53.4187   29.7806 O.2       1 UNK         0.0000 
     22 C22         3.5574   53.9314   27.5081 C.ar      1 UNK         0.0000 
     23 C23         3.5616   54.3435   26.1732 C.ar      1 UNK         0.0000 
     24 C24         4.7536   54.5754   25.5045 C.ar      1 UNK         0.0000 
     25 C25         5.9645   54.4086   26.1615 C.ar      1 UNK         0.0000 
     26 C26         5.9852   53.9618   27.4917 C.ar      1 UNK         0.0000 
     27 C27         4.7792   53.7219   28.1590 C.ar      1 UNK         0.0000 
     28 Cl28        7.4724   53.6972   28.3328 Cl        1 UNK         0.0000 
     29 Cl29        7.3942   54.7821   25.2809 Cl        1 UNK         0.0000 
     30 C30        -1.3950   48.9222   24.0959 C.3       1 UNK         0.0000 
     31 C31        -0.1367   48.0437   24.0962 C.3       1 UNK         0.0000 
     32 C32        -2.4125   48.3835   23.0712 C.3       1 UNK         0.0000 
     33 H33        -2.7632   52.4445   21.9993 H         1 UNK         0.0000 
     34 H34        -2.3291   51.4890   23.3813 H         1 UNK         0.0000 
     35 H35        -4.0054   51.5417   22.8820 H         1 UNK         0.0000 
     36 H36        -3.7049   54.1443   23.2881 H         1 UNK         0.0000 
     37 H37        -2.3463   53.6968   24.2535 H         1 UNK         0.0000 
     38 H38        -4.1981   55.1187   25.9288 H         1 UNK         0.0000 
     39 H39        -5.4259   54.8967   24.6908 H         1 UNK         0.0000 
     40 H40        -5.6851   54.2550   26.3087 H         1 UNK         0.0000 
     41 H41        -4.4461   52.1322   27.0631 H         1 UNK         0.0000 
     42 H42        -3.0639   53.1635   26.8815 H         1 UNK         0.0000 
     43 H43        -1.0009   49.2512   27.2619 H         1 UNK         0.0000 
     44 H44        -0.5513   51.8986   24.7169 H         1 UNK         0.0000 
     45 H45        -0.8885   53.1428   25.8590 H         1 UNK         0.0000 
     46 H46         1.5044   51.2958   25.8638 H         1 UNK         0.0000 
     47 H47         1.4350   52.9955   25.7035 H         1 UNK         0.0000 
     48 H48         0.7483   50.5042   28.6164 H         1 UNK         0.0000 
     49 H49         0.3867   51.8756   29.5872 H         1 UNK         0.0000 
     50 H50        -1.5253   52.4965   28.3502 H         1 UNK         0.0000 
     51 H51        -1.7565   50.8350   28.7606 H         1 UNK         0.0000 
     52 H52         2.6525   54.4968   25.6253 H         1 UNK         0.0000 
     53 H53         4.7345   54.8967   24.4730 H         1 UNK         0.0000 
     54 H54         4.7973   53.3921   29.1875 H         1 UNK         0.0000 
     55 H55        -1.0495   49.8822   23.7209 H         1 UNK         0.0000 
     56 H56        -0.3678   47.0044   24.3315 H         1 UNK         0.0000 
     57 H57         0.6275   48.3809   24.7972 H         1 UNK         0.0000 
     58 H58         0.3105   48.0980   23.1073 H         1 UNK         0.0000 
     59 H59        -2.8433   47.4395   23.4013 H         1 UNK         0.0000 
     60 H60        -3.2336   49.0814   22.9052 H         1 UNK         0.0000 
     61 H61        -1.9428   48.2128   22.1023 H         1 UNK         0.0000 
     62 H62        -0.0348   49.6914   26.0223 H         1 UNK         0.0000 
@<TRIPOS>BOND
     1    1    2 1    
     2    1   33 1    
     3    1   34 1    
     4    1   35 1    
     5    2    3 1    
     6    2   36 1    
     7    2   37 1    
     8    3    4 1    
     9    3    5 1    
    10    3    6 1    
    11    5   38 1    
    12    5   39 1    
    13    5   40 1    
    14    6    7 1    
    15    6   41 1    
    16    6   42 1    
    17    7   13 1    
    18    7    8 am   BACKBONE|DICT|INTERRES
    19    8    9 2    
    20    8   10 1    
    21   10   11 1    
    22   10   12 1    
    23   10   30 1    
    24   12   13 1    
    25   12   43 1    
    26   12   62 1    
    27   13   18 1    
    28   13   14 1    
    29   14   15 1    
    30   14   44 1    
    31   14   45 1    
    32   15   16 1    
    33   15   46 1    
    34   15   47 1    
    35   16   17 1    
    36   16   19 1    
    37   17   18 1    
    38   17   48 1    
    39   17   49 1    
    40   18   50 1    
    41   18   51 1    
    42   19   20 2    
    43   19   21 2    
    44   19   22 1    
    45   22   27 ar   
    46   22   23 ar   
    47   23   24 ar   
    48   23   52 1    
    49   24   25 ar   
    50   24   53 1    
    51   25   26 ar   
    52   25   29 1    
    53   26   27 ar   
    54   26   28 1    
    55   27   54 1    
    56   30   31 1    
    57   30   32 1    
    58   30   55 1    
    59   31   56 1    
    60   31   57 1    
    61   31   58 1    
    62   32   59 1    
    63   32   60 1    
    64   32   61 1    
@<TRIPOS>SUBSTRUCTURE
     1 UNK         1 GROUP             0       ****    0 ROOT    
