@<TRIPOS>MOLECULE
ZINC44905374_6063
62   65    1
SMALL
USER_CHARGES


@<TRIPOS>ATOM
      1 C1          6.1376   54.4859   27.5472 C.ar      1 UNK         0.0000 
      2 C2          5.2921   54.4964   28.6537 C.ar      1 UNK         0.0000 
      3 C3          3.9081   54.4967   28.4993 C.ar      1 UNK         0.0000 
      4 C4          3.3773   54.4970   27.1997 C.ar      1 UNK         0.0000 
      5 C5          4.2171   54.4968   26.0891 C.ar      1 UNK         0.0000 
      6 C6          5.6057   54.5002   26.2561 C.ar      1 UNK         0.0000 
      7 C7          6.5538   54.5039   25.0603 C.3       1 UNK         0.0000 
      8 N8          5.9925   53.9452   23.8272 N.am      1 UNK         0.0000 
      9 C9          6.0985   54.4969   22.6083 C.2       1 UNK         0.0000 
     10 O10         6.7047   55.5518   22.4097 O.2       1 UNK         0.0000 
     11 C11         5.4339   53.7400   21.4387 C.3       1 UNK         0.0000 
     12 H12         5.8312   52.7273   21.5269 H         1 UNK         0.0000 
     13 C13         3.8930   53.7268   21.5804 C.3       1 UNK         0.0000 
     14 C14         3.3051   52.8885   20.4196 C.3       1 UNK         0.0000 
     15 C15         3.7420   53.3929   19.0237 C.3       1 UNK         0.0000 
     16 N16         5.2880   53.4535   18.9612 N.4       1 UNK         0.0000 
     17 C17         5.8280   54.3797   20.0802 C.3       1 UNK         0.0000 
     18 C18         5.7657   53.9339   17.5696 C.3       1 UNK         0.0000 
     19 C19         7.2582   53.7270   17.3525 C.ar      1 UNK         0.0000 
     20 C20         8.1631   54.7600   17.6167 C.ar      1 UNK         0.0000 
     21 C21         9.5293   54.5434   17.4591 C.ar      1 UNK         0.0000 
     22 C22         9.9850   53.3038   17.0143 C.ar      1 UNK         0.0000 
     23 C23         9.0858   52.2811   16.7194 C.ar      1 UNK         0.0000 
     24 C24         7.7209   52.4944   16.8847 C.ar      1 UNK         0.0000 
     25 Cl25       11.6804   53.0285   16.8426 Cl        1 UNK         0.0000 
     26 O26         3.1544   54.4965   29.6661 O.3       1 UNK         0.0000 
     27 C27         1.7192   54.4785   29.6257 C.3       1 UNK         0.0000 
     28 C28         1.1601   53.2318   28.9428 C.ar      1 UNK         0.0000 
     29 C29        -0.0703   53.2971   28.2853 C.ar      1 UNK         0.0000 
     30 C30        -0.4968   52.2414   27.4866 C.ar      1 UNK         0.0000 
     31 C31         0.3086   51.1170   27.3557 C.ar      1 UNK         0.0000 
     32 C32         1.4987   51.0193   28.0721 C.ar      1 UNK         0.0000 
     33 C33         1.9182   52.0622   28.8825 C.ar      1 UNK         0.0000 
     34 F34        -0.0502   50.1294   26.5056 F         1 UNK         0.0000 
     35 H35         7.2062   54.4887   27.7062 H         1 UNK         0.0000 
     36 H36         5.7150   54.5219   29.6443 H         1 UNK         0.0000 
     37 H37         2.3138   54.5037   27.0250 H         1 UNK         0.0000 
     38 H38         3.7780   54.5069   25.1028 H         1 UNK         0.0000 
     39 H39         7.4426   53.9220   25.2985 H         1 UNK         0.0000 
     40 H40         6.9056   55.5286   24.9229 H         1 UNK         0.0000 
     41 H41         5.5582   53.0389   23.9172 H         1 UNK         0.0000 
     42 H42         3.4723   54.7301   21.4915 H         1 UNK         0.0000 
     43 H43         3.5677   53.2464   22.5047 H         1 UNK         0.0000 
     44 H44         2.2157   52.8966   20.4749 H         1 UNK         0.0000 
     45 H45         3.5980   51.8420   20.5280 H         1 UNK         0.0000 
     46 H46         3.3616   54.3920   18.8004 H         1 UNK         0.0000 
     47 H47         3.4197   52.6911   18.2504 H         1 UNK         0.0000 
     48 H48         6.9091   54.4930   19.9711 H         1 UNK         0.0000 
     49 H49         5.3638   55.3557   19.9196 H         1 UNK         0.0000 
     50 H50         5.4716   54.9824   17.4801 H         1 UNK         0.0000 
     51 H51         5.1921   53.3501   16.8464 H         1 UNK         0.0000 
     52 H52         7.8149   55.7218   17.9664 H         1 UNK         0.0000 
     53 H53        10.2325   55.3294   17.6903 H         1 UNK         0.0000 
     54 H54         9.4471   51.3219   16.3779 H         1 UNK         0.0000 
     55 H55         7.0270   51.6938   16.6748 H         1 UNK         0.0000 
     56 H56         1.3400   54.5182   30.6458 H         1 UNK         0.0000 
     57 H57         1.3664   55.3826   29.1251 H         1 UNK         0.0000 
     58 H58        -0.6555   54.2014   28.3273 H         1 UNK         0.0000 
     59 H59        -1.4241   52.3061   26.9372 H         1 UNK         0.0000 
     60 H60         2.1103   50.1377   27.9673 H         1 UNK         0.0000 
     61 H61         2.8688   51.9890   29.3911 H         1 UNK         0.0000 
     62 H62         5.6521   52.5156   19.0798 H         1 UNK         0.0000 
@<TRIPOS>BOND
     1    1    6 ar   
     2    1    2 ar   
     3    1   35 1    
     4    2    3 ar   
     5    2   36 1    
     6    3    4 ar   
     7    3   26 1    
     8    4    5 ar   
     9    4   37 1    
    10    5    6 ar   
    11    5   38 1    
    12    6    7 1    
    13    7    8 1    
    14    7   39 1    
    15    7   40 1    
    16    8    9 am   BACKBONE|DICT|INTERRES
    17    8   41 1    
    18    9   10 2    
    19    9   11 1    
    20   11   12 1    
    21   11   17 1    
    22   11   13 1    
    23   13   14 1    
    24   13   42 1    
    25   13   43 1    
    26   14   15 1    
    27   14   44 1    
    28   14   45 1    
    29   15   16 1    
    30   15   46 1    
    31   15   47 1    
    32   16   17 1    
    33   16   18 1    
    34   16   62 1    
    35   17   48 1    
    36   17   49 1    
    37   18   19 1    
    38   18   50 1    
    39   18   51 1    
    40   19   24 ar   
    41   19   20 ar   
    42   20   21 ar   
    43   20   52 1    
    44   21   22 ar   
    45   21   53 1    
    46   22   23 ar   
    47   22   25 1    
    48   23   24 ar   
    49   23   54 1    
    50   24   55 1    
    51   26   27 1    
    52   27   28 1    
    53   27   56 1    
    54   27   57 1    
    55   28   33 ar   
    56   28   29 ar   
    57   29   30 ar   
    58   29   58 1    
    59   30   31 ar   
    60   30   59 1    
    61   31   32 ar   
    62   31   34 1    
    63   32   33 ar   
    64   32   60 1    
    65   33   61 1    
@<TRIPOS>SUBSTRUCTURE
     1 UNK         1 GROUP             0       ****    0 ROOT    
