@<TRIPOS>MOLECULE
ZINC13571704_5531
63   67    1
SMALL
USER_CHARGES


@<TRIPOS>ATOM
      1 C1          3.4735   53.2937   27.8592 C.ar      1 UNK         0.0000 
      2 C2          2.2621   52.6238   27.9889 C.ar      1 UNK         0.0000 
      3 C3          1.3568   52.6030   26.9351 C.ar      1 UNK         0.0000 
      4 C4          1.6511   53.2932   25.7388 C.ar      1 UNK         0.0000 
      5 C5          2.9099   53.9183   25.6024 C.ar      1 UNK         0.0000 
      6 C6          3.8019   53.9263   26.6669 C.ar      1 UNK         0.0000 
      7 C7          0.6517   53.2999   24.5871 C.3       1 UNK         0.0000 
      8 C8          0.8153   52.2734   23.4284 C.3       1 UNK         0.0000 
      9 H9         -0.0447   52.3596   22.7620 H         1 UNK         0.0000 
     10 C10         0.9256   50.7697   23.8396 C.2       1 UNK         0.0000 
     11 O11         1.9141   50.1372   23.4590 O.2       1 UNK         0.0000 
     12 N12        -0.0449   50.1742   24.5921 N.am      1 UNK         0.0000 
     13 C13        -1.4276   50.6535   24.7207 C.3       1 UNK         0.0000 
     14 C14        -2.2727   49.9096   23.6599 C.3       1 UNK         0.0000 
     15 C15        -2.1286   48.3554   23.6251 C.3       1 UNK         0.0000 
     16 C16        -0.6393   47.9574   23.8261 C.3       1 UNK         0.0000 
     17 C17         0.0841   48.7512   24.9401 C.3       1 UNK         0.0000 
     18 C18        -2.9915   47.6792   24.7048 C.ar      1 UNK         0.0000 
     19 C19        -3.9680   46.7147   24.4572 C.ar      1 UNK         0.0000 
     20 N20        -4.4491   46.2625   25.6757 N.pl3     1 UNK         0.0000 
     21 C21        -3.7925   46.9396   26.6793 C.ar      1 UNK         0.0000 
     22 N22        -2.8949   47.7952   26.0816 N.pl3     1 UNK         0.0000 
     23 H23        -2.2234   48.3495   26.6146 H         1 UNK         0.0000 
     24 C24        -4.2410   46.1561   23.0749 C.3       1 UNK         0.0000 
     25 C25        -3.0065   46.4858   22.1897 C.3       1 UNK         0.0000 
     26 N26        -2.6342   47.9010   22.3123 N.3       1 UNK         0.0000 
     27 N27         1.9787   52.7230   22.6472 N.am      1 UNK         0.0000 
     28 C28         2.2181   52.4967   21.3438 C.2       1 UNK         0.0000 
     29 O29         1.4349   51.8692   20.6289 O.2       1 UNK         0.0000 
     30 C30         3.5043   53.0811   20.7871 C.ar      1 UNK         0.0000 
     31 C31         4.2970   53.9790   21.5267 C.ar      1 UNK         0.0000 
     32 C32         5.4559   54.5188   20.9772 C.ar      1 UNK         0.0000 
     33 C33         5.8360   54.1781   19.6831 C.ar      1 UNK         0.0000 
     34 C34         5.0623   53.2972   18.9353 C.ar      1 UNK         0.0000 
     35 C35         3.9047   52.7502   19.4847 C.ar      1 UNK         0.0000 
     36 Br36        7.4373   54.9001   18.9504 Br        1 UNK         0.0000 
     37 H37         4.1752   53.3014   28.6804 H         1 UNK         0.0000 
     38 H38         2.0254   52.1124   28.9101 H         1 UNK         0.0000 
     39 H39         0.4176   52.0792   27.0462 H         1 UNK         0.0000 
     40 H40         3.1688   54.4328   24.6899 H         1 UNK         0.0000 
     41 H41         4.7542   54.4266   26.5688 H         1 UNK         0.0000 
     42 H42         0.6984   54.3035   24.1600 H         1 UNK         0.0000 
     43 H43        -0.3442   53.2628   25.0138 H         1 UNK         0.0000 
     44 H44        -1.5438   51.7305   24.6748 H         1 UNK         0.0000 
     45 H45        -1.7610   50.3974   25.7278 H         1 UNK         0.0000 
     46 H46        -2.0006   50.3277   22.6885 H         1 UNK         0.0000 
     47 H47        -3.3180   50.1833   23.8101 H         1 UNK         0.0000 
     48 H48        -0.5604   46.8963   24.0579 H         1 UNK         0.0000 
     49 H49        -0.0961   48.0980   22.8913 H         1 UNK         0.0000 
     50 H50         1.1158   48.4578   25.1249 H         1 UNK         0.0000 
     51 H51        -0.3818   48.5972   25.9137 H         1 UNK         0.0000 
     52 H52        -3.9019   46.7936   27.7468 H         1 UNK         0.0000 
     53 H53        -4.4367   45.0841   23.0784 H         1 UNK         0.0000 
     54 H54        -5.1377   46.5921   22.6307 H         1 UNK         0.0000 
     55 H55        -2.1647   45.8554   22.4820 H         1 UNK         0.0000 
     56 H56        -3.2390   46.2528   21.1488 H         1 UNK         0.0000 
     57 H57        -3.3698   48.5034   21.9691 H         1 UNK         0.0000 
     58 H58         2.7085   53.1532   23.1889 H         1 UNK         0.0000 
     59 H59         4.0298   54.2846   22.5263 H         1 UNK         0.0000 
     60 H60         6.0611   55.2038   21.5528 H         1 UNK         0.0000 
     61 H61         5.3645   53.0149   17.9369 H         1 UNK         0.0000 
     62 H62         3.3318   52.0549   18.8846 H         1 UNK         0.0000 
     63 H63        -5.1520   45.5477   25.8090 H         1 UNK         0.0000 
@<TRIPOS>BOND
     1    1    6 ar   
     2    1    2 ar   
     3    1   37 1    
     4    2    3 ar   
     5    2   38 1    
     6    3    4 ar   
     7    3   39 1    
     8    4    5 ar   
     9    4    7 1    
    10    5    6 ar   
    11    5   40 1    
    12    6   41 1    
    13    7    8 1    
    14    7   42 1    
    15    7   43 1    
    16    8    9 1    
    17    8   10 1    
    18    8   27 1    
    19   10   11 2    
    20   10   12 am   BACKBONE|DICT|INTERRES
    21   12   17 1    
    22   12   13 1    
    23   13   14 1    
    24   13   44 1    
    25   13   45 1    
    26   14   15 1    
    27   14   46 1    
    28   14   47 1    
    29   15   26 1    
    30   15   16 1    
    31   15   18 1    
    32   16   17 1    
    33   16   48 1    
    34   16   49 1    
    35   17   50 1    
    36   17   51 1    
    37   18   22 ar   
    38   18   19 ar   
    39   19   20 ar   
    40   19   24 1    
    41   20   21 ar   
    42   20   63 1    
    43   21   22 ar   
    44   21   52 1    
    45   22   23 1    
    46   24   25 1    
    47   24   53 1    
    48   24   54 1    
    49   25   26 1    
    50   25   55 1    
    51   25   56 1    
    52   26   57 1    
    53   27   28 am   BACKBONE|DICT|INTERRES
    54   27   58 1    
    55   28   29 2    
    56   28   30 1    
    57   30   35 ar   
    58   30   31 ar   
    59   31   32 ar   
    60   31   59 1    
    61   32   33 ar   
    62   32   60 1    
    63   33   34 ar   
    64   33   36 1    
    65   34   35 ar   
    66   34   61 1    
    67   35   62 1    
@<TRIPOS>SUBSTRUCTURE
     1 UNK         1 GROUP             0       ****    0 ROOT    
