@<TRIPOS>MOLECULE
ZINC51124247_1799
41   43    1
SMALL
USER_CHARGES


@<TRIPOS>ATOM
      1 C1          6.9344   55.5315   22.3245 C.ar      1 UNK         0.0000 
      2 C2          6.5216   55.2879   21.0164 C.ar      1 UNK         0.0000 
      3 C3          5.5049   54.3576   20.7409 C.ar      1 UNK         0.0000 
      4 C4          4.8735   53.6983   21.8208 C.ar      1 UNK         0.0000 
      5 C5          5.2836   53.9782   23.1317 C.ar      1 UNK         0.0000 
      6 C6          6.2969   54.8948   23.3856 C.ar      1 UNK         0.0000 
      7 Cl7         6.7047   55.2539   25.0217 Cl        1 UNK         0.0000 
      8 C8          3.8311   52.6215   21.5982 C.2       1 UNK         0.0000 
      9 O9          4.1585   51.6763   20.8824 O.2       1 UNK         0.0000 
     10 N10         2.6072   52.7370   22.1986 N.am      1 UNK         0.0000 
     11 C11         2.2037   53.9789   22.8926 C.3       1 UNK         0.0000 
     12 C12         1.8146   53.6108   24.3357 C.3       1 UNK         0.0000 
     13 O13         0.7490   52.6702   24.3072 O.3       1 UNK         0.0000 
     14 C14         1.0850   51.4631   23.6271 C.3       1 UNK         0.0000 
     15 H15         1.9025   50.9618   24.1510 H         1 UNK         0.0000 
     16 C16         1.5040   51.7300   22.1463 C.3       1 UNK         0.0000 
     17 H17         0.6759   52.2152   21.6272 H         1 UNK         0.0000 
     18 C18         1.7294   50.3805   21.4042 C.3       1 UNK         0.0000 
     19 C19         0.5164   49.4384   21.5294 C.3       1 UNK         0.0000 
     20 C20         0.0837   49.2240   22.9922 C.3       1 UNK         0.0000 
     21 C21        -0.1623   50.5644   23.7077 C.3       1 UNK         0.0000 
     22 N22         5.1316   54.0856   19.4119 N.pl3     1 UNK         0.0000 
     23 N23         6.0816   54.2351   18.3224 N.3       1 UNK         0.0000 
     24 H24         7.7458   56.2169   22.5127 H         1 UNK         0.0000 
     25 H25         7.0206   55.7955   20.2049 H         1 UNK         0.0000 
     26 H26         4.8268   53.4728   23.9712 H         1 UNK         0.0000 
     27 H27         2.8448   54.8542   22.7849 H         1 UNK         0.0000 
     28 H28         1.2904   54.2812   22.3807 H         1 UNK         0.0000 
     29 H29         2.6753   53.2007   24.8680 H         1 UNK         0.0000 
     30 H30         1.5091   54.4966   24.8858 H         1 UNK         0.0000 
     31 H31         1.9354   50.5558   20.3477 H         1 UNK         0.0000 
     32 H32         2.5984   49.8670   21.8218 H         1 UNK         0.0000 
     33 H33         0.7490   48.4825   21.0602 H         1 UNK         0.0000 
     34 H34        -0.3203   49.8526   20.9645 H         1 UNK         0.0000 
     35 H35         0.8535   48.6610   23.5234 H         1 UNK         0.0000 
     36 H36        -0.8187   48.6136   23.0281 H         1 UNK         0.0000 
     37 H37        -0.4204   50.3673   24.7495 H         1 UNK         0.0000 
     38 H38        -1.0103   51.0585   23.2303 H         1 UNK         0.0000 
     39 H39         4.5754   53.2447   19.2750 H         1 UNK         0.0000 
     40 H40         6.4622   53.3210   18.1005 H         1 UNK         0.0000 
     41 H41         5.5892   54.6098   17.5209 H         1 UNK         0.0000 
@<TRIPOS>BOND
     1    1    6 ar   
     2    1    2 ar   
     3    1   24 1    
     4    2    3 ar   
     5    2   25 1    
     6    3    4 ar   
     7    3   22 1    
     8    4    5 ar   
     9    4    8 1    
    10    5    6 ar   
    11    5   26 1    
    12    6    7 1    
    13    8    9 2    
    14    8   10 am   BACKBONE|DICT|INTERRES
    15   10   16 1    
    16   10   11 1    
    17   11   12 1    
    18   11   27 1    
    19   11   28 1    
    20   12   13 1    
    21   12   29 1    
    22   12   30 1    
    23   13   14 1    
    24   14   15 1    
    25   14   21 1    
    26   14   16 1    
    27   16   17 1    
    28   16   18 1    
    29   18   19 1    
    30   18   31 1    
    31   18   32 1    
    32   19   20 1    
    33   19   33 1    
    34   19   34 1    
    35   20   21 1    
    36   20   35 1    
    37   20   36 1    
    38   21   37 1    
    39   21   38 1    
    40   22   23 1    
    41   22   39 1    
    42   23   40 1    
    43   23   41 1    
@<TRIPOS>SUBSTRUCTURE
     1 UNK         1 GROUP             0       ****    0 ROOT    
