@<TRIPOS>MOLECULE
ZINC20214251_214
57   59    1
SMALL
USER_CHARGES


@<TRIPOS>ATOM
      1 C1          0.7074   50.1742   24.6297 C.3       1 UNK         0.0000 
      2 C2          0.3005   50.6005   23.2128 C.3       1 UNK         0.0000 
      3 O3          1.4187   51.0888   22.4741 O.3       1 UNK         0.0000 
      4 C4          1.8493   52.3720   22.5752 C.2       1 UNK         0.0000 
      5 O5          1.2848   53.2030   23.2907 O.2       1 UNK         0.0000 
      6 C6          3.0355   52.7165   21.7433 C.2       1 UNK         0.0000 
      7 C7          3.6305   51.9061   20.8216 C.2       1 UNK         0.0000 
      8 N8          4.6860   52.3594   20.0821 N.am      1 UNK         0.0000 
      9 C9          5.1027   53.6447   20.0028 C.2       1 UNK         0.0000 
     10 O10         5.9995   54.0144   19.2541 O.2       1 UNK         0.0000 
     11 N11         4.4712   54.4959   20.8502 N.am      1 UNK         0.0000 
     12 C12         3.7139   54.0754   22.0609 C.3       1 UNK         0.0000 
     13 H13         2.9563   54.8364   22.2644 H         1 UNK         0.0000 
     14 C14         4.5459   54.1019   23.3642 C.ar      1 UNK         0.0000 
     15 C15         3.9272   54.4239   24.5816 C.ar      1 UNK         0.0000 
     16 C16         4.6779   54.5660   25.7459 C.ar      1 UNK         0.0000 
     17 C17         6.0599   54.4111   25.7018 C.ar      1 UNK         0.0000 
     18 C18         6.6941   54.0968   24.5050 C.ar      1 UNK         0.0000 
     19 C19         5.9402   53.9412   23.3442 C.ar      1 UNK         0.0000 
     20 F20         6.7939   54.5768   26.8255 F         1 UNK         0.0000 
     21 C21         3.2106   50.4968   20.3881 C.3       1 UNK         0.0000 
     22 N22         1.8496   50.4253   19.6575 N.4       1 UNK         0.0000 
     23 C23         1.3829   48.9493   19.5593 C.3       1 UNK         0.0000 
     24 C24         0.0020   48.8938   18.8609 C.3       1 UNK         0.0000 
     25 H25        -0.2034   47.8397   18.6618 H         1 UNK         0.0000 
     26 C26         0.0749   49.5971   17.4856 C.3       1 UNK         0.0000 
     27 C27         0.5645   51.0599   17.5905 C.3       1 UNK         0.0000 
     28 H28        -0.1234   51.6175   18.2298 H         1 UNK         0.0000 
     29 C29         1.9580   51.0777   18.2541 C.3       1 UNK         0.0000 
     30 C30         0.6026   51.7458   16.2133 C.3       1 UNK         0.0000 
     31 C31        -1.1356   49.4225   19.7610 C.3       1 UNK         0.0000 
     32 H32        -0.1447   49.7762   25.1803 H         1 UNK         0.0000 
     33 H33         1.4724   49.3972   24.5992 H         1 UNK         0.0000 
     34 H34         1.1036   51.0185   25.1960 H         1 UNK         0.0000 
     35 H35        -0.5028   51.3392   23.2426 H         1 UNK         0.0000 
     36 H36        -0.0963   49.7352   22.6824 H         1 UNK         0.0000 
     37 H37         5.1036   51.7528   19.3814 H         1 UNK         0.0000 
     38 H38         4.8487   55.4304   20.8516 H         1 UNK         0.0000 
     39 H39         2.8607   54.5905   24.6323 H         1 UNK         0.0000 
     40 H40         4.1932   54.8153   26.6789 H         1 UNK         0.0000 
     41 H41         7.7672   53.9884   24.4752 H         1 UNK         0.0000 
     42 H42         6.4606   53.7131   22.4303 H         1 UNK         0.0000 
     43 H43         3.9044   50.0471   19.6818 H         1 UNK         0.0000 
     44 H44         3.1694   49.8290   21.2505 H         1 UNK         0.0000 
     45 H45         2.1560   48.4005   19.0130 H         1 UNK         0.0000 
     46 H46         1.3178   48.5743   20.5828 H         1 UNK         0.0000 
     47 H47         0.7395   49.0416   16.8187 H         1 UNK         0.0000 
     48 H48        -0.8969   49.5758   16.9912 H         1 UNK         0.0000 
     49 H49         2.3052   52.1037   18.3938 H         1 UNK         0.0000 
     50 H50         2.7041   50.5181   17.6816 H         1 UNK         0.0000 
     51 H51         1.2837   51.2313   15.5314 H         1 UNK         0.0000 
     52 H52        -0.3819   51.7589   15.7461 H         1 UNK         0.0000 
     53 H53         0.9389   52.7814   16.2930 H         1 UNK         0.0000 
     54 H54        -0.9760   50.4576   20.0651 H         1 UNK         0.0000 
     55 H55        -2.0984   49.3753   19.2505 H         1 UNK         0.0000 
     56 H56        -1.2254   48.8278   20.6709 H         1 UNK         0.0000 
     57 H57         1.1769   50.9429   20.2086 H         1 UNK         0.0000 
@<TRIPOS>BOND
     1    1    2 1    
     2    1   32 1    
     3    1   33 1    
     4    1   34 1    
     5    2    3 1    
     6    2   35 1    
     7    2   36 1    
     8    3    4 1    
     9    4    5 2    
    10    4    6 1    
    11    6   12 1    
    12    6    7 2    
    13    7    8 1    
    14    7   21 1    
    15    8    9 am   BACKBONE|DICT|INTERRES
    16    8   37 1    
    17    9   10 2    
    18    9   11 am   BACKBONE|DICT|INTERRES
    19   11   12 1    
    20   11   38 1    
    21   12   13 1    
    22   12   14 1    
    23   14   19 ar   
    24   14   15 ar   
    25   15   16 ar   
    26   15   39 1    
    27   16   17 ar   
    28   16   40 1    
    29   17   18 ar   
    30   17   20 1    
    31   18   19 ar   
    32   18   41 1    
    33   19   42 1    
    34   21   22 1    
    35   21   43 1    
    36   21   44 1    
    37   22   29 1    
    38   22   23 1    
    39   22   57 1    
    40   23   24 1    
    41   23   45 1    
    42   23   46 1    
    43   24   25 1    
    44   24   26 1    
    45   24   31 1    
    46   26   27 1    
    47   26   47 1    
    48   26   48 1    
    49   27   28 1    
    50   27   29 1    
    51   27   30 1    
    52   29   49 1    
    53   29   50 1    
    54   30   51 1    
    55   30   52 1    
    56   30   53 1    
    57   31   54 1    
    58   31   55 1    
    59   31   56 1    
@<TRIPOS>SUBSTRUCTURE
     1 UNK         1 GROUP             0       ****    0 ROOT    
