@<TRIPOS>MOLECULE
ZINC59447010_4459
45   48    1
SMALL
USER_CHARGES


@<TRIPOS>ATOM
      1 C1          4.3290   54.4966   20.3192 C.3       1 UNK         0.0000 
      2 C2          3.7697   53.1298   20.5805 C.ar      1 UNK         0.0000 
      3 C3          3.1371   52.6132   21.7337 C.ar      1 UNK         0.0000 
      4 C4          2.9942   51.2769   21.4108 C.ar      1 UNK         0.0000 
      5 N5          3.4452   51.0890   20.1439 N.pl3     1 UNK         0.0000 
      6 H6          3.4450   50.2240   19.6196 H         1 UNK         0.0000 
      7 N7          3.9038   52.2286   19.6328 N.2       1 UNK         0.0000 
      8 O8          2.4760   50.2712   22.1791 O.3       1 UNK         0.0000 
      9 C9          1.8124   50.7435   23.2684 C.2       1 UNK         0.0000 
     10 C10         1.8283   52.0199   23.7419 C.2       1 UNK         0.0000 
     11 C11         2.7242   53.1432   23.1282 C.3       1 UNK         0.0000 
     12 H12         2.0846   54.0159   22.9862 H         1 UNK         0.0000 
     13 C13         3.9032   53.7164   23.9860 C.ar      1 UNK         0.0000 
     14 C14         5.2054   53.7829   23.4458 C.ar      1 UNK         0.0000 
     15 C15         6.2554   54.4047   24.1143 C.ar      1 UNK         0.0000 
     16 C16         6.0361   54.9732   25.3585 C.ar      1 UNK         0.0000 
     17 C17         4.7787   54.8865   25.9405 C.ar      1 UNK         0.0000 
     18 C18         3.7124   54.2373   25.2896 C.ar      1 UNK         0.0000 
     19 O19         2.4824   54.0630   25.8941 O.3       1 UNK         0.0000 
     20 C20         2.1882   54.4967   27.2297 C.3       1 UNK         0.0000 
     21 C21         2.5321   53.5307   28.3189 C.ar      1 UNK         0.0000 
     22 C22         1.6333   53.3900   29.3795 C.ar      1 UNK         0.0000 
     23 C23         2.0089   52.6636   30.4946 C.ar      1 UNK         0.0000 
     24 C24         3.2794   52.1079   30.5209 C.ar      1 UNK         0.0000 
     25 C25         4.1413   52.1733   29.4433 C.ar      1 UNK         0.0000 
     26 C26         3.7694   52.8963   28.3309 C.ar      1 UNK         0.0000 
     27 Br27        3.9044   51.3025   32.0817 Br        1 UNK         0.0000 
     28 C28         0.8568   52.3286   24.7424 C.1       1 UNK         0.0000 
     29 N29         0.0115   52.4967   25.5149 N.1       1 UNK         0.0000 
     30 N30         1.1039   49.6966   23.7892 N.pl3     1 UNK         0.0000 
     31 H31         4.3045   55.1135   21.2164 H         1 UNK         0.0000 
     32 H32         3.7748   55.0208   19.5405 H         1 UNK         0.0000 
     33 H33         5.3703   54.4541   19.9981 H         1 UNK         0.0000 
     34 H34         5.4452   53.3521   22.4892 H         1 UNK         0.0000 
     35 H35         7.2376   54.4467   23.6652 H         1 UNK         0.0000 
     36 H36         6.8415   55.4612   25.8847 H         1 UNK         0.0000 
     37 H37         4.6703   55.2986   26.9297 H         1 UNK         0.0000 
     38 H38         2.6395   55.4603   27.4627 H         1 UNK         0.0000 
     39 H39         1.1140   54.6806   27.2808 H         1 UNK         0.0000 
     40 H40         0.6698   53.8798   29.3672 H         1 UNK         0.0000 
     41 H41         1.3480   52.5788   31.3465 H         1 UNK         0.0000 
     42 H42         5.1044   51.6965   29.4823 H         1 UNK         0.0000 
     43 H43         4.4635   52.9563   27.5103 H         1 UNK         0.0000 
     44 H44         0.4698   49.8542   24.5598 H         1 UNK         0.0000 
     45 H45         1.4803   48.7621   23.7047 H         1 UNK         0.0000 
@<TRIPOS>BOND
     1    1    2 1    
     2    1   31 1    
     3    1   32 1    
     4    1   33 1    
     5    2    7 ar   
     6    2    3 ar   
     7    3   11 1    
     8    3    4 ar   
     9    4    5 ar   
    10    4    8 1    
    11    5    6 1    
    12    5    7 ar   
    13    8    9 1    
    14    9   10 2    
    15    9   30 1    
    16   10   11 1    
    17   10   28 1    
    18   11   12 1    
    19   11   13 1    
    20   13   18 ar   
    21   13   14 ar   
    22   14   15 ar   
    23   14   34 1    
    24   15   16 ar   
    25   15   35 1    
    26   16   17 ar   
    27   16   36 1    
    28   17   18 ar   
    29   17   37 1    
    30   18   19 1    
    31   19   20 1    
    32   20   21 1    
    33   20   38 1    
    34   20   39 1    
    35   21   26 ar   
    36   21   22 ar   
    37   22   23 ar   
    38   22   40 1    
    39   23   24 ar   
    40   23   41 1    
    41   24   25 ar   
    42   24   27 1    
    43   25   26 ar   
    44   25   42 1    
    45   26   43 1    
    46   28   29 3    
    47   30   44 1    
    48   30   45 1    
@<TRIPOS>SUBSTRUCTURE
     1 UNK         1 GROUP             0       ****    0 ROOT    
