@<TRIPOS>MOLECULE
ZINC12796292_2295
60   65    1
SMALL
USER_CHARGES


@<TRIPOS>ATOM
      1 C1         -0.4123   50.3608   18.4610 C.ar      1 UNK         0.0000 
      2 C2          0.6867   49.5618   18.7694 C.ar      1 UNK         0.0000 
      3 C3          1.6503   50.0279   19.6588 C.ar      1 UNK         0.0000 
      4 C4          1.5143   51.2936   20.2385 C.ar      1 UNK         0.0000 
      5 C5          0.4137   52.0949   19.9124 C.ar      1 UNK         0.0000 
      6 C6         -0.5529   51.6256   19.0275 C.ar      1 UNK         0.0000 
      7 C7          2.5937   51.7892   21.2161 C.3       1 UNK         0.0000 
      8 H8          3.1561   50.8986   21.5036 H         1 UNK         0.0000 
      9 C9          3.5238   52.7064   20.4037 C.3       1 UNK         0.0000 
     10 S10         5.0987   52.8330   21.2356 S.3       1 UNK         0.0000 
     11 C11         4.5069   53.5297   22.7372 C.ar      1 UNK         0.0000 
     12 C12         5.4628   54.2145   23.4937 C.ar      1 UNK         0.0000 
     13 C13         5.1640   54.6931   24.7609 C.ar      1 UNK         0.0000 
     14 C14         3.8919   54.5005   25.2733 C.ar      1 UNK         0.0000 
     15 C15         2.9305   53.8307   24.5224 C.ar      1 UNK         0.0000 
     16 C16         3.1948   53.2969   23.2340 C.ar      1 UNK         0.0000 
     17 N17         2.2276   52.4856   22.5041 N.am      1 UNK         0.0000 
     18 C18         1.0386   52.1304   23.0938 C.2       1 UNK         0.0000 
     19 O19         0.3119   52.9519   23.6620 O.2       1 UNK         0.0000 
     20 C20         0.6017   50.6336   23.0708 C.3       1 UNK         0.0000 
     21 N21        -0.5176   50.3461   23.9969 N.am      1 UNK         0.0000 
     22 C22        -0.3387   50.2221   25.3266 C.2       1 UNK         0.0000 
     23 O23         0.7044   50.0005   25.9370 O.2       1 UNK         0.0000 
     24 C24        -1.6886   50.4227   25.9682 C.3       1 UNK         0.0000 
     25 H25        -1.9706   49.5054   26.4825 H         1 UNK         0.0000 
     26 N26        -2.5055   50.6078   24.7958 N.am      1 UNK         0.0000 
     27 C27        -1.8153   50.5414   23.6501 C.2       1 UNK         0.0000 
     28 O28        -2.2941   50.5886   22.5181 O.2       1 UNK         0.0000 
     29 C29        -1.8041   51.6731   26.8791 C.3       1 UNK         0.0000 
     30 C30        -1.1294   51.6965   28.2270 C.ar      1 UNK         0.0000 
     31 C31        -1.6952   51.2973   29.3903 C.ar      1 UNK         0.0000 
     32 N32        -0.8955   51.6965   30.4517 N.pl3     1 UNK         0.0000 
     33 H33        -1.1832   51.5948   31.4348 H         1 UNK         0.0000 
     34 C34         0.3350   52.1315   30.0088 C.ar      1 UNK         0.0000 
     35 C35         0.2210   52.1307   28.5839 C.ar      1 UNK         0.0000 
     36 C36         1.3597   52.5445   27.8551 C.ar      1 UNK         0.0000 
     37 C37         2.5597   52.8987   28.5062 C.ar      1 UNK         0.0000 
     38 C38         2.6409   52.8801   29.9121 C.ar      1 UNK         0.0000 
     39 C39         1.5162   52.5080   30.6720 C.ar      1 UNK         0.0000 
     40 H40        -1.1585   49.9982   17.7694 H         1 UNK         0.0000 
     41 H41         0.7980   48.5883   18.3145 H         1 UNK         0.0000 
     42 H42         2.5071   49.4078   19.8829 H         1 UNK         0.0000 
     43 H43         0.3064   53.0750   20.3510 H         1 UNK         0.0000 
     44 H44        -1.4047   52.2398   18.7772 H         1 UNK         0.0000 
     45 H45         3.1041   53.6997   20.2521 H         1 UNK         0.0000 
     46 H46         3.7452   52.2883   19.4191 H         1 UNK         0.0000 
     47 H47         6.4624   54.3527   23.1056 H         1 UNK         0.0000 
     48 H48         5.9142   55.2103   25.3404 H         1 UNK         0.0000 
     49 H49         3.6440   54.8759   26.2551 H         1 UNK         0.0000 
     50 H50         1.9820   53.7219   25.0159 H         1 UNK         0.0000 
     51 H51         0.2729   50.3390   22.0774 H         1 UNK         0.0000 
     52 H52         1.4586   50.0072   23.3237 H         1 UNK         0.0000 
     53 H53        -3.5078   50.6489   24.9040 H         1 UNK         0.0000 
     54 H54        -1.4443   52.5525   26.3403 H         1 UNK         0.0000 
     55 H55        -2.8603   51.8683   27.0718 H         1 UNK         0.0000 
     56 H56        -2.6843   50.8711   29.4750 H         1 UNK         0.0000 
     57 H57         1.3127   52.5501   26.7777 H         1 UNK         0.0000 
     58 H58         3.4254   53.1742   27.9225 H         1 UNK         0.0000 
     59 H59         3.5671   53.1451   30.4004 H         1 UNK         0.0000 
     60 H60         1.5609   52.4880   31.7515 H         1 UNK         0.0000 
@<TRIPOS>BOND
     1    1    6 ar   
     2    1    2 ar   
     3    1   40 1    
     4    2    3 ar   
     5    2   41 1    
     6    3    4 ar   
     7    3   42 1    
     8    4    5 ar   
     9    4    7 1    
    10    5    6 ar   
    11    5   43 1    
    12    6   44 1    
    13    7    8 1    
    14    7   17 1    
    15    7    9 1    
    16    9   10 1    
    17    9   45 1    
    18    9   46 1    
    19   10   11 1    
    20   11   16 ar   
    21   11   12 ar   
    22   12   13 ar   
    23   12   47 1    
    24   13   14 ar   
    25   13   48 1    
    26   14   15 ar   
    27   14   49 1    
    28   15   16 ar   
    29   15   50 1    
    30   16   17 1    
    31   17   18 am   BACKBONE|DICT|INTERRES
    32   18   19 2    
    33   18   20 1    
    34   20   21 1    
    35   20   51 1    
    36   20   52 1    
    37   21   27 am   BACKBONE|DICT|INTERRES
    38   21   22 am   BACKBONE|DICT|INTERRES
    39   22   23 2    
    40   22   24 1    
    41   24   25 1    
    42   24   26 1    
    43   24   29 1    
    44   26   27 am   BACKBONE|DICT|INTERRES
    45   26   53 1    
    46   27   28 2    
    47   29   30 1    
    48   29   54 1    
    49   29   55 1    
    50   30   35 ar   
    51   30   31 ar   
    52   31   32 ar   
    53   31   56 1    
    54   32   33 1    
    55   32   34 ar   
    56   34   39 ar   
    57   34   35 ar   
    58   35   36 ar   
    59   36   37 ar   
    60   36   57 1    
    61   37   38 ar   
    62   37   58 1    
    63   38   39 ar   
    64   38   59 1    
    65   39   60 1    
@<TRIPOS>SUBSTRUCTURE
     1 UNK         1 GROUP             0       ****    0 ROOT    
