@<TRIPOS>MOLECULE
ZINC20571345_2101
57   60    1
SMALL
USER_CHARGES


@<TRIPOS>ATOM
      1 C1          9.9888   50.1954   16.2419 C.3       1 UNK         0.0000 
      2 C2          9.6371   51.6523   16.4819 C.ar      1 UNK         0.0000 
      3 C3          8.2987   52.0298   16.6214 C.ar      1 UNK         0.0000 
      4 C4          7.9713   53.3611   16.8612 C.ar      1 UNK         0.0000 
      5 C5          8.9838   54.3163   16.9662 C.ar      1 UNK         0.0000 
      6 C6         10.3235   53.9395   16.8421 C.ar      1 UNK         0.0000 
      7 C7         10.6484   52.6096   16.5876 C.ar      1 UNK         0.0000 
      8 S8          8.5733   56.0307   17.2781 S.o2      1 UNK         0.0000 
      9 O9          7.2111   56.2834   16.7918 O.2       1 UNK         0.0000 
     10 O10         9.7000   56.8408   16.8067 O.2       1 UNK         0.0000 
     11 N11         8.5772   56.2002   19.0434 N.pl3     1 UNK         0.0000 
     12 C12         7.6157   55.6858   19.9266 C.ar      1 UNK         0.0000 
     13 C13         7.9431   55.6974   21.2795 C.ar      1 UNK         0.0000 
     14 C14         7.0623   55.2027   22.2307 C.ar      1 UNK         0.0000 
     15 C15         5.8326   54.6541   21.8405 C.ar      1 UNK         0.0000 
     16 C16         5.5015   54.6450   20.4787 C.ar      1 UNK         0.0000 
     17 C17         6.3782   55.1653   19.5301 C.ar      1 UNK         0.0000 
     18 C18         4.8862   54.0383   22.8449 C.2       1 UNK         0.0000 
     19 O19         4.0985   53.1629   22.4817 O.2       1 UNK         0.0000 
     20 N20         5.0096   54.4966   24.1102 N.am      1 UNK         0.0000 
     21 C21         4.3173   54.1017   25.2470 C.2       1 UNK         0.0000 
     22 C22         2.9834   53.6967   25.5019 C.2       1 UNK         0.0000 
     23 C23         2.8596   53.3077   26.8756 C.2       1 UNK         0.0000 
     24 C24         4.0465   53.4797   27.6099 C.2       1 UNK         0.0000 
     25 S25         5.3217   54.1176   26.6531 S.3       1 UNK         0.0000 
     26 C26         4.2274   53.2127   29.0966 C.3       1 UNK         0.0000 
     27 C27         3.0487   52.3680   29.6137 C.3       1 UNK         0.0000 
     28 C28         1.7019   52.9116   29.1131 C.3       1 UNK         0.0000 
     29 C29         1.5781   52.8236   27.5756 C.3       1 UNK         0.0000 
     30 C30         1.8821   53.6960   24.5244 C.2       1 UNK         0.0000 
     31 O31         1.7954   54.4968   23.5926 O.2       1 UNK         0.0000 
     32 O32         0.9882   52.7119   24.7677 O.3       1 UNK         0.0000 
     33 C33        -0.1510   52.5468   23.9354 C.3       1 UNK         0.0000 
     34 H34         9.5046   49.5616   16.9869 H         1 UNK         0.0000 
     35 H35         9.6469   49.8732   15.2555 H         1 UNK         0.0000 
     36 H36        11.0649   50.0152   16.3183 H         1 UNK         0.0000 
     37 H37         7.5071   51.2971   16.5536 H         1 UNK         0.0000 
     38 H38         6.9335   53.6402   16.9580 H         1 UNK         0.0000 
     39 H39        11.1117   54.6726   16.9365 H         1 UNK         0.0000 
     40 H40        11.6844   52.3226   16.4922 H         1 UNK         0.0000 
     41 H41         9.4647   56.4723   19.4394 H         1 UNK         0.0000 
     42 H42         8.8949   56.0937   21.6058 H         1 UNK         0.0000 
     43 H43         7.3824   55.2204   23.2620 H         1 UNK         0.0000 
     44 H44         4.5588   54.2322   20.1433 H         1 UNK         0.0000 
     45 H45         6.0703   55.1396   18.5001 H         1 UNK         0.0000 
     46 H46         5.8844   54.9575   24.2977 H         1 UNK         0.0000 
     47 H47         4.2688   54.1553   29.6438 H         1 UNK         0.0000 
     48 H48         5.1617   52.6833   29.2824 H         1 UNK         0.0000 
     49 H49         3.0649   52.3443   30.7030 H         1 UNK         0.0000 
     50 H50         3.1638   51.3341   29.2857 H         1 UNK         0.0000 
     51 H51         1.5844   53.9474   29.4369 H         1 UNK         0.0000 
     52 H52         0.8846   52.3590   29.5791 H         1 UNK         0.0000 
     53 H53         1.3804   51.7901   27.2896 H         1 UNK         0.0000 
     54 H54         0.7070   53.3959   27.2594 H         1 UNK         0.0000 
     55 H55        -0.7484   51.7098   24.2941 H         1 UNK         0.0000 
     56 H56        -0.7768   53.4419   23.9481 H         1 UNK         0.0000 
     57 H57         0.1427   52.3433   22.9042 H         1 UNK         0.0000 
@<TRIPOS>BOND
     1    1    2 1    
     2    1   34 1    
     3    1   35 1    
     4    1   36 1    
     5    2    7 ar   
     6    2    3 ar   
     7    3    4 ar   
     8    3   37 1    
     9    4    5 ar   
    10    4   38 1    
    11    5    6 ar   
    12    5    8 1    
    13    6    7 ar   
    14    6   39 1    
    15    7   40 1    
    16    8    9 2    
    17    8   10 2    
    18    8   11 1    
    19   11   12 1    
    20   11   41 1    
    21   12   17 ar   
    22   12   13 ar   
    23   13   14 ar   
    24   13   42 1    
    25   14   15 ar   
    26   14   43 1    
    27   15   16 ar   
    28   15   18 1    
    29   16   17 ar   
    30   16   44 1    
    31   17   45 1    
    32   18   19 2    
    33   18   20 am   BACKBONE|DICT|INTERRES
    34   20   21 am   BACKBONE|DICT|INTERRES
    35   20   46 1    
    36   21   25 1    
    37   21   22 2    
    38   22   23 1    
    39   22   30 1    
    40   23   29 1    
    41   23   24 2    
    42   24   25 1    
    43   24   26 1    
    44   26   27 1    
    45   26   47 1    
    46   26   48 1    
    47   27   28 1    
    48   27   49 1    
    49   27   50 1    
    50   28   29 1    
    51   28   51 1    
    52   28   52 1    
    53   29   53 1    
    54   29   54 1    
    55   30   31 2    
    56   30   32 1    
    57   32   33 1    
    58   33   55 1    
    59   33   56 1    
    60   33   57 1    
@<TRIPOS>SUBSTRUCTURE
     1 UNK         1 GROUP             0       ****    0 ROOT    
