ZINC00818633_5826
                    3D
 Schrodinger Suite 2024-2.
 59 61  0  0  1  0            999 V2000
    6.0721   54.4971   28.0839 C   0  0  0  0  0  0
    4.9123   54.3780   27.0944 C   0  0  0  0  0  0
    3.7262   54.0748   27.8250 O   0  0  0  0  0  0
    2.7147   53.4159   27.1553 C   0  0  0  0  0  0
    2.4274   53.6966   25.8157 C   0  0  0  0  0  0
    1.3911   53.0564   25.1369 C   0  0  0  0  0  0
    0.6646   52.0314   25.7778 C   0  0  0  0  0  0
    0.9677   51.7511   27.1210 C   0  0  0  0  0  0
    1.9324   52.4723   27.8387 C   0  0  0  0  0  0
    2.0620   52.2296   29.3554 C   0  0  0  0  0  0
    3.5010   52.0227   29.8806 C   0  0  0  0  0  0
    1.3321   53.3262   30.1534 C   0  0  0  0  0  0
   -0.4531   51.2110   25.0759 C   0  0  2  0  0  0
   -0.4636   50.2800   25.6489 H   0  0  0  0  0  0
   -0.1750   50.7982   23.6157 C   0  0  0  0  0  0
   -1.0583   51.0740   22.6333 C   0  0  0  0  0  0
   -2.2403   51.7002   22.8280 O   0  0  0  0  0  0
   -2.6599   51.9749   24.0874 C   0  0  0  0  0  0
   -1.8944   51.7855   25.1971 C   0  0  0  0  0  0
   -2.4764   52.0397   26.5293 C   0  0  0  0  0  0
   -1.9381   51.6946   27.5747 O   0  0  0  0  0  0
   -3.8673   52.6959   26.5706 C   0  0  0  0  0  0
   -4.8085   52.2604   25.4209 C   0  0  0  0  0  0
   -4.0823   52.5252   24.0757 C   0  0  0  0  0  0
   -5.1518   50.7536   25.5529 C   0  0  0  0  0  0
   -6.0635   53.1577   25.4743 C   0  0  0  0  0  0
   -0.9229   50.8099   21.2972 N   0  0  0  0  0  0
    1.0640   50.1844   23.2670 C   0  0  0  0  0  0
    2.0471   49.7142   22.8818 N   0  0  0  0  0  0
    1.0619   53.5578   23.7369 C   0  0  0  0  0  0
    6.9969   54.7709   27.5775 H   0  0  0  0  0  0
    5.8660   55.2560   28.8378 H   0  0  0  0  0  0
    6.2453   53.5538   28.6017 H   0  0  0  0  0  0
    5.1481   53.5958   26.3689 H   0  0  0  0  0  0
    4.7825   55.3103   26.5466 H   0  0  0  0  0  0
    2.9881   54.4651   25.3064 H   0  0  0  0  0  0
    0.4078   50.9814   27.6361 H   0  0  0  0  0  0
    1.5399   51.2968   29.5695 H   0  0  0  0  0  0
    4.0503   51.2965   29.2818 H   0  0  0  0  0  0
    4.0782   52.9465   29.8956 H   0  0  0  0  0  0
    3.4941   51.6686   30.9120 H   0  0  0  0  0  0
    0.2989   53.4304   29.8219 H   0  0  0  0  0  0
    1.3077   53.0912   31.2186 H   0  0  0  0  0  0
    1.8167   54.2952   30.0352 H   0  0  0  0  0  0
   -4.3091   52.4961   27.5456 H   0  0  0  0  0  0
   -3.6906   53.7684   26.5059 H   0  0  0  0  0  0
   -4.6677   52.0589   23.2856 H   0  0  0  0  0  0
   -3.9947   53.5895   23.8521 H   0  0  0  0  0  0
   -5.8513   50.4381   24.7781 H   0  0  0  0  0  0
   -4.2767   50.1095   25.4724 H   0  0  0  0  0  0
   -5.6207   50.5390   26.5136 H   0  0  0  0  0  0
   -6.7569   52.9225   24.6634 H   0  0  0  0  0  0
   -6.6075   53.0245   26.4116 H   0  0  0  0  0  0
   -5.8151   54.2171   25.3905 H   0  0  0  0  0  0
   -0.1187   50.3022   20.9591 H   0  0  0  0  0  0
   -1.4805   51.3022   20.6167 H   0  0  0  0  0  0
    1.4474   54.5651   23.5645 H   0  0  0  0  0  0
    1.4696   52.8925   22.9741 H   0  0  0  0  0  0
   -0.0180   53.6239   23.6091 H   0  0  0  0  0  0
  1  2  1  0  0  0
  1 31  1  0  0  0
  1 32  1  0  0  0
  1 33  1  0  0  0
  2  3  1  0  0  0
  2 34  1  0  0  0
  2 35  1  0  0  0
  3  4  1  0  0  0
  4  9  2  0  0  0
  4  5  1  0  0  0
  5  6  2  0  0  0
  5 36  1  0  0  0
  6  7  1  0  0  0
  6 30  1  0  0  0
  7  8  2  0  0  0
  7 13  1  0  0  0
  8  9  1  0  0  0
  8 37  1  0  0  0
  9 10  1  0  0  0
 10 11  1  0  0  0
 10 12  1  0  0  0
 10 38  1  0  0  0
 11 39  1  0  0  0
 11 40  1  0  0  0
 11 41  1  0  0  0
 12 42  1  0  0  0
 12 43  1  0  0  0
 12 44  1  0  0  0
 13 14  1  0  0  0
 13 19  1  0  0  0
 13 15  1  0  0  0
 15 16  2  0  0  0
 15 28  1  0  0  0
 16 17  1  0  0  0
 16 27  1  0  0  0
 17 18  1  0  0  0
 18 24  1  0  0  0
 18 19  2  0  0  0
 19 20  1  0  0  0
 20 21  2  0  0  0
 20 22  1  0  0  0
 22 23  1  0  0  0
 22 45  1  0  0  0
 22 46  1  0  0  0
 23 24  1  0  0  0
 23 25  1  0  0  0
 23 26  1  0  0  0
 24 47  1  0  0  0
 24 48  1  0  0  0
 25 49  1  0  0  0
 25 50  1  0  0  0
 25 51  1  0  0  0
 26 52  1  0  0  0
 26 53  1  0  0  0
 26 54  1  0  0  0
 27 55  1  0  0  0
 27 56  1  0  0  0
 28 29  3  0  0  0
 30 57  1  0  0  0
 30 58  1  0  0  0
 30 59  1  0  0  0
M  END
> <i_i_glide_confnum>
6

> <i_i_glide_lignum>
5827

> <i_i_glide_posenum>
275

> <i_i_glide_rotatable_bonds>
5

> <i_m_Source_File_Index>
1054

> <b_m_subgroup_collapsed>
0

> <r_i_docking_score>
-4.18078

> <r_i_glide_ecoul>
1.82695

> <r_i_glide_eff_state_penalty>
0

> <r_i_glide_einternal>
14.1786

> <r_i_glide_emodel>
-33.2126

> <r_i_glide_energy>
-31.8603

> <r_i_glide_erotb>
0.251171

> <r_i_glide_esite>
-0.0202992

> <r_i_glide_evdw>
-33.6873

> <r_i_glide_gscore>
-4.18078

> <r_i_glide_hbond>
0

> <r_i_glide_ligand_efficiency>
-0.144165

> <r_i_glide_ligand_efficiency_ln>
-0.957294

> <r_i_glide_ligand_efficiency_sa>
-0.442921

> <r_i_glide_lipo>
-2.18854

> <r_i_glide_metal>
0

> <r_i_glide_rewards>
-0.812792

> <s_i_glide_gridfile>
wee1_glide-grid

> <s_m_Source_File>
wee1_decoys_glide_SP.sdf

> <s_m_Source_Path>
/Users/zhangxujun/Desktop

> <s_m_entry_id>
1329

> <s_m_entry_name>
wee1_decoys_glide_SP.1054

> <s_m_subgroup_title>
wee1_decoys_glide_SP

> <s_m_subgroupid>
wee1_decoys_glide_SP


$$$$
