@<TRIPOS>MOLECULE
ZINC43743318_1106
86   90    1
SMALL
USER_CHARGES


@<TRIPOS>ATOM
      1 C1          0.2114   48.1160   24.3154 C.3       1 UNK         0.0000 
      2 C2         -0.8589   49.1871   24.4667 C.2       1 UNK         0.0000 
      3 C3         -1.5906   49.2417   25.5885 C.2       1 UNK         0.0000 
      4 C4         -2.6525   50.2947   25.8509 C.3       1 UNK         0.0000 
      5 H5         -2.7100   50.3647   26.9371 H         1 UNK         0.0000 
      6 C6         -2.1706   51.6750   25.2883 C.3       1 UNK         0.0000 
      7 H7         -1.4019   51.9446   26.0149 H         1 UNK         0.0000 
      8 C8         -3.2744   52.7654   25.4860 C.3       1 UNK         0.0000 
      9 C9         -4.7134   52.3604   25.0670 C.3       1 UNK         0.0000 
     10 C10        -5.1431   50.9819   25.6512 C.3       1 UNK         0.0000 
     11 C11        -4.0475   49.9395   25.2857 C.3       1 UNK         0.0000 
     12 H12        -3.9330   49.9441   24.1989 H         1 UNK         0.0000 
     13 C13        -4.6836   48.5862   25.6247 C.3       1 UNK         0.0000 
     14 C14        -6.1930   48.7779   25.3473 C.3       1 UNK         0.0000 
     15 C15        -6.3890   50.2901   24.9719 C.3       1 UNK         0.0000 
     16 C16        -7.7364   50.9635   25.4034 C.2       1 UNK         0.0000 
     17 O17        -8.1151   52.0208   24.8977 O.2       1 UNK         0.0000 
     18 C18        -8.5928   50.3081   26.4839 C.3       1 UNK         0.0000 
     19 O19        -6.2466   50.4738   23.5318 O.3       1 UNK         0.0000 
     20 C20        -7.0212   50.0021   22.4948 C.2       1 UNK         0.0000 
     21 O21        -6.6638   50.0975   21.3240 O.2       1 UNK         0.0000 
     22 C22        -8.3717   49.3607   22.8186 C.3       1 UNK         0.0000 
     23 C23        -5.3202   51.1365   27.2034 C.3       1 UNK         0.0000 
     24 C24        -1.4621   51.6474   23.8538 C.3       1 UNK         0.0000 
     25 C25        -1.0728   50.2024   23.4433 C.2       1 UNK         0.0000 
     26 C26        -0.9262   49.8550   22.1439 C.2       1 UNK         0.0000 
     27 C27        -1.1033   50.7577   20.9359 C.3       1 UNK         0.0000 
     28 H28        -1.8114   50.2671   20.2651 H         1 UNK         0.0000 
     29 C29        -1.6263   52.1645   21.3104 C.3       1 UNK         0.0000 
     30 C30        -2.3275   52.2254   22.6846 C.3       1 UNK         0.0000 
     31 O31         0.1613   50.7764   20.3015 O.3       1 UNK         0.0000 
     32 C32         0.3437   51.1010   19.0074 C.2       1 UNK         0.0000 
     33 O33        -0.5012   51.5809   18.2524 O.2       1 UNK         0.0000 
     34 C34         1.7618   50.7664   18.5278 C.3       1 UNK         0.0000 
     35 C35         2.8399   50.6996   19.6405 C.3       1 UNK         0.0000 
     36 N36         3.1212   52.1049   20.2307 N.4       1 UNK         0.0000 
     37 C37         4.1433   52.8461   19.3282 C.3       1 UNK         0.0000 
     38 C38         4.4091   54.2443   19.9045 C.3       1 UNK         0.0000 
     39 C39         4.8827   54.1776   21.3670 C.3       1 UNK         0.0000 
     40 C40         3.8786   53.4008   22.2388 C.3       1 UNK         0.0000 
     41 C41         3.6230   51.9859   21.6901 C.3       1 UNK         0.0000 
     42 C42        -0.1416   52.4630   23.9707 C.3       1 UNK         0.0000 
     43 H43         1.1012   48.5470   23.8546 H         1 UNK         0.0000 
     44 H44         0.5358   47.7318   25.2815 H         1 UNK         0.0000 
     45 H45        -0.1365   47.3003   23.6834 H         1 UNK         0.0000 
     46 H46        -1.4274   48.4769   26.3313 H         1 UNK         0.0000 
     47 H47        -3.3044   53.0204   26.5446 H         1 UNK         0.0000 
     48 H48        -2.9710   53.6964   25.0206 H         1 UNK         0.0000 
     49 H49        -4.7497   52.3405   23.9822 H         1 UNK         0.0000 
     50 H50        -5.4303   53.1360   25.3431 H         1 UNK         0.0000 
     51 H51        -4.5459   48.3682   26.6851 H         1 UNK         0.0000 
     52 H52        -4.2292   47.7621   25.0722 H         1 UNK         0.0000 
     53 H53        -6.7535   48.4779   26.2331 H         1 UNK         0.0000 
     54 H54        -6.4975   48.1032   24.5499 H         1 UNK         0.0000 
     55 H55        -8.0156   50.1465   27.3930 H         1 UNK         0.0000 
     56 H56        -9.4411   50.9465   26.7308 H         1 UNK         0.0000 
     57 H57        -8.9871   49.3548   26.1321 H         1 UNK         0.0000 
     58 H58        -8.7041   48.7619   21.9718 H         1 UNK         0.0000 
     59 H59        -9.1158   50.1385   22.9855 H         1 UNK         0.0000 
     60 H60        -8.3371   48.7169   23.6920 H         1 UNK         0.0000 
     61 H61        -4.4159   51.4612   27.7121 H         1 UNK         0.0000 
     62 H62        -6.0765   51.8843   27.4434 H         1 UNK         0.0000 
     63 H63        -5.6252   50.2076   27.6828 H         1 UNK         0.0000 
     64 H64        -0.6498   48.8341   21.9223 H         1 UNK         0.0000 
     65 H65        -0.8129   52.8936   21.2833 H         1 UNK         0.0000 
     66 H66        -2.3155   52.4876   20.5296 H         1 UNK         0.0000 
     67 H67        -3.2502   51.6513   22.6041 H         1 UNK         0.0000 
     68 H68        -2.6190   53.2570   22.8791 H         1 UNK         0.0000 
     69 H69         1.7057   49.7885   18.0489 H         1 UNK         0.0000 
     70 H70         2.0567   51.4583   17.7395 H         1 UNK         0.0000 
     71 H71         2.5298   50.0470   20.4599 H         1 UNK         0.0000 
     72 H72         3.7847   50.2978   19.2896 H         1 UNK         0.0000 
     73 H73         5.0518   52.2434   19.2830 H         1 UNK         0.0000 
     74 H74         3.7000   52.9206   18.3327 H         1 UNK         0.0000 
     75 H75         5.1559   54.7536   19.2943 H         1 UNK         0.0000 
     76 H76         3.5047   54.8487   19.8291 H         1 UNK         0.0000 
     77 H77         5.0164   55.1876   21.7572 H         1 UNK         0.0000 
     78 H78         5.8683   53.7023   21.4200 H         1 UNK         0.0000 
     79 H79         2.9360   53.9471   22.2893 H         1 UNK         0.0000 
     80 H80         4.2499   53.3392   23.2638 H         1 UNK         0.0000 
     81 H81         2.8300   51.4958   22.2578 H         1 UNK         0.0000 
     82 H82         4.5236   51.3686   21.6754 H         1 UNK         0.0000 
     83 H83        -0.3442   53.5128   24.1829 H         1 UNK         0.0000 
     84 H84         0.4904   52.0857   24.7756 H         1 UNK         0.0000 
     85 H85         0.4663   52.4228   23.0671 H         1 UNK         0.0000 
     86 H86         2.2601   52.6367   20.2401 H         1 UNK         0.0000 
@<TRIPOS>BOND
     1    1    2 1    
     2    1   43 1    
     3    1   44 1    
     4    1   45 1    
     5    2   25 1    
     6    2    3 2    
     7    3    4 1    
     8    3   46 1    
     9    4    5 1    
    10    4   11 1    
    11    4    6 1    
    12    6    7 1    
    13    6    8 1    
    14    6   24 1    
    15    8    9 1    
    16    8   47 1    
    17    8   48 1    
    18    9   10 1    
    19    9   49 1    
    20    9   50 1    
    21   10   15 1    
    22   10   11 1    
    23   10   23 1    
    24   11   12 1    
    25   11   13 1    
    26   13   14 1    
    27   13   51 1    
    28   13   52 1    
    29   14   15 1    
    30   14   53 1    
    31   14   54 1    
    32   15   16 1    
    33   15   19 1    
    34   16   17 2    
    35   16   18 1    
    36   18   55 1    
    37   18   56 1    
    38   18   57 1    
    39   19   20 1    
    40   20   21 2    
    41   20   22 1    
    42   22   58 1    
    43   22   59 1    
    44   22   60 1    
    45   23   61 1    
    46   23   62 1    
    47   23   63 1    
    48   24   30 1    
    49   24   25 1    
    50   24   42 1    
    51   25   26 2    
    52   26   27 1    
    53   26   64 1    
    54   27   28 1    
    55   27   29 1    
    56   27   31 1    
    57   29   30 1    
    58   29   65 1    
    59   29   66 1    
    60   30   67 1    
    61   30   68 1    
    62   31   32 1    
    63   32   33 2    
    64   32   34 1    
    65   34   35 1    
    66   34   69 1    
    67   34   70 1    
    68   35   36 1    
    69   35   71 1    
    70   35   72 1    
    71   36   41 1    
    72   36   37 1    
    73   36   86 1    
    74   37   38 1    
    75   37   73 1    
    76   37   74 1    
    77   38   39 1    
    78   38   75 1    
    79   38   76 1    
    80   39   40 1    
    81   39   77 1    
    82   39   78 1    
    83   40   41 1    
    84   40   79 1    
    85   40   80 1    
    86   41   81 1    
    87   41   82 1    
    88   42   83 1    
    89   42   84 1    
    90   42   85 1    
@<TRIPOS>SUBSTRUCTURE
     1 UNK         1 GROUP             0       ****    0 ROOT    
