ZINC37579719_1579
                    3D
 Schrodinger Suite 2024-2.
 36 36  0  0  1  0            999 V2000
    5.6215   54.2695   24.6019 C   0  0  0  0  0  0
    4.5920   54.0966   25.7086 C   0  0  0  0  0  0
    5.0475   54.1895   27.0302 C   0  0  0  0  0  0
    4.1777   54.0136   28.1040 C   0  0  0  0  0  0
    2.8278   53.7602   27.8682 C   0  0  0  0  0  0
    2.3577   53.6967   26.5560 C   0  0  0  0  0  0
    3.2241   53.8313   25.4641 C   0  0  0  0  0  0
    2.4736   53.6222   23.8248 S   0  0  0  0  0  0
    1.2999   54.4967   23.7832 O   0  0  0  0  0  0
    3.5119   53.7387   22.7979 O   0  0  0  0  0  0
    1.9024   51.9483   23.7683 N   0  0  0  0  0  0
    0.7149   51.4275   24.5083 C   0  0  1  0  0  0
    0.8837   51.5553   25.5768 H   0  0  0  0  0  0
   -0.6002   52.0716   24.0653 C   0  0  0  0  0  0
    0.6445   49.9009   24.2531 C   0  0  0  0  0  0
    0.8911   49.4162   23.1498 O   0  0  0  0  0  0
    0.3043   49.1188   25.2810 N   0  0  0  0  0  0
    1.9144   53.5205   28.9757 C   0  0  0  0  0  0
    1.1211   53.2482   29.8641 C   0  0  0  0  0  0
    0.1318   52.8700   30.8838 C   0  0  0  0  0  0
    0.7044   52.3981   32.0816 O   0  0  0  0  0  0
    6.6167   54.4963   24.9861 H   0  0  0  0  0  0
    5.6964   53.3597   24.0058 H   0  0  0  0  0  0
    5.3347   55.0853   23.9403 H   0  0  0  0  0  0
    6.0904   54.3819   27.2370 H   0  0  0  0  0  0
    4.5626   54.0667   29.1126 H   0  0  0  0  0  0
    1.3056   53.5273   26.3810 H   0  0  0  0  0  0
    2.4467   51.2729   23.2234 H   0  0  0  0  0  0
   -1.4588   51.5316   24.4695 H   0  0  0  0  0  0
   -0.6598   53.0934   24.4386 H   0  0  0  0  0  0
   -0.6725   52.0900   22.9763 H   0  0  0  0  0  0
    0.0405   49.4938   26.1810 H   0  0  0  0  0  0
    0.3022   48.1169   25.1582 H   0  0  0  0  0  0
   -0.5111   52.0955   30.4635 H   0  0  0  0  0  0
   -0.4951   53.7359   31.0954 H   0  0  0  0  0  0
   -0.0305   52.0967   32.6441 H   0  0  0  0  0  0
  1  2  1  0  0  0
  1 22  1  0  0  0
  1 23  1  0  0  0
  1 24  1  0  0  0
  2  7  2  0  0  0
  2  3  1  0  0  0
  3  4  2  0  0  0
  3 25  1  0  0  0
  4  5  1  0  0  0
  4 26  1  0  0  0
  5  6  2  0  0  0
  5 18  1  0  0  0
  6  7  1  0  0  0
  6 27  1  0  0  0
  7  8  1  0  0  0
  8  9  2  0  0  0
  8 10  2  0  0  0
  8 11  1  0  0  0
 11 12  1  0  0  0
 11 28  1  0  0  0
 12 13  1  0  0  0
 12 14  1  0  0  0
 12 15  1  0  0  0
 14 29  1  0  0  0
 14 30  1  0  0  0
 14 31  1  0  0  0
 15 16  2  0  0  0
 15 17  1  0  0  0
 17 32  1  0  0  0
 17 33  1  0  0  0
 18 19  3  0  0  0
 19 20  1  0  0  0
 20 21  1  0  0  0
 20 34  1  0  0  0
 20 35  1  0  0  0
 21 36  1  0  0  0
M  END
> <i_i_glide_confnum>
1

> <i_i_glide_lignum>
1580

> <i_i_glide_posenum>
394

> <i_i_glide_rotatable_bonds>
7

> <i_m_Source_File_Index>
3196

> <b_m_subgroup_collapsed>
0

> <r_i_docking_score>
-5.0401

> <r_i_glide_ecoul>
-6.16019

> <r_i_glide_eff_state_penalty>
0

> <r_i_glide_einternal>
3.26872

> <r_i_glide_emodel>
-49.5745

> <r_i_glide_energy>
-39.3138

> <r_i_glide_erotb>
1.04297

> <r_i_glide_esite>
-0.0551741

> <r_i_glide_evdw>
-33.1536

> <r_i_glide_gscore>
-5.0401

> <r_i_glide_hbond>
-0.16

> <r_i_glide_ligand_efficiency>
-0.252005

> <r_i_glide_ligand_efficiency_ln>
-1.26137

> <r_i_glide_ligand_efficiency_sa>
-0.684046

> <r_i_glide_lipo>
-2.10037

> <r_i_glide_metal>
0

> <r_i_glide_rewards>
-1.18581

> <s_i_glide_gridfile>
wee1_glide-grid

> <s_m_Source_File>
wee1_decoys_glide_SP.sdf

> <s_m_Source_Path>
/Users/zhangxujun/Desktop

> <s_m_entry_id>
3471

> <s_m_entry_name>
wee1_decoys_glide_SP.3196

> <s_m_subgroup_title>
wee1_decoys_glide_SP

> <s_m_subgroupid>
wee1_decoys_glide_SP


$$$$
