ZINC14885806_114
                    3D
 Schrodinger Suite 2024-2.
 65 69  0  0  1  0            999 V2000
    0.4953   51.9841   23.2249 C   0  0  0  0  0  0
   -0.0632   50.7393   23.5733 C   0  0  0  0  0  0
   -0.6253   49.8615   22.6043 C   0  0  0  0  0  0
   -1.0956   48.6377   23.0455 C   0  0  0  0  0  0
   -1.0505   48.2605   24.3558 C   0  0  0  0  0  0
   -0.5345   49.0846   25.3481 C   0  0  0  0  0  0
   -0.0281   50.3570   24.9528 C   0  0  0  0  0  0
    0.5063   51.1754   25.8973 N   0  0  0  0  0  0
    1.1045   52.3464   25.5348 C   0  0  0  0  0  0
    1.1261   52.7764   24.1879 C   0  0  0  0  0  0
    1.7533   54.0809   23.6930 C   0  0  0  0  0  0
    3.1899   53.9303   23.1474 N   0  3  0  0  0  0
    3.3407   52.9543   21.9640 C   0  0  0  0  0  0
    4.8175   52.8149   21.5629 C   0  0  0  0  0  0
    5.4879   54.0979   21.0990 C   0  0  0  0  0  0
    5.2210   54.6219   19.8843 C   0  0  0  0  0  0
    5.8518   55.8871   19.3122 C   0  0  0  0  0  0
    6.6917   56.6471   20.3616 C   0  0  0  0  0  0
    7.4431   55.7086   21.3201 C   0  0  0  0  0  0
    6.4761   54.7607   22.0635 C   0  0  0  0  0  0
    1.7022   53.0154   26.6091 N   0  0  0  0  0  0
    2.9531   53.7951   26.5594 C   0  0  0  0  0  0
    3.9296   53.4780   27.7177 C   0  0  0  0  0  0
    3.2508   53.5370   29.0916 C   0  0  0  0  0  0
    1.9832   52.6596   29.0811 C   0  0  2  0  0  0
    2.3173   51.6546   28.8072 H   0  0  0  0  0  0
    1.0657   53.1533   27.9359 C   0  0  0  0  0  0
    1.2419   52.5728   30.4326 C   0  0  0  0  0  0
    2.0992   52.0966   31.4512 O   0  0  0  0  0  0
   -1.5418   46.9970   24.4711 O   0  0  0  0  0  0
   -2.0671   46.6731   23.2108 C   0  0  0  0  0  0
   -1.6172   47.6316   22.2962 O   0  0  0  0  0  0
    0.4753   52.2865   22.1859 H   0  0  0  0  0  0
   -0.6506   50.1438   21.5613 H   0  0  0  0  0  0
   -0.4942   48.7783   26.3853 H   0  0  0  0  0  0
    1.8031   54.8553   24.4574 H   0  0  0  0  0  0
    1.1936   54.4977   22.8532 H   0  0  0  0  0  0
    3.7884   53.6165   23.8982 H   0  0  0  0  0  0
    2.7181   53.3510   21.1590 H   0  0  0  0  0  0
    2.9510   51.9934   22.2957 H   0  0  0  0  0  0
    4.8789   52.0916   20.7467 H   0  0  0  0  0  0
    5.3953   52.3678   22.3736 H   0  0  0  0  0  0
    4.5157   54.0935   19.2587 H   0  0  0  0  0  0
    5.0905   56.5435   18.8864 H   0  0  0  0  0  0
    6.4843   55.5905   18.4733 H   0  0  0  0  0  0
    6.0365   57.2956   20.9427 H   0  0  0  0  0  0
    7.3927   57.2970   19.8393 H   0  0  0  0  0  0
    8.1655   55.1176   20.7536 H   0  0  0  0  0  0
    8.0234   56.2765   22.0469 H   0  0  0  0  0  0
    7.0465   54.0125   22.6172 H   0  0  0  0  0  0
    5.9203   55.2981   22.8287 H   0  0  0  0  0  0
    3.4875   53.5465   25.6450 H   0  0  0  0  0  0
    2.7171   54.8595   26.5360 H   0  0  0  0  0  0
    4.3905   52.5024   27.5520 H   0  0  0  0  0  0
    4.7542   54.1904   27.6940 H   0  0  0  0  0  0
    3.9410   53.1980   29.8655 H   0  0  0  0  0  0
    3.0006   54.5613   29.3638 H   0  0  0  0  0  0
    0.7259   54.1769   28.1103 H   0  0  0  0  0  0
    0.1512   52.5589   27.9619 H   0  0  0  0  0  0
    0.8584   53.5516   30.7231 H   0  0  0  0  0  0
    0.3808   51.9079   30.3565 H   0  0  0  0  0  0
    1.6153   52.0949   32.2855 H   0  0  0  0  0  0
   -1.7213   45.6889   22.8994 H   0  0  0  0  0  0
   -3.1576   46.7080   23.2509 H   0  0  0  0  0  0
    3.5305   54.8332   22.8457 H   0  0  0  0  0  0
  1 10  2  0  0  0
  1  2  1  0  0  0
  1 33  1  0  0  0
  2  7  2  0  0  0
  2  3  1  0  0  0
  3  4  2  0  0  0
  3 34  1  0  0  0
  4 32  1  0  0  0
  4  5  1  0  0  0
  5  6  2  0  0  0
  5 30  1  0  0  0
  6  7  1  0  0  0
  6 35  1  0  0  0
  7  8  1  0  0  0
  8  9  2  0  0  0
  9 10  1  0  0  0
  9 21  1  0  0  0
 10 11  1  0  0  0
 11 12  1  0  0  0
 11 36  1  0  0  0
 11 37  1  0  0  0
 12 13  1  0  0  0
 12 38  1  0  0  0
 12 65  1  0  0  0
 13 14  1  0  0  0
 13 39  1  0  0  0
 13 40  1  0  0  0
 14 15  1  0  0  0
 14 41  1  0  0  0
 14 42  1  0  0  0
 15 20  1  0  0  0
 15 16  2  0  0  0
 16 17  1  0  0  0
 16 43  1  0  0  0
 17 18  1  0  0  0
 17 44  1  0  0  0
 17 45  1  0  0  0
 18 19  1  0  0  0
 18 46  1  0  0  0
 18 47  1  0  0  0
 19 20  1  0  0  0
 19 48  1  0  0  0
 19 49  1  0  0  0
 20 50  1  0  0  0
 20 51  1  0  0  0
 21 27  1  0  0  0
 21 22  1  0  0  0
 22 23  1  0  0  0
 22 52  1  0  0  0
 22 53  1  0  0  0
 23 24  1  0  0  0
 23 54  1  0  0  0
 23 55  1  0  0  0
 24 25  1  0  0  0
 24 56  1  0  0  0
 24 57  1  0  0  0
 25 26  1  0  0  0
 25 27  1  0  0  0
 25 28  1  0  0  0
 27 58  1  0  0  0
 27 59  1  0  0  0
 28 29  1  0  0  0
 28 60  1  0  0  0
 28 61  1  0  0  0
 29 62  1  0  0  0
 30 31  1  0  0  0
 31 32  1  0  0  0
 31 63  1  0  0  0
 31 64  1  0  0  0
M  CHG  1  12   1
M  END
> <i_i_glide_confnum>
159

> <i_i_glide_lignum>
115

> <i_i_glide_posenum>
318

> <i_i_glide_rotatable_bonds>
8

> <i_m_Source_File_Index>
2150

> <b_m_subgroup_collapsed>
0

> <r_i_docking_score>
-5.19306

> <r_i_glide_ecoul>
-4.10331

> <r_i_glide_eff_state_penalty>
0

> <r_i_glide_einternal>
4.78339

> <r_i_glide_emodel>
-56.6685

> <r_i_glide_energy>
-41.4231

> <r_i_glide_erotb>
0.660071

> <r_i_glide_esite>
-0.0244064

> <r_i_glide_evdw>
-37.3198

> <r_i_glide_gscore>
-5.19306

> <r_i_glide_hbond>
-0.187392

> <r_i_glide_ligand_efficiency>
-0.167518

> <r_i_glide_ligand_efficiency_ln>
-1.17119

> <r_i_glide_ligand_efficiency_sa>
-0.526238

> <r_i_glide_lipo>
-2.40853

> <r_i_glide_metal>
0

> <r_i_glide_rewards>
-0.751308

> <s_i_glide_gridfile>
wee1_glide-grid

> <s_m_Source_File>
wee1_decoys_glide_SP.sdf

> <s_m_Source_Path>
/Users/zhangxujun/Desktop

> <s_m_entry_id>
2425

> <s_m_entry_name>
wee1_decoys_glide_SP.2150

> <s_m_subgroup_title>
wee1_decoys_glide_SP

> <s_m_subgroupid>
wee1_decoys_glide_SP


$$$$
