@<TRIPOS>MOLECULE
ZINC58715811_2573
50   51    1
SMALL
USER_CHARGES


@<TRIPOS>ATOM
      1 C1          5.1782   54.4908   27.7721 C.3       1 UNK         0.0000 
      2 C2          4.8454   54.3505   26.2971 C.ar      1 UNK         0.0000 
      3 C3          5.8469   54.4962   25.3389 C.ar      1 UNK         0.0000 
      4 C4          5.5605   54.3750   23.9765 C.ar      1 UNK         0.0000 
      5 C5          4.2356   54.0968   23.5657 C.ar      1 UNK         0.0000 
      6 C6          3.2156   53.9942   24.5317 C.ar      1 UNK         0.0000 
      7 C7          3.5341   54.1051   25.8890 C.ar      1 UNK         0.0000 
      8 C8          1.7636   53.7429   24.1385 C.3       1 UNK         0.0000 
      9 N9          3.8832   53.9821   22.2076 N.am      1 UNK         0.0000 
     10 C10         4.3690   53.0667   21.3461 C.2       1 UNK         0.0000 
     11 O11         5.1046   52.1353   21.6807 O.2       1 UNK         0.0000 
     12 C12         3.8804   53.1902   19.8962 C.3       1 UNK         0.0000 
     13 N13         4.9633   52.8967   18.9570 N.am      1 UNK         0.0000 
     14 C14         5.8478   53.7976   18.5170 C.2       1 UNK         0.0000 
     15 O15         5.9208   54.9525   18.9388 O.2       1 UNK         0.0000 
     16 N16         6.5598   53.3053   17.4913 N.am      1 UNK         0.0000 
     17 C17         7.1856   54.0760   16.4084 C.3       1 UNK         0.0000 
     18 H18         7.6467   53.3271   15.7614 H         1 UNK         0.0000 
     19 C19         6.1354   54.7854   15.5221 C.3       1 UNK         0.0000 
     20 C20         8.3218   54.9975   16.8766 C.ar      1 UNK         0.0000 
     21 C21         9.6329   54.5060   16.9135 C.ar      1 UNK         0.0000 
     22 C22        10.6907   55.3365   17.2818 C.ar      1 UNK         0.0000 
     23 C23        10.4479   56.6657   17.6270 C.ar      1 UNK         0.0000 
     24 C24         9.1490   57.1685   17.5955 C.ar      1 UNK         0.0000 
     25 C25         8.0932   56.3415   17.2114 C.ar      1 UNK         0.0000 
     26 Br26        8.8176   58.9807   18.0789 Br        1 UNK         0.0000 
     27 C27         6.7041   54.6152   22.9963 C.3       1 UNK         0.0000 
     28 H28         5.9866   55.2075   27.9241 H         1 UNK         0.0000 
     29 H29         5.4831   53.5299   28.1879 H         1 UNK         0.0000 
     30 H30         4.3222   54.8644   28.3355 H         1 UNK         0.0000 
     31 H31         6.8585   54.7043   25.6545 H         1 UNK         0.0000 
     32 H32         2.7572   54.0069   26.6336 H         1 UNK         0.0000 
     33 H33         1.3898   54.5641   23.5268 H         1 UNK         0.0000 
     34 H34         1.6887   52.8308   23.5453 H         1 UNK         0.0000 
     35 H35         1.1094   53.6334   25.0038 H         1 UNK         0.0000 
     36 H36         3.1944   54.6337   21.8621 H         1 UNK         0.0000 
     37 H37         3.0575   52.4947   19.7321 H         1 UNK         0.0000 
     38 H38         3.5041   54.1948   19.6988 H         1 UNK         0.0000 
     39 H39         5.0875   51.9216   18.6764 H         1 UNK         0.0000 
     40 H40         6.5966   52.2994   17.4014 H         1 UNK         0.0000 
     41 H41         6.6065   55.2956   14.6816 H         1 UNK         0.0000 
     42 H42         5.4248   54.0673   15.1105 H         1 UNK         0.0000 
     43 H43         5.5557   55.5226   16.0783 H         1 UNK         0.0000 
     44 H44         9.8376   53.4769   16.6554 H         1 UNK         0.0000 
     45 H45        11.6971   54.9461   17.3196 H         1 UNK         0.0000 
     46 H46        11.2670   57.2999   17.9317 H         1 UNK         0.0000 
     47 H47         7.0933   56.7482   17.1960 H         1 UNK         0.0000 
     48 H48         6.3589   54.9495   22.0182 H         1 UNK         0.0000 
     49 H49         7.3597   55.4061   23.3615 H         1 UNK         0.0000 
     50 H50         7.2999   53.7101   22.8816 H         1 UNK         0.0000 
@<TRIPOS>BOND
     1    1    2 1    
     2    1   28 1    
     3    1   29 1    
     4    1   30 1    
     5    2    7 ar   
     6    2    3 ar   
     7    3    4 ar   
     8    3   31 1    
     9    4    5 ar   
    10    4   27 1    
    11    5    6 ar   
    12    5    9 1    
    13    6    7 ar   
    14    6    8 1    
    15    7   32 1    
    16    8   33 1    
    17    8   34 1    
    18    8   35 1    
    19    9   10 am   BACKBONE|DICT|INTERRES
    20    9   36 1    
    21   10   11 2    
    22   10   12 1    
    23   12   13 1    
    24   12   37 1    
    25   12   38 1    
    26   13   14 am   BACKBONE|DICT|INTERRES
    27   13   39 1    
    28   14   15 2    
    29   14   16 am   BACKBONE|DICT|INTERRES
    30   16   17 1    
    31   16   40 1    
    32   17   18 1    
    33   17   19 1    
    34   17   20 1    
    35   19   41 1    
    36   19   42 1    
    37   19   43 1    
    38   20   25 ar   
    39   20   21 ar   
    40   21   22 ar   
    41   21   44 1    
    42   22   23 ar   
    43   22   45 1    
    44   23   24 ar   
    45   23   46 1    
    46   24   25 ar   
    47   24   26 1    
    48   25   47 1    
    49   27   48 1    
    50   27   49 1    
    51   27   50 1    
@<TRIPOS>SUBSTRUCTURE
     1 UNK         1 GROUP             0       ****    0 ROOT    
