ZINC04316750_1466
                    3D
 Schrodinger Suite 2024-2.
 37 40  0  0  1  0            999 V2000
    0.3078   54.7904   30.8815 C   0  0  0  0  0  0
    1.1050   55.8584   30.4816 C   0  0  0  0  0  0
    2.0834   55.6604   29.5164 C   0  0  0  0  0  0
    2.2710   54.3976   28.9386 C   0  0  0  0  0  0
    1.4037   53.3356   29.2792 C   0  0  0  0  0  0
    0.4434   53.5494   30.2774 C   0  0  0  0  0  0
    1.5243   51.9287   28.6955 C   0  0  0  0  0  0
    0.4055   51.2436   28.9104 F   0  0  0  0  0  0
    1.7015   51.9260   27.3826 F   0  0  0  0  0  0
    2.5467   51.3057   29.2787 F   0  0  0  0  0  0
    3.3897   54.2352   28.0938 N   0  0  0  0  0  0
    3.4740   54.1385   26.7190 C   0  0  0  0  0  0
    4.8377   54.1291   26.4569 C   0  0  0  0  0  0
    5.5186   54.1608   27.5897 N   0  0  0  0  0  0
    4.6173   54.2429   28.6325 N   0  0  0  0  0  0
    5.4762   54.1287   25.1563 C   0  0  0  0  0  0
    4.8925   54.2055   23.9885 N   0  0  0  0  0  0
    5.9206   54.2729   23.1680 C   0  0  0  0  0  0
    7.1043   54.1502   23.7242 N   0  0  0  0  0  0
    6.8275   54.0962   25.0857 O   0  0  0  0  0  0
    5.7597   54.5237   21.7043 C   0  0  0  0  0  0
    6.7064   55.2965   21.0127 C   0  0  0  0  0  0
    6.5283   55.5206   19.6468 C   0  0  0  0  0  0
    5.4738   55.0268   18.9513 N   0  0  0  0  0  0
    4.5622   54.2830   19.6272 C   0  0  0  0  0  0
    4.6637   54.0160   20.9938 C   0  0  0  0  0  0
    2.3942   54.0965   25.8808 N   0  0  0  0  0  0
   -0.4066   54.8965   31.6760 H   0  0  0  0  0  0
    1.0070   56.8310   30.9400 H   0  0  0  0  0  0
    2.7146   56.4955   29.2593 H   0  0  0  0  0  0
   -0.1943   52.7452   30.6206 H   0  0  0  0  0  0
    7.5696   55.7019   21.5218 H   0  0  0  0  0  0
    7.2439   56.1008   19.0828 H   0  0  0  0  0  0
    3.7317   53.9004   19.0509 H   0  0  0  0  0  0
    3.9074   53.4217   21.4857 H   0  0  0  0  0  0
    2.5112   54.0328   24.8790 H   0  0  0  0  0  0
    1.4552   53.9835   26.2362 H   0  0  0  0  0  0
  1  6  2  0  0  0
  1  2  1  0  0  0
  1 28  1  0  0  0
  2  3  2  0  0  0
  2 29  1  0  0  0
  3  4  1  0  0  0
  3 30  1  0  0  0
  4  5  2  0  0  0
  4 11  1  0  0  0
  5  6  1  0  0  0
  5  7  1  0  0  0
  6 31  1  0  0  0
  7  8  1  0  0  0
  7  9  1  0  0  0
  7 10  1  0  0  0
 11 15  1  0  0  0
 11 12  1  0  0  0
 12 13  2  0  0  0
 12 27  1  0  0  0
 13 14  1  0  0  0
 13 16  1  0  0  0
 14 15  2  0  0  0
 16 20  1  0  0  0
 16 17  2  0  0  0
 17 18  1  0  0  0
 18 19  2  0  0  0
 18 21  1  0  0  0
 19 20  1  0  0  0
 21 26  2  0  0  0
 21 22  1  0  0  0
 22 23  2  0  0  0
 22 32  1  0  0  0
 23 24  1  0  0  0
 23 33  1  0  0  0
 24 25  2  0  0  0
 25 26  1  0  0  0
 25 34  1  0  0  0
 26 35  1  0  0  0
 27 36  1  0  0  0
 27 37  1  0  0  0
M  END
> <i_i_glide_confnum>
4

> <i_i_glide_lignum>
1467

> <i_i_glide_posenum>
344

> <i_i_glide_rotatable_bonds>
4

> <i_m_Source_File_Index>
4746

> <b_m_subgroup_collapsed>
0

> <r_i_docking_score>
-6.59274

> <r_i_glide_ecoul>
-1.89558

> <r_i_glide_eff_state_penalty>
0

> <r_i_glide_einternal>
5.81586

> <r_i_glide_emodel>
-57.1993

> <r_i_glide_energy>
-42.8547

> <r_i_glide_erotb>
0.416015

> <r_i_glide_esite>
-0.0132783

> <r_i_glide_evdw>
-40.9591

> <r_i_glide_gscore>
-6.59274

> <r_i_glide_hbond>
0

> <r_i_glide_ligand_efficiency>
-0.244175

> <r_i_glide_ligand_efficiency_ln>
-1.53468

> <r_i_glide_ligand_efficiency_sa>
-0.732526

> <r_i_glide_lipo>
-2.86552

> <r_i_glide_metal>
0

> <r_i_glide_rewards>
-1.79766

> <s_i_glide_gridfile>
wee1_glide-grid

> <s_m_Source_File>
wee1_decoys_glide_SP.sdf

> <s_m_Source_Path>
/Users/zhangxujun/Desktop

> <s_m_entry_id>
5021

> <s_m_entry_name>
wee1_decoys_glide_SP.4746

> <s_m_subgroup_title>
wee1_decoys_glide_SP

> <s_m_subgroupid>
wee1_decoys_glide_SP


$$$$
