@<TRIPOS>MOLECULE
ZINC11730794_4371
46   49    1
SMALL
USER_CHARGES


@<TRIPOS>ATOM
      1 C1          4.5116   57.8079   17.0372 C.ar      1 UNK         0.0000 
      2 C2          5.7230   58.4964   16.9688 C.ar      1 UNK         0.0000 
      3 C3          6.8836   57.9523   17.5337 C.ar      1 UNK         0.0000 
      4 C4          6.8115   56.7001   18.1580 C.ar      1 UNK         0.0000 
      5 C5          5.5962   56.0130   18.2362 C.ar      1 UNK         0.0000 
      6 C6          4.4434   56.5717   17.6789 C.ar      1 UNK         0.0000 
      7 S7          5.5440   54.3921   18.9950 S.o2      1 UNK         0.0000 
      8 O8          6.7026   53.6553   18.4796 O.2       1 UNK         0.0000 
      9 O9          4.1792   53.8740   18.8546 O.2       1 UNK         0.0000 
     10 C10         5.8667   54.6523   20.7665 C.ar      1 UNK         0.0000 
     11 C11         5.1490   54.2041   21.8860 C.ar      1 UNK         0.0000 
     12 N12         5.9038   54.6542   22.9749 N.pl3     1 UNK         0.0000 
     13 N13         6.9875   55.2989   22.5016 N.2       1 UNK         0.0000 
     14 N14         6.9491   55.2983   21.1316 N.2       1 UNK         0.0000 
     15 C15         5.7153   54.5832   24.4021 C.ar      1 UNK         0.0000 
     16 C16         6.6051   55.2484   25.2668 C.ar      1 UNK         0.0000 
     17 C17         6.4347   55.1900   26.6473 C.ar      1 UNK         0.0000 
     18 C18         5.3706   54.4947   27.1965 C.ar      1 UNK         0.0000 
     19 C19         4.4745   53.8363   26.3693 C.ar      1 UNK         0.0000 
     20 C20         4.6541   53.8772   24.9892 C.ar      1 UNK         0.0000 
     21 N21         5.2146   54.4581   28.5790 N.pl3     1 UNK         0.0000 
     22 C22         3.8929   53.4016   21.9097 C.ar      1 UNK         0.0000 
     23 C23         2.7176   53.9055   22.4745 C.ar      1 UNK         0.0000 
     24 C24         1.5696   53.1192   22.5020 C.ar      1 UNK         0.0000 
     25 C25         1.5839   51.8505   21.9262 C.ar      1 UNK         0.0000 
     26 C26         2.7414   51.3574   21.3273 C.ar      1 UNK         0.0000 
     27 C27         3.8969   52.1333   21.3198 C.ar      1 UNK         0.0000 
     28 Cl28        0.1527   50.8867   21.9483 Cl        1 UNK         0.0000 
     29 C29         8.2105   58.7080   17.4535 C.3       1 UNK         0.0000 
     30 F30         9.2494   57.8728   17.5084 F         1 UNK         0.0000 
     31 F31         8.3039   59.4030   16.3190 F         1 UNK         0.0000 
     32 F32         8.3042   59.5538   18.4799 F         1 UNK         0.0000 
     33 H33         3.6231   58.2459   16.6047 H         1 UNK         0.0000 
     34 H34         5.7514   59.4642   16.4838 H         1 UNK         0.0000 
     35 H35         7.7018   56.2515   18.5772 H         1 UNK         0.0000 
     36 H36         3.4996   56.0467   17.7271 H         1 UNK         0.0000 
     37 H37         7.4391   55.8168   24.8804 H         1 UNK         0.0000 
     38 H38         7.1088   55.6965   27.3105 H         1 UNK         0.0000 
     39 H39         3.6525   53.2731   26.7858 H         1 UNK         0.0000 
     40 H40         3.9634   53.2933   24.4204 H         1 UNK         0.0000 
     41 H41         5.9808   54.8239   29.1312 H         1 UNK         0.0000 
     42 H42         4.6328   53.7290   28.9628 H         1 UNK         0.0000 
     43 H43         2.7021   54.8946   22.9077 H         1 UNK         0.0000 
     44 H44         0.6706   53.4981   22.9616 H         1 UNK         0.0000 
     45 H45         2.7456   50.3803   20.8659 H         1 UNK         0.0000 
     46 H46         4.7896   51.7523   20.8434 H         1 UNK         0.0000 
@<TRIPOS>BOND
     1    1    6 ar   
     2    1    2 ar   
     3    1   33 1    
     4    2    3 ar   
     5    2   34 1    
     6    3    4 ar   
     7    3   29 1    
     8    4    5 ar   
     9    4   35 1    
    10    5    6 ar   
    11    5    7 1    
    12    6   36 1    
    13    7    8 2    
    14    7    9 2    
    15    7   10 1    
    16   10   14 ar   
    17   10   11 ar   
    18   11   12 ar   
    19   11   22 1    
    20   12   13 ar   
    21   12   15 1    
    22   13   14 ar   
    23   15   20 ar   
    24   15   16 ar   
    25   16   17 ar   
    26   16   37 1    
    27   17   18 ar   
    28   17   38 1    
    29   18   19 ar   
    30   18   21 1    
    31   19   20 ar   
    32   19   39 1    
    33   20   40 1    
    34   21   41 1    
    35   21   42 1    
    36   22   27 ar   
    37   22   23 ar   
    38   23   24 ar   
    39   23   43 1    
    40   24   25 ar   
    41   24   44 1    
    42   25   26 ar   
    43   25   28 1    
    44   26   27 ar   
    45   26   45 1    
    46   27   46 1    
    47   29   30 1    
    48   29   31 1    
    49   29   32 1    
@<TRIPOS>SUBSTRUCTURE
     1 UNK         1 GROUP             0       ****    0 ROOT    
