@<TRIPOS>MOLECULE
ZINC13084773_2751
64   67    1
SMALL
USER_CHARGES


@<TRIPOS>ATOM
      1 C1          2.7617   52.0886   17.8605 C.3       1 UNK         0.0000 
      2 C2          3.4536   52.8646   16.7440 C.ar      1 UNK         0.0000 
      3 C3          3.0986   52.5830   15.4208 C.ar      1 UNK         0.0000 
      4 C4          3.7124   53.2515   14.3645 C.ar      1 UNK         0.0000 
      5 C5          4.6900   54.2079   14.6220 C.ar      1 UNK         0.0000 
      6 C6          5.0567   54.4964   15.9363 C.ar      1 UNK         0.0000 
      7 C7          4.4443   53.8309   17.0130 C.ar      1 UNK         0.0000 
      8 N8          4.7793   54.0577   18.3667 N.am      1 UNK         0.0000 
      9 C9          5.4933   55.0493   18.9460 C.2       1 UNK         0.0000 
     10 O10         6.0437   55.9522   18.3074 O.2       1 UNK         0.0000 
     11 N11         5.6320   54.9324   20.2984 N.am      1 UNK         0.0000 
     12 C12         6.5100   55.8960   20.9977 C.3       1 UNK         0.0000 
     13 C13         7.1355   55.2414   22.2536 C.3       1 UNK         0.0000 
     14 N14         6.0893   54.5812   23.0584 N.am      1 UNK         0.0000 
     15 C15         5.2756   53.5899   22.3292 C.3       1 UNK         0.0000 
     16 C16         4.5903   54.3056   21.1473 C.3       1 UNK         0.0000 
     17 C17         5.9369   54.8949   24.3776 C.2       1 UNK         0.0000 
     18 O18         6.6776   55.6997   24.9504 O.2       1 UNK         0.0000 
     19 C19         4.8006   54.2177   25.2046 C.3       1 UNK         0.0000 
     20 H20         4.9264   53.1563   25.0420 H         1 UNK         0.0000 
     21 C21         3.3673   54.6450   24.7786 C.3       1 UNK         0.0000 
     22 C22         2.3035   53.5555   25.0004 C.ar      1 UNK         0.0000 
     23 C23         1.9092   52.7800   23.9039 C.ar      1 UNK         0.0000 
     24 C24         1.0049   51.7364   24.0405 C.ar      1 UNK         0.0000 
     25 C25         0.4572   51.4341   25.2795 C.ar      1 UNK         0.0000 
     26 C26         0.7948   52.2025   26.4180 C.ar      1 UNK         0.0000 
     27 C27         1.7113   53.2979   26.2879 C.ar      1 UNK         0.0000 
     28 C28         1.9563   54.0893   27.4486 C.ar      1 UNK         0.0000 
     29 C29         1.3700   53.7775   28.6732 C.ar      1 UNK         0.0000 
     30 C30         0.5262   52.6815   28.7941 C.ar      1 UNK         0.0000 
     31 C31         0.2294   51.8973   27.6840 C.ar      1 UNK         0.0000 
     32 N32         4.9481   54.3854   26.6497 N.am      1 UNK         0.0000 
     33 C33         5.9480   53.9313   27.4083 C.2       1 UNK         0.0000 
     34 O34         6.9104   53.2983   26.9872 O.2       1 UNK         0.0000 
     35 C35         5.8341   54.2543   28.8798 C.3       1 UNK         0.0000 
     36 H36         2.1856   51.2456   17.4776 H         1 UNK         0.0000 
     37 H37         3.5010   51.6777   18.5477 H         1 UNK         0.0000 
     38 H38         2.1023   52.7438   18.4287 H         1 UNK         0.0000 
     39 H39         2.3493   51.8349   15.2070 H         1 UNK         0.0000 
     40 H40         3.4339   53.0204   13.3473 H         1 UNK         0.0000 
     41 H41         5.1724   54.7200   13.8030 H         1 UNK         0.0000 
     42 H42         5.8310   55.2309   16.0815 H         1 UNK         0.0000 
     43 H43         4.3754   53.3776   18.9938 H         1 UNK         0.0000 
     44 H44         7.3247   56.2358   20.3571 H         1 UNK         0.0000 
     45 H45         5.9016   56.7386   21.3199 H         1 UNK         0.0000 
     46 H46         7.6797   56.0023   22.8136 H         1 UNK         0.0000 
     47 H47         7.8648   54.4967   21.9480 H         1 UNK         0.0000 
     48 H48         5.9046   52.7896   21.9467 H         1 UNK         0.0000 
     49 H49         4.5355   53.0854   22.9453 H         1 UNK         0.0000 
     50 H50         3.9439   53.6068   20.6153 H         1 UNK         0.0000 
     51 H51         3.9620   55.0956   21.5602 H         1 UNK         0.0000 
     52 H52         3.3324   54.9141   23.7246 H         1 UNK         0.0000 
     53 H53         3.1045   55.5659   25.2804 H         1 UNK         0.0000 
     54 H54         2.3221   52.9755   22.9272 H         1 UNK         0.0000 
     55 H55         0.7337   51.1470   23.1757 H         1 UNK         0.0000 
     56 H56        -0.2337   50.6076   25.3792 H         1 UNK         0.0000 
     57 H57         2.5772   54.9656   27.3883 H         1 UNK         0.0000 
     58 H58         1.5710   54.3969   29.5353 H         1 UNK         0.0000 
     59 H59         0.0813   52.4473   29.7523 H         1 UNK         0.0000 
     60 H60        -0.4456   51.0570   27.7822 H         1 UNK         0.0000 
     61 H61         4.2141   54.9039   27.0996 H         1 UNK         0.0000 
     62 H62         5.5192   55.2892   29.0472 H         1 UNK         0.0000 
     63 H63         5.1122   53.5818   29.3462 H         1 UNK         0.0000 
     64 H64         6.8319   54.1049   29.2840 H         1 UNK         0.0000 
@<TRIPOS>BOND
     1    1    2 1    
     2    1   36 1    
     3    1   37 1    
     4    1   38 1    
     5    2    7 ar   
     6    2    3 ar   
     7    3    4 ar   
     8    3   39 1    
     9    4    5 ar   
    10    4   40 1    
    11    5    6 ar   
    12    5   41 1    
    13    6    7 ar   
    14    6   42 1    
    15    7    8 1    
    16    8    9 am   BACKBONE|DICT|INTERRES
    17    8   43 1    
    18    9   10 2    
    19    9   11 am   BACKBONE|DICT|INTERRES
    20   11   16 1    
    21   11   12 1    
    22   12   13 1    
    23   12   44 1    
    24   12   45 1    
    25   13   14 1    
    26   13   46 1    
    27   13   47 1    
    28   14   15 1    
    29   14   17 am   BACKBONE|DICT|INTERRES
    30   15   16 1    
    31   15   48 1    
    32   15   49 1    
    33   16   50 1    
    34   16   51 1    
    35   17   18 2    
    36   17   19 1    
    37   19   20 1    
    38   19   21 1    
    39   19   32 1    
    40   21   22 1    
    41   21   52 1    
    42   21   53 1    
    43   22   27 ar   
    44   22   23 ar   
    45   23   24 ar   
    46   23   54 1    
    47   24   25 ar   
    48   24   55 1    
    49   25   26 ar   
    50   25   56 1    
    51   26   31 ar   
    52   26   27 ar   
    53   27   28 ar   
    54   28   29 ar   
    55   28   57 1    
    56   29   30 ar   
    57   29   58 1    
    58   30   31 ar   
    59   30   59 1    
    60   31   60 1    
    61   32   33 am   BACKBONE|DICT|INTERRES
    62   32   61 1    
    63   33   34 2    
    64   33   35 1    
    65   35   62 1    
    66   35   63 1    
    67   35   64 1    
@<TRIPOS>SUBSTRUCTURE
     1 UNK         1 GROUP             0       ****    0 ROOT    
