ZINC39673277_3077
                    3D
 Schrodinger Suite 2024-2.
 60 63  0  0  1  0            999 V2000
    5.5589   54.0971   28.4782 C   0  0  0  0  0  0
    4.2254   53.9707   28.8687 C   0  0  0  0  0  0
    3.1957   53.9808   27.9143 C   0  0  0  0  0  0
    3.5361   54.1661   26.5645 C   0  0  0  0  0  0
    4.8713   54.2796   26.1743 C   0  0  0  0  0  0
    5.8830   54.2386   27.1307 C   0  0  0  0  0  0
    5.3131   54.4964   24.3370 Br  0  0  0  0  0  0
    1.7536   53.8666   28.3626 C   0  0  0  0  0  0
    1.3932   54.5138   29.3494 O   0  0  0  0  0  0
    0.8999   53.0533   27.6812 N   0  0  0  0  0  0
   -0.4955   52.8929   28.0853 C   0  0  0  0  0  0
   -0.9139   51.5275   27.4905 C   0  0  2  0  0  0
   -0.6972   50.7635   28.2403 H   0  0  0  0  0  0
   -0.0082   51.3093   26.2501 C   0  0  0  0  0  0
    1.2797   52.0372   26.7006 C   0  0  0  0  0  0
   -0.4544   51.9937   24.9114 C   0  0  0  0  0  0
   -1.5417   51.2461   24.0931 C   0  0  0  0  0  0
   -1.1789   49.7553   23.9423 N   0  3  0  0  0  0
   -0.8626   49.0646   25.2816 C   0  0  0  0  0  0
    0.3043   49.8222   25.9226 C   0  0  0  0  0  0
   -2.4397   51.5427   27.2393 C   0  0  0  0  0  0
   -2.9953   52.4967   26.6921 O   0  0  0  0  0  0
   -3.1194   50.4966   27.7230 N   0  0  0  0  0  0
   -4.5723   50.3385   27.7484 C   0  0  0  0  0  0
   -5.1910   50.6715   29.1034 C   0  0  0  0  0  0
   -4.6111   50.1858   30.2805 C   0  0  0  0  0  0
   -5.1748   50.4954   31.5135 C   0  0  0  0  0  0
   -6.3233   51.2894   31.5785 C   0  0  0  0  0  0
   -6.8930   51.7864   30.4079 C   0  0  0  0  0  0
   -6.3310   51.4774   29.1720 C   0  0  0  0  0  0
   -6.8805   51.6433   32.7839 O   0  0  0  0  0  0
   -7.4437   50.5805   33.5519 C   0  0  0  0  0  0
   -6.5305   49.7358   34.0375 F   0  0  0  0  0  0
   -8.4012   49.9248   32.8907 F   0  0  0  0  0  0
    6.3466   54.0960   29.2177 H   0  0  0  0  0  0
    3.9984   53.8630   29.9208 H   0  0  0  0  0  0
    2.7732   54.2476   25.8033 H   0  0  0  0  0  0
    6.9169   54.3271   26.8306 H   0  0  0  0  0  0
   -1.0287   53.6957   27.5828 H   0  0  0  0  0  0
   -0.6417   52.8858   29.1679 H   0  0  0  0  0  0
    1.8631   51.3199   27.2824 H   0  0  0  0  0  0
    1.9352   52.3216   25.8809 H   0  0  0  0  0  0
   -0.7423   53.0309   25.0863 H   0  0  0  0  0  0
    0.4115   52.0650   24.2502 H   0  0  0  0  0  0
   -2.5302   51.2568   24.5490 H   0  0  0  0  0  0
   -1.6393   51.6454   23.0827 H   0  0  0  0  0  0
   -1.9361   49.2692   23.4821 H   0  0  0  0  0  0
   -1.7674   49.0590   25.8894 H   0  0  0  0  0  0
   -0.5961   48.0326   25.0469 H   0  0  0  0  0  0
    1.1379   49.7609   25.2255 H   0  0  0  0  0  0
    0.6426   49.2922   26.8159 H   0  0  0  0  0  0
   -2.5789   49.7220   28.1066 H   0  0  0  0  0  0
   -4.8000   49.2968   27.5189 H   0  0  0  0  0  0
   -5.0436   50.9394   26.9672 H   0  0  0  0  0  0
   -3.7160   49.5778   30.2462 H   0  0  0  0  0  0
   -4.7005   50.1415   32.4190 H   0  0  0  0  0  0
   -7.7752   52.4075   30.4614 H   0  0  0  0  0  0
   -6.7872   51.8640   28.2718 H   0  0  0  0  0  0
   -7.9362   51.0154   34.4220 H   0  0  0  0  0  0
   -0.3718   49.6734   23.3390 H   0  0  0  0  0  0
  1  6  2  0  0  0
  1  2  1  0  0  0
  1 35  1  0  0  0
  2  3  2  0  0  0
  2 36  1  0  0  0
  3  4  1  0  0  0
  3  8  1  0  0  0
  4  5  2  0  0  0
  4 37  1  0  0  0
  5  6  1  0  0  0
  5  7  1  0  0  0
  6 38  1  0  0  0
  8  9  2  0  0  0
  8 10  1  0  0  0
 10 15  1  0  0  0
 10 11  1  0  0  0
 11 12  1  0  0  0
 11 39  1  0  0  0
 11 40  1  0  0  0
 12 13  1  0  0  0
 12 14  1  0  0  0
 12 21  1  0  0  0
 14 20  1  0  0  0
 14 15  1  0  0  0
 14 16  1  0  0  0
 15 41  1  0  0  0
 15 42  1  0  0  0
 16 17  1  0  0  0
 16 43  1  0  0  0
 16 44  1  0  0  0
 17 18  1  0  0  0
 17 45  1  0  0  0
 17 46  1  0  0  0
 18 19  1  0  0  0
 18 47  1  0  0  0
 18 60  1  0  0  0
 19 20  1  0  0  0
 19 48  1  0  0  0
 19 49  1  0  0  0
 20 50  1  0  0  0
 20 51  1  0  0  0
 21 22  2  0  0  0
 21 23  1  0  0  0
 23 24  1  0  0  0
 23 52  1  0  0  0
 24 25  1  0  0  0
 24 53  1  0  0  0
 24 54  1  0  0  0
 25 30  2  0  0  0
 25 26  1  0  0  0
 26 27  2  0  0  0
 26 55  1  0  0  0
 27 28  1  0  0  0
 27 56  1  0  0  0
 28 29  2  0  0  0
 28 31  1  0  0  0
 29 30  1  0  0  0
 29 57  1  0  0  0
 30 58  1  0  0  0
 31 32  1  0  0  0
 32 33  1  0  0  0
 32 34  1  0  0  0
 32 59  1  0  0  0
M  CHG  1  18   1
M  END
> <i_i_glide_confnum>
155

> <i_i_glide_lignum>
3078

> <i_i_glide_posenum>
341

> <i_i_glide_rotatable_bonds>
8

> <i_m_Source_File_Index>
5898

> <b_m_subgroup_collapsed>
0

> <r_i_docking_score>
-4.08004

> <r_i_glide_ecoul>
-5.99983

> <r_i_glide_eff_state_penalty>
0

> <r_i_glide_einternal>
4.52272

> <r_i_glide_emodel>
-54.0719

> <r_i_glide_energy>
-46.8425

> <r_i_glide_erotb>
0.525628

> <r_i_glide_esite>
-0.163833

> <r_i_glide_evdw>
-40.8427

> <r_i_glide_gscore>
-4.08004

> <r_i_glide_hbond>
-0.16

> <r_i_glide_ligand_efficiency>
-0.123638

> <r_i_glide_ligand_efficiency_ln>
-0.90738

> <r_i_glide_ligand_efficiency_sa>
-0.396572

> <r_i_glide_lipo>
-2.01906

> <r_i_glide_metal>
0

> <r_i_glide_rewards>
0.679331

> <s_i_glide_gridfile>
wee1_glide-grid

> <s_m_Source_File>
wee1_decoys_glide_SP.sdf

> <s_m_Source_Path>
/Users/zhangxujun/Desktop

> <s_m_entry_id>
6173

> <s_m_entry_name>
wee1_decoys_glide_SP.5898

> <s_m_subgroup_title>
wee1_decoys_glide_SP

> <s_m_subgroupid>
wee1_decoys_glide_SP


$$$$
