@<TRIPOS>MOLECULE
ZINC39678375_900
84   88    1
SMALL
USER_CHARGES


@<TRIPOS>ATOM
      1 C1          5.8284   54.9010   26.9336 C.3       1 UNK         0.0000 
      2 C2          5.0185   53.6078   27.1698 C.3       1 UNK         0.0000 
      3 C3          5.2316   53.1354   28.6224 C.3       1 UNK         0.0000 
      4 C4          3.4924   53.6704   26.8253 C.3       1 UNK         0.0000 
      5 H5          3.1106   52.7125   27.1564 H         1 UNK         0.0000 
      6 C6          3.1474   53.7692   25.3120 C.2       1 UNK         0.0000 
      7 O7          3.8593   54.4609   24.5803 O.2       1 UNK         0.0000 
      8 N8          2.1064   53.0576   24.8006 N.am      1 UNK         0.0000 
      9 C9          1.8420   53.0300   23.3601 C.3       1 UNK         0.0000 
     10 C10         0.4130   52.4564   23.2530 C.3       1 UNK         0.0000 
     11 H11        -0.2935   53.2873   23.2607 H         1 UNK         0.0000 
     12 C12         0.2195   51.5827   24.5308 C.3       1 UNK         0.0000 
     13 C13         1.0792   52.3458   25.5713 C.3       1 UNK         0.0000 
     14 C14        -1.2829   51.4625   24.8970 C.3       1 UNK         0.0000 
     15 C15        -1.5035   50.7230   26.2272 C.3       1 UNK         0.0000 
     16 N16        -0.9338   49.2970   26.0817 N.4       1 UNK         0.0000 
     17 C17         0.5520   49.2631   25.6677 C.3       1 UNK         0.0000 
     18 C18         0.7213   50.1020   24.3791 C.3       1 UNK         0.0000 
     19 C19         0.2888   51.6712   21.9194 C.2       1 UNK         0.0000 
     20 O20         1.2531   51.0574   21.4624 O.2       1 UNK         0.0000 
     21 N21        -0.9105   51.6969   21.3096 N.am      1 UNK         0.0000 
     22 C22        -1.2738   50.9074   20.1251 C.3       1 UNK         0.0000 
     23 C23        -0.4819   51.2115   18.8459 C.ar      1 UNK         0.0000 
     24 C24         0.6411   50.4204   18.5746 C.ar      1 UNK         0.0000 
     25 C25         1.4332   50.6674   17.4605 C.ar      1 UNK         0.0000 
     26 C26         1.1078   51.7004   16.5908 C.ar      1 UNK         0.0000 
     27 C27        -0.0301   52.4675   16.8252 C.ar      1 UNK         0.0000 
     28 C28        -0.8494   52.2340   17.9411 C.ar      1 UNK         0.0000 
     29 N29        -2.0590   52.9111   18.0748 N.pl3     1 UNK         0.0000 
     30 C30        -2.2016   54.3469   17.7621 C.3       1 UNK         0.0000 
     31 C31        -2.6874   54.6641   16.3265 C.3       1 UNK         0.0000 
     32 C32        -3.9447   53.8740   15.9445 C.3       1 UNK         0.0000 
     33 C33        -3.7508   52.3898   16.2806 C.3       1 UNK         0.0000 
     34 C34        -3.3018   52.1866   17.7436 C.3       1 UNK         0.0000 
     35 O35         2.9113   54.7999   27.4899 O.3       1 UNK         0.0000 
     36 C36         2.0979   54.6638   28.5990 C.ar      1 UNK         0.0000 
     37 C37         1.4874   53.4701   29.0217 C.ar      1 UNK         0.0000 
     38 C38         0.6908   53.4563   30.1626 C.ar      1 UNK         0.0000 
     39 C39         0.5045   54.6295   30.8841 C.ar      1 UNK         0.0000 
     40 C40         1.1044   55.8196   30.4805 C.ar      1 UNK         0.0000 
     41 C41         1.8872   55.8336   29.3310 C.ar      1 UNK         0.0000 
     42 H42         5.5073   55.6966   27.6016 H         1 UNK         0.0000 
     43 H43         6.8884   54.7357   27.1298 H         1 UNK         0.0000 
     44 H44         5.7562   55.2738   25.9141 H         1 UNK         0.0000 
     45 H45         5.4679   52.8541   26.5259 H         1 UNK         0.0000 
     46 H46         4.7710   53.8229   29.3330 H         1 UNK         0.0000 
     47 H47         4.8058   52.1461   28.7929 H         1 UNK         0.0000 
     48 H48         6.2908   53.0808   28.8731 H         1 UNK         0.0000 
     49 H49         1.9020   54.0151   22.8912 H         1 UNK         0.0000 
     50 H50         2.5857   52.3409   22.9552 H         1 UNK         0.0000 
     51 H51         1.4225   51.7183   26.3892 H         1 UNK         0.0000 
     52 H52         0.4558   53.1207   26.0181 H         1 UNK         0.0000 
     53 H53        -1.7091   52.4612   25.0058 H         1 UNK         0.0000 
     54 H54        -1.8506   50.9946   24.0909 H         1 UNK         0.0000 
     55 H55        -0.9936   51.1790   27.0780 H         1 UNK         0.0000 
     56 H56        -2.5595   50.6010   26.4756 H         1 UNK         0.0000 
     57 H57        -1.0617   48.8272   26.9951 H         1 UNK         0.0000 
     58 H58         1.1044   49.6302   26.5297 H         1 UNK         0.0000 
     59 H59         0.8063   48.2118   25.5180 H         1 UNK         0.0000 
     60 H60         0.2067   49.5841   23.5686 H         1 UNK         0.0000 
     61 H61         1.7733   50.0932   24.0845 H         1 UNK         0.0000 
     62 H62        -1.6550   52.2166   21.7453 H         1 UNK         0.0000 
     63 H63        -1.1762   49.8467   20.3672 H         1 UNK         0.0000 
     64 H64        -2.3405   51.0331   19.9545 H         1 UNK         0.0000 
     65 H65         0.9271   49.6249   19.2475 H         1 UNK         0.0000 
     66 H66         2.3043   50.0586   17.2788 H         1 UNK         0.0000 
     67 H67         1.7287   51.8912   15.7277 H         1 UNK         0.0000 
     68 H68        -0.2730   53.2330   16.1097 H         1 UNK         0.0000 
     69 H69        -2.8955   54.7736   18.4815 H         1 UNK         0.0000 
     70 H70        -1.2505   54.8469   17.9553 H         1 UNK         0.0000 
     71 H71        -2.9015   55.7313   16.2553 H         1 UNK         0.0000 
     72 H72        -1.8935   54.5061   15.5987 H         1 UNK         0.0000 
     73 H73        -4.1629   53.9991   14.8829 H         1 UNK         0.0000 
     74 H74        -4.8085   54.2677   16.4816 H         1 UNK         0.0000 
     75 H75        -3.0305   51.9236   15.6058 H         1 UNK         0.0000 
     76 H76        -4.6877   51.8573   16.1130 H         1 UNK         0.0000 
     77 H77        -3.1791   51.1189   17.9264 H         1 UNK         0.0000 
     78 H78        -4.0908   52.4969   18.4277 H         1 UNK         0.0000 
     79 H79         1.5979   52.5392   28.4945 H         1 UNK         0.0000 
     80 H80         0.2221   52.5401   30.4941 H         1 UNK         0.0000 
     81 H81        -0.0978   54.6089   31.7797 H         1 UNK         0.0000 
     82 H82         0.9650   56.7267   31.0514 H         1 UNK         0.0000 
     83 H83         2.3483   56.7571   29.0129 H         1 UNK         0.0000 
     84 H84        -1.4867   48.7721   25.4202 H         1 UNK         0.0000 
@<TRIPOS>BOND
     1    1    2 1    
     2    1   42 1    
     3    1   43 1    
     4    1   44 1    
     5    2    3 1    
     6    2    4 1    
     7    2   45 1    
     8    3   46 1    
     9    3   47 1    
    10    3   48 1    
    11    4    5 1    
    12    4    6 1    
    13    4   35 1    
    14    6    7 2    
    15    6    8 am   BACKBONE|DICT|INTERRES
    16    8   13 1    
    17    8    9 1    
    18    9   10 1    
    19    9   49 1    
    20    9   50 1    
    21   10   11 1    
    22   10   12 1    
    23   10   19 1    
    24   12   18 1    
    25   12   13 1    
    26   12   14 1    
    27   13   51 1    
    28   13   52 1    
    29   14   15 1    
    30   14   53 1    
    31   14   54 1    
    32   15   16 1    
    33   15   55 1    
    34   15   56 1    
    35   16   17 1    
    36   16   57 1    
    37   16   84 1    
    38   17   18 1    
    39   17   58 1    
    40   17   59 1    
    41   18   60 1    
    42   18   61 1    
    43   19   20 2    
    44   19   21 am   BACKBONE|DICT|INTERRES
    45   21   22 1    
    46   21   62 1    
    47   22   23 1    
    48   22   63 1    
    49   22   64 1    
    50   23   28 ar   
    51   23   24 ar   
    52   24   25 ar   
    53   24   65 1    
    54   25   26 ar   
    55   25   66 1    
    56   26   27 ar   
    57   26   67 1    
    58   27   28 ar   
    59   27   68 1    
    60   28   29 1    
    61   29   34 1    
    62   29   30 1    
    63   30   31 1    
    64   30   69 1    
    65   30   70 1    
    66   31   32 1    
    67   31   71 1    
    68   31   72 1    
    69   32   33 1    
    70   32   73 1    
    71   32   74 1    
    72   33   34 1    
    73   33   75 1    
    74   33   76 1    
    75   34   77 1    
    76   34   78 1    
    77   35   36 1    
    78   36   41 ar   
    79   36   37 ar   
    80   37   38 ar   
    81   37   79 1    
    82   38   39 ar   
    83   38   80 1    
    84   39   40 ar   
    85   39   81 1    
    86   40   41 ar   
    87   40   82 1    
    88   41   83 1    
@<TRIPOS>SUBSTRUCTURE
     1 UNK         1 GROUP             0       ****    0 ROOT    
