@<TRIPOS>MOLECULE
ZINC35778135_5690
70   73    1
SMALL
USER_CHARGES


@<TRIPOS>ATOM
      1 C1         -0.9215   51.2115   27.4092 C.3       1 UNK         0.0000 
      2 N2         -0.1159   51.8826   26.4004 N.pl3     1 UNK         0.0000 
      3 C3         -0.3517   52.0209   25.0626 C.ar      1 UNK         0.0000 
      4 C4          0.7411   52.6973   24.5171 C.ar      1 UNK         0.0000 
      5 C5          1.5530   52.9844   25.6659 C.ar      1 UNK         0.0000 
      6 N6          1.0020   52.4947   26.7637 N.2       1 UNK         0.0000 
      7 C7          2.8935   53.6871   25.8194 C.ar      1 UNK         0.0000 
      8 C8          3.5513   53.6953   27.0652 C.ar      1 UNK         0.0000 
      9 C9          4.8144   54.2580   27.2161 C.ar      1 UNK         0.0000 
     10 C10         5.4470   54.8256   26.1184 C.ar      1 UNK         0.0000 
     11 C11         4.8114   54.8482   24.8816 C.ar      1 UNK         0.0000 
     12 C12         3.5344   54.3055   24.7418 C.ar      1 UNK         0.0000 
     13 C13         0.8994   53.0276   23.0277 C.3       1 UNK         0.0000 
     14 N14         1.8145   52.0621   22.1973 N.4       1 UNK         0.0000 
     15 C15         1.9601   50.6234   22.7752 C.3       1 UNK         0.0000 
     16 C16         0.6658   49.8169   22.5269 C.3       1 UNK         0.0000 
     17 O17         0.6048   48.6113   23.2817 O.3       1 UNK         0.0000 
     18 C18         0.3039   48.7090   24.6666 C.3       1 UNK         0.0000 
     19 C19         3.1452   52.7158   21.7147 C.3       1 UNK         0.0000 
     20 C20         3.5887   52.2733   20.2921 C.3       1 UNK         0.0000 
     21 H21         2.7829   52.4706   19.5821 H         1 UNK         0.0000 
     22 C22         4.8415   53.0380   19.8149 C.3       1 UNK         0.0000 
     23 O23         4.5172   54.3743   19.4536 O.3       1 UNK         0.0000 
     24 C24         5.6435   55.1391   19.0278 C.3       1 UNK         0.0000 
     25 C25         5.1867   56.3121   18.1920 C.2       1 UNK         0.0000 
     26 C26         4.0504   56.5840   17.4401 C.2       1 UNK         0.0000 
     27 C27         4.2299   57.8473   16.8736 C.2       1 UNK         0.0000 
     28 C28         5.4803   58.2824   17.2814 C.2       1 UNK         0.0000 
     29 O29         6.0578   57.3506   18.0831 O.3       1 UNK         0.0000 
     30 O30         3.9041   50.8970   20.2370 O.3       1 UNK         0.0000 
     31 O31        -1.4437   51.4758   24.4364 O.3       1 UNK         0.0000 
     32 C32        -2.6727   52.0293   24.6816 C.ar      1 UNK         0.0000 
     33 C33        -3.6277   51.3127   25.4015 C.ar      1 UNK         0.0000 
     34 C34        -4.8614   51.8922   25.6856 C.ar      1 UNK         0.0000 
     35 C35        -5.1400   53.1814   25.2353 C.ar      1 UNK         0.0000 
     36 C36        -4.2021   53.8835   24.4817 C.ar      1 UNK         0.0000 
     37 C37        -2.9738   53.2967   24.1894 C.ar      1 UNK         0.0000 
     38 Cl38       -6.6551   53.9199   25.6074 Cl        1 UNK         0.0000 
     39 H39        -1.7139   51.8790   27.7431 H         1 UNK         0.0000 
     40 H40        -1.3572   50.3084   26.9825 H         1 UNK         0.0000 
     41 H41        -0.3105   50.9182   28.2636 H         1 UNK         0.0000 
     42 H42         3.1020   53.2389   27.9346 H         1 UNK         0.0000 
     43 H43         5.3087   54.2413   28.1781 H         1 UNK         0.0000 
     44 H44         6.4299   55.2562   26.2282 H         1 UNK         0.0000 
     45 H45         5.3077   55.2957   24.0350 H         1 UNK         0.0000 
     46 H46         3.0628   54.3751   23.7845 H         1 UNK         0.0000 
     47 H47         1.1682   54.0620   22.8220 H         1 UNK         0.0000 
     48 H48        -0.0550   52.8873   22.5179 H         1 UNK         0.0000 
     49 H49         2.7957   50.1371   22.2748 H         1 UNK         0.0000 
     50 H50         2.2318   50.7269   23.8235 H         1 UNK         0.0000 
     51 H51        -0.2379   50.3992   22.6821 H         1 UNK         0.0000 
     52 H52         0.6432   49.5300   21.4748 H         1 UNK         0.0000 
     53 H53         0.3205   47.7059   25.0948 H         1 UNK         0.0000 
     54 H54         1.0311   49.3105   25.2123 H         1 UNK         0.0000 
     55 H55        -0.6959   49.1097   24.8312 H         1 UNK         0.0000 
     56 H56         3.8996   52.5363   22.4811 H         1 UNK         0.0000 
     57 H57         2.9512   53.7879   21.6603 H         1 UNK         0.0000 
     58 H58         5.2712   52.5438   18.9401 H         1 UNK         0.0000 
     59 H59         5.6021   53.0263   20.5952 H         1 UNK         0.0000 
     60 H60         6.3346   54.5314   18.4380 H         1 UNK         0.0000 
     61 H61         6.2024   55.4779   19.9014 H         1 UNK         0.0000 
     62 H62         3.1908   55.9389   17.3318 H         1 UNK         0.0000 
     63 H63         3.5350   58.3880   16.2465 H         1 UNK         0.0000 
     64 H64         6.0369   59.1949   17.1095 H         1 UNK         0.0000 
     65 H65         4.3553   50.7149   19.3871 H         1 UNK         0.0000 
     66 H66        -3.4062   50.3173   25.7571 H         1 UNK         0.0000 
     67 H67        -5.5965   51.3455   26.2585 H         1 UNK         0.0000 
     68 H68        -4.4229   54.8771   24.1217 H         1 UNK         0.0000 
     69 H69        -2.2402   53.8403   23.6141 H         1 UNK         0.0000 
     70 H70         1.3159   51.9270   21.3270 H         1 UNK         0.0000 
@<TRIPOS>BOND
     1    1    2 1    
     2    1   39 1    
     3    1   40 1    
     4    1   41 1    
     5    2    6 ar   
     6    2    3 ar   
     7    3    4 ar   
     8    3   31 1    
     9    4    5 ar   
    10    4   13 1    
    11    5    6 ar   
    12    5    7 1    
    13    7   12 ar   
    14    7    8 ar   
    15    8    9 ar   
    16    8   42 1    
    17    9   10 ar   
    18    9   43 1    
    19   10   11 ar   
    20   10   44 1    
    21   11   12 ar   
    22   11   45 1    
    23   12   46 1    
    24   13   14 1    
    25   13   47 1    
    26   13   48 1    
    27   14   15 1    
    28   14   19 1    
    29   14   70 1    
    30   15   16 1    
    31   15   49 1    
    32   15   50 1    
    33   16   17 1    
    34   16   51 1    
    35   16   52 1    
    36   17   18 1    
    37   18   53 1    
    38   18   54 1    
    39   18   55 1    
    40   19   20 1    
    41   19   56 1    
    42   19   57 1    
    43   20   21 1    
    44   20   22 1    
    45   20   30 1    
    46   22   23 1    
    47   22   58 1    
    48   22   59 1    
    49   23   24 1    
    50   24   25 1    
    51   24   60 1    
    52   24   61 1    
    53   25   29 1    
    54   25   26 2    
    55   26   27 1    
    56   26   62 1    
    57   27   28 2    
    58   27   63 1    
    59   28   29 1    
    60   28   64 1    
    61   30   65 1    
    62   31   32 1    
    63   32   37 ar   
    64   32   33 ar   
    65   33   34 ar   
    66   33   66 1    
    67   34   35 ar   
    68   34   67 1    
    69   35   36 ar   
    70   35   38 1    
    71   36   37 ar   
    72   36   68 1    
    73   37   69 1    
@<TRIPOS>SUBSTRUCTURE
     1 UNK         1 GROUP             0       ****    0 ROOT    
