@<TRIPOS>MOLECULE
ZINC01305059_2867
65   68    1
SMALL
USER_CHARGES


@<TRIPOS>ATOM
      1 C1          0.7982   42.4933   16.9882 C.3       1 UNK         0.0000 
      2 C2          1.0862   43.9827   16.9436 C.ar      1 UNK         0.0000 
      3 C3          1.9063   44.5092   15.9461 C.ar      1 UNK         0.0000 
      4 C4          2.1810   45.8754   15.9119 C.ar      1 UNK         0.0000 
      5 C5          1.6245   46.7321   16.8656 C.ar      1 UNK         0.0000 
      6 C6          0.8264   46.2027   17.9045 C.ar      1 UNK         0.0000 
      7 C7          0.5602   44.8289   17.9238 C.ar      1 UNK         0.0000 
      8 C8          0.2911   47.0589   19.0494 C.3       1 UNK         0.0000 
      9 N9          1.9036   48.0968   16.7102 N.am      1 UNK         0.0000 
     10 C10         0.9745   49.0689   16.5680 C.2       1 UNK         0.0000 
     11 O11        -0.2422   48.8686   16.5897 O.2       1 UNK         0.0000 
     12 C12         1.5053   50.4831   16.2841 C.3       1 UNK         0.0000 
     13 S13         0.4636   51.8413   16.9204 S.3       1 UNK         0.0000 
     14 C14         0.8162   51.8749   18.6719 C.2       1 UNK         0.0000 
     15 C15        -0.0984   51.9652   19.6610 C.2       1 UNK         0.0000 
     16 C16         0.3146   51.9284   21.1449 C.3       1 UNK         0.0000 
     17 H17        -0.2113   52.7517   21.6297 H         1 UNK         0.0000 
     18 C18         1.8385   52.2077   21.3001 C.2       1 UNK         0.0000 
     19 C19         2.6695   52.1991   20.2125 C.2       1 UNK         0.0000 
     20 N20         2.1620   51.9475   18.9540 N.pl3     1 UNK         0.0000 
     21 C21         4.1811   52.4204   20.2097 C.3       1 UNK         0.0000 
     22 C22         2.2950   52.5032   22.6541 C.2       1 UNK         0.0000 
     23 O23         1.9047   51.8441   23.6150 O.2       1 UNK         0.0000 
     24 N24         3.1460   53.5473   22.7500 N.am      1 UNK         0.0000 
     25 C25         3.9698   53.9091   23.8335 C.ar      1 UNK         0.0000 
     26 C26         5.3138   54.1166   23.4975 C.ar      1 UNK         0.0000 
     27 C27         6.2428   54.4966   24.4638 C.ar      1 UNK         0.0000 
     28 C28         5.8378   54.6751   25.7829 C.ar      1 UNK         0.0000 
     29 C29         4.5036   54.4763   26.1338 C.ar      1 UNK         0.0000 
     30 C30         3.5560   54.0903   25.1758 C.ar      1 UNK         0.0000 
     31 C31         2.1203   53.9059   25.6469 C.3       1 UNK         0.0000 
     32 C32        -0.1859   50.6478   21.8027 C.2       1 UNK         0.0000 
     33 C33         0.4045   49.4625   22.2266 C.2       1 UNK         0.0000 
     34 C34        -0.6039   48.6852   22.8024 C.2       1 UNK         0.0000 
     35 C35        -1.7710   49.4165   22.6853 C.2       1 UNK         0.0000 
     36 O36        -1.5171   50.6048   22.0822 O.3       1 UNK         0.0000 
     37 C37        -1.4932   52.0081   19.3540 C.1       1 UNK         0.0000 
     38 N38        -2.6293   52.0971   19.1513 N.1       1 UNK         0.0000 
     39 H39         1.5398   41.9249   16.4249 H         1 UNK         0.0000 
     40 H40        -0.1933   42.2817   16.5873 H         1 UNK         0.0000 
     41 H41         0.8384   42.1338   18.0155 H         1 UNK         0.0000 
     42 H42         2.3261   43.8612   15.1919 H         1 UNK         0.0000 
     43 H43         2.8133   46.2675   15.1287 H         1 UNK         0.0000 
     44 H44        -0.0506   44.4142   18.7113 H         1 UNK         0.0000 
     45 H45        -0.6950   47.4566   18.8111 H         1 UNK         0.0000 
     46 H46         0.2127   46.4835   19.9721 H         1 UNK         0.0000 
     47 H47         0.9593   47.8925   19.2714 H         1 UNK         0.0000 
     48 H48         2.8822   48.3782   16.5602 H         1 UNK         0.0000 
     49 H49         2.5262   50.6135   16.6392 H         1 UNK         0.0000 
     50 H50         1.5396   50.5821   15.2000 H         1 UNK         0.0000 
     51 H51         2.8164   51.8777   18.1881 H         1 UNK         0.0000 
     52 H52         4.6592   51.8879   21.0325 H         1 UNK         0.0000 
     53 H53         4.6540   52.0969   19.2843 H         1 UNK         0.0000 
     54 H54         4.4049   53.4841   20.2972 H         1 UNK         0.0000 
     55 H55         3.3873   53.9745   21.8688 H         1 UNK         0.0000 
     56 H56         5.6535   53.9834   22.4796 H         1 UNK         0.0000 
     57 H57         7.2773   54.6487   24.1889 H         1 UNK         0.0000 
     58 H58         6.5569   54.9584   26.5375 H         1 UNK         0.0000 
     59 H59         4.2117   54.6166   27.1645 H         1 UNK         0.0000 
     60 H60         1.9136   54.4935   26.5409 H         1 UNK         0.0000 
     61 H61         1.4091   54.2263   24.8858 H         1 UNK         0.0000 
     62 H62         1.9302   52.8638   25.9018 H         1 UNK         0.0000 
     63 H63         1.4520   49.2079   22.1471 H         1 UNK         0.0000 
     64 H64        -0.4957   47.7101   23.2550 H         1 UNK         0.0000 
     65 H65        -2.7955   49.2402   22.9776 H         1 UNK         0.0000 
@<TRIPOS>BOND
     1    1    2 1    
     2    1   39 1    
     3    1   40 1    
     4    1   41 1    
     5    2    7 ar   
     6    2    3 ar   
     7    3    4 ar   
     8    3   42 1    
     9    4    5 ar   
    10    4   43 1    
    11    5    6 ar   
    12    5    9 1    
    13    6    7 ar   
    14    6    8 1    
    15    7   44 1    
    16    8   45 1    
    17    8   46 1    
    18    8   47 1    
    19    9   10 am   BACKBONE|DICT|INTERRES
    20    9   48 1    
    21   10   11 2    
    22   10   12 1    
    23   12   13 1    
    24   12   49 1    
    25   12   50 1    
    26   13   14 1    
    27   14   20 1    
    28   14   15 2    
    29   15   16 1    
    30   15   37 1    
    31   16   17 1    
    32   16   18 1    
    33   16   32 1    
    34   18   19 2    
    35   18   22 1    
    36   19   20 1    
    37   19   21 1    
    38   20   51 1    
    39   21   52 1    
    40   21   53 1    
    41   21   54 1    
    42   22   23 2    
    43   22   24 am   BACKBONE|DICT|INTERRES
    44   24   25 1    
    45   24   55 1    
    46   25   30 ar   
    47   25   26 ar   
    48   26   27 ar   
    49   26   56 1    
    50   27   28 ar   
    51   27   57 1    
    52   28   29 ar   
    53   28   58 1    
    54   29   30 ar   
    55   29   59 1    
    56   30   31 1    
    57   31   60 1    
    58   31   61 1    
    59   31   62 1    
    60   32   36 1    
    61   32   33 2    
    62   33   34 1    
    63   33   63 1    
    64   34   35 2    
    65   34   64 1    
    66   35   36 1    
    67   35   65 1    
    68   37   38 3    
@<TRIPOS>SUBSTRUCTURE
     1 UNK         1 GROUP             0       ****    0 ROOT    
