ZINC35709614_5905
                    3D
 Schrodinger Suite 2024-2.
 58 61  0  0  1  0            999 V2000
   -4.2531   48.4065   20.6786 C   0  0  0  0  0  0
   -2.9352   49.0792   21.0549 C   0  0  0  0  0  0
   -2.4248   50.2539   20.5578 C   0  0  0  0  0  0
   -1.1098   50.8426   21.1524 C   0  0  1  0  0  0
   -1.2887   51.8837   21.4285 H   0  0  0  0  0  0
   -0.7854   50.1578   22.4342 N   0  0  0  0  0  0
    0.2021   50.5593   23.3190 C   0  0  0  0  0  0
    0.4009   49.6535   24.2935 C   0  0  0  0  0  0
   -0.6106   48.2182   24.1440 S   0  0  0  0  0  0
   -1.4002   48.9441   22.7304 C   0  0  0  0  0  0
   -2.3505   48.3895   22.0805 N   0  0  0  0  0  0
    0.9178   51.8241   23.2225 C   0  0  0  0  0  0
    1.2674   52.6320   24.2402 C   0  0  0  0  0  0
    1.0816   52.5016   25.5060 O   0  5  0  0  0  0
    1.9000   53.8211   23.9522 N   0  0  0  0  0  0
    2.8215   54.6150   24.7610 C   0  0  0  0  0  0
    4.2806   54.2904   24.5327 C   0  0  0  0  0  0
    4.7826   54.0974   23.2438 C   0  0  0  0  0  0
    6.1499   53.9172   23.0684 C   0  0  0  0  0  0
    6.9773   53.9086   24.1877 C   0  0  0  0  0  0
    6.5148   54.1007   25.4494 N   0  0  0  0  0  0
    5.1802   54.2917   25.6060 C   0  0  0  0  0  0
    0.0750   50.8391   20.1704 C   0  0  0  0  0  0
    0.8639   49.6943   19.9947 C   0  0  0  0  0  0
    1.9571   49.7175   19.1275 C   0  0  0  0  0  0
    2.2599   50.8814   18.4220 C   0  0  0  0  0  0
    1.4756   52.0196   18.5757 C   0  0  0  0  0  0
    0.3939   52.0002   19.4550 C   0  0  0  0  0  0
    1.7604   53.1400   17.8766 F   0  0  0  0  0  0
   -3.0223   51.0310   19.4492 C   0  0  0  0  0  0
   -2.7816   52.2317   19.2820 O   0  0  0  0  0  0
   -3.8231   50.3177   18.6216 O   0  0  0  0  0  0
   -4.4561   50.9058   17.4872 C   0  0  0  0  0  0
   -3.4677   51.0057   16.3105 C   0  0  0  0  0  0
   -5.6733   50.0419   17.1400 C   0  0  0  0  0  0
   -4.0951   47.7248   19.8432 H   0  0  0  0  0  0
   -4.6788   47.8340   21.5065 H   0  0  0  0  0  0
   -5.0154   49.1334   20.3988 H   0  0  0  0  0  0
    1.1044   49.7391   25.1076 H   0  0  0  0  0  0
    1.1915   52.1451   22.2293 H   0  0  0  0  0  0
    2.0122   54.0153   22.9696 H   0  0  0  0  0  0
    2.5896   54.4968   25.8198 H   0  0  0  0  0  0
    2.7014   55.6603   24.4817 H   0  0  0  0  0  0
    4.1295   54.1148   22.3821 H   0  0  0  0  0  0
    6.5492   53.7851   22.0820 H   0  0  0  0  0  0
    8.0286   53.6965   24.0805 H   0  0  0  0  0  0
    4.8381   54.4589   26.6156 H   0  0  0  0  0  0
    0.6405   48.7885   20.5347 H   0  0  0  0  0  0
    2.5736   48.8395   18.9969 H   0  0  0  0  0  0
    3.1049   50.8967   17.7467 H   0  0  0  0  0  0
   -0.1894   52.8962   19.5732 H   0  0  0  0  0  0
   -4.8166   51.9058   17.7429 H   0  0  0  0  0  0
   -3.9497   51.4338   15.4313 H   0  0  0  0  0  0
   -2.6167   51.6415   16.5570 H   0  0  0  0  0  0
   -3.0770   50.0244   16.0362 H   0  0  0  0  0  0
   -6.2054   50.4423   16.2769 H   0  0  0  0  0  0
   -5.3809   49.0161   16.9094 H   0  0  0  0  0  0
   -6.3769   50.0084   17.9718 H   0  0  0  0  0  0
  1  2  1  0  0  0
  1 36  1  0  0  0
  1 37  1  0  0  0
  1 38  1  0  0  0
  2 11  1  0  0  0
  2  3  2  0  0  0
  3  4  1  0  0  0
  3 30  1  0  0  0
  4  5  1  0  0  0
  4  6  1  0  0  0
  4 23  1  0  0  0
  6 10  1  0  0  0
  6  7  1  0  0  0
  7  8  2  0  0  0
  7 12  1  0  0  0
  8  9  1  0  0  0
  8 39  1  0  0  0
  9 10  1  0  0  0
 10 11  2  0  0  0
 12 13  2  0  0  0
 12 40  1  0  0  0
 13 14  1  0  0  0
 13 15  1  0  0  0
 15 16  1  0  0  0
 15 41  1  0  0  0
 16 17  1  0  0  0
 16 42  1  0  0  0
 16 43  1  0  0  0
 17 22  2  0  0  0
 17 18  1  0  0  0
 18 19  2  0  0  0
 18 44  1  0  0  0
 19 20  1  0  0  0
 19 45  1  0  0  0
 20 21  2  0  0  0
 20 46  1  0  0  0
 21 22  1  0  0  0
 22 47  1  0  0  0
 23 28  2  0  0  0
 23 24  1  0  0  0
 24 25  2  0  0  0
 24 48  1  0  0  0
 25 26  1  0  0  0
 25 49  1  0  0  0
 26 27  2  0  0  0
 26 50  1  0  0  0
 27 28  1  0  0  0
 27 29  1  0  0  0
 28 51  1  0  0  0
 30 31  2  0  0  0
 30 32  1  0  0  0
 32 33  1  0  0  0
 33 34  1  0  0  0
 33 35  1  0  0  0
 33 52  1  0  0  0
 34 53  1  0  0  0
 34 54  1  0  0  0
 34 55  1  0  0  0
 35 56  1  0  0  0
 35 57  1  0  0  0
 35 58  1  0  0  0
M  CHG  1  14  -1
M  END
> <i_i_glide_confnum>
48

> <i_i_glide_lignum>
5906

> <i_i_glide_posenum>
130

> <i_i_glide_rotatable_bonds>
8

> <i_m_Source_File_Index>
3931

> <b_m_subgroup_collapsed>
0

> <r_i_docking_score>
-3.67357

> <r_i_glide_ecoul>
-3.54644

> <r_i_glide_eff_state_penalty>
0

> <r_i_glide_einternal>
2.74059

> <r_i_glide_emodel>
-39.911

> <r_i_glide_energy>
-33.357

> <r_i_glide_erotb>
0.528928

> <r_i_glide_esite>
-0.0211677

> <r_i_glide_evdw>
-29.8106

> <r_i_glide_gscore>
-3.67357

> <r_i_glide_hbond>
-0.32

> <r_i_glide_ligand_efficiency>
-0.108046

> <r_i_glide_ligand_efficiency_ln>
-0.811594

> <r_i_glide_ligand_efficiency_sa>
-0.350027

> <r_i_glide_lipo>
-1.63818

> <r_i_glide_metal>
0

> <r_i_glide_rewards>
-0.200651

> <s_i_glide_gridfile>
wee1_glide-grid

> <s_m_Source_File>
wee1_decoys_glide_SP.sdf

> <s_m_Source_Path>
/Users/zhangxujun/Desktop

> <s_m_entry_id>
4206

> <s_m_entry_name>
wee1_decoys_glide_SP.3931

> <s_m_subgroup_title>
wee1_decoys_glide_SP

> <s_m_subgroupid>
wee1_decoys_glide_SP


$$$$
