@<TRIPOS>MOLECULE
ZINC03951738_2385
73   75    1
SMALL
USER_CHARGES


@<TRIPOS>ATOM
      1 C1          7.0530   53.8380   27.7441 C.3       1 UNK         0.0000 
      2 C2          6.2007   54.1362   26.5358 C.2       1 UNK         0.0000 
      3 N3          6.7050   54.4110   25.3555 N.2       1 UNK         0.0000 
      4 C4          5.7919   54.5862   24.4242 C.2       1 UNK         0.0000 
      5 C5          4.4752   54.4960   24.8760 C.2       1 UNK         0.0000 
      6 S6          4.4680   54.1007   26.5619 S.3       1 UNK         0.0000 
      7 C7          6.2572   54.9050   23.0797 C.2       1 UNK         0.0000 
      8 C8          5.7769   54.4658   21.8921 C.2       1 UNK         0.0000 
      9 C9          4.6813   53.4037   21.8146 C.3       1 UNK         0.0000 
     10 C10         6.3277   54.9745   20.5399 C.3       1 UNK         0.0000 
     11 H11         7.3009   54.5007   20.4171 H         1 UNK         0.0000 
     12 C12         6.4942   56.5110   20.4520 C.3       1 UNK         0.0000 
     13 C13         7.4045   56.9829   19.2963 C.3       1 UNK         0.0000 
     14 H14         8.4313   56.6233   19.3692 H         1 UNK         0.0000 
     15 C15         6.8997   57.3644   17.9356 C.3       1 UNK         0.0000 
     16 H16         7.5797   57.3189   17.0835 H         1 UNK         0.0000 
     17 O17         7.2420   58.3223   18.8985 O.3       1 UNK         0.0000 
     18 C18         5.4212   57.2440   17.5470 C.3       1 UNK         0.0000 
     19 C19         4.8952   58.4726   16.7957 C.3       1 UNK         0.0000 
     20 C20         3.5258   58.2287   16.1307 C.3       1 UNK         0.0000 
     21 C21         3.5536   57.2970   14.8815 C.3       1 UNK         0.0000 
     22 H22         4.1326   56.4128   15.1336 H         1 UNK         0.0000 
     23 C23         2.1450   56.7982   14.4380 C.3       1 UNK         0.0000 
     24 H24         2.2436   56.3660   13.4403 H         1 UNK         0.0000 
     25 C25         1.4553   55.7135   15.3404 C.3       1 UNK         0.0000 
     26 H26         1.3668   56.1264   16.3454 H         1 UNK         0.0000 
     27 C27         2.2695   54.3867   15.4529 C.2       1 UNK         0.0000 
     28 O28         3.0535   54.0821   14.5512 O.2       1 UNK         0.0000 
     29 C29         2.1652   53.4809   16.7342 C.3       1 UNK         0.0000 
     30 C30         3.2869   53.9053   17.7659 C.3       1 UNK         0.0000 
     31 H31         3.2195   54.9827   17.9357 H         1 UNK         0.0000 
     32 C32         4.7635   53.5687   17.3699 C.3       1 UNK         0.0000 
     33 C33         5.8895   53.9689   18.3471 C.2       1 UNK         0.0000 
     34 O34         7.0622   53.7145   18.0828 O.2       1 UNK         0.0000 
     35 O35         5.4613   54.6099   19.4576 O.3       1 UNK         0.0000 
     36 O36         3.0334   53.2966   19.0201 O.3       1 UNK         0.0000 
     37 C37         2.3683   51.9853   16.3411 C.3       1 UNK         0.0000 
     38 C38         0.7568   53.5906   17.3965 C.3       1 UNK         0.0000 
     39 C39         0.0310   55.4232   14.7807 C.3       1 UNK         0.0000 
     40 O40         1.3057   57.9336   14.2787 O.3       1 UNK         0.0000 
     41 C41         4.3125   57.9516   13.7031 C.3       1 UNK         0.0000 
     42 H42         7.9045   54.5096   27.8268 H         1 UNK         0.0000 
     43 H43         7.4525   52.8218   27.7125 H         1 UNK         0.0000 
     44 H44         6.4895   53.9332   28.6761 H         1 UNK         0.0000 
     45 H45         3.5585   54.6216   24.3210 H         1 UNK         0.0000 
     46 H46         7.0921   55.5932   23.0829 H         1 UNK         0.0000 
     47 H47         4.9365   52.6286   21.0885 H         1 UNK         0.0000 
     48 H48         4.5149   52.8965   22.7643 H         1 UNK         0.0000 
     49 H49         3.7403   53.8638   21.5213 H         1 UNK         0.0000 
     50 H50         5.5092   56.9723   20.4126 H         1 UNK         0.0000 
     51 H51         6.9401   56.8961   21.3631 H         1 UNK         0.0000 
     52 H52         4.7757   57.0635   18.4039 H         1 UNK         0.0000 
     53 H53         5.3306   56.3604   16.9210 H         1 UNK         0.0000 
     54 H54         5.6224   58.8159   16.0596 H         1 UNK         0.0000 
     55 H55         4.8100   59.2958   17.5033 H         1 UNK         0.0000 
     56 H56         3.1118   59.1994   15.8525 H         1 UNK         0.0000 
     57 H57         2.8402   57.8324   16.8814 H         1 UNK         0.0000 
     58 H58         4.9954   54.0088   16.4018 H         1 UNK         0.0000 
     59 H59         4.8586   52.4915   17.2398 H         1 UNK         0.0000 
     60 H60         2.3571   53.8225   19.4664 H         1 UNK         0.0000 
     61 H61         2.3641   51.3320   17.2177 H         1 UNK         0.0000 
     62 H62         1.5803   51.6270   15.6766 H         1 UNK         0.0000 
     63 H63         3.3149   51.7994   15.8301 H         1 UNK         0.0000 
     64 H64         0.6797   52.9859   18.2993 H         1 UNK         0.0000 
     65 H65         0.4957   54.6066   17.6852 H         1 UNK         0.0000 
     66 H66        -0.0234   53.1912   16.7509 H         1 UNK         0.0000 
     67 H67        -0.5348   54.6947   15.3518 H         1 UNK         0.0000 
     68 H68        -0.5838   56.3218   14.7770 H         1 UNK         0.0000 
     69 H69         0.0769   55.0587   13.7537 H         1 UNK         0.0000 
     70 H70         1.3442   58.4494   15.0882 H         1 UNK         0.0000 
     71 H71         3.8558   58.8977   13.4092 H         1 UNK         0.0000 
     72 H72         5.3546   58.1487   13.9504 H         1 UNK         0.0000 
     73 H73         4.3181   57.3012   12.8283 H         1 UNK         0.0000 
@<TRIPOS>BOND
     1    1    2 1    
     2    1   42 1    
     3    1   43 1    
     4    1   44 1    
     5    2    6 1    
     6    2    3 2    
     7    3    4 1    
     8    4    5 2    
     9    4    7 1    
    10    5    6 1    
    11    5   45 1    
    12    7    8 2    
    13    7   46 1    
    14    8    9 1    
    15    8   10 1    
    16    9   47 1    
    17    9   48 1    
    18    9   49 1    
    19   10   11 1    
    20   10   35 1    
    21   10   12 1    
    22   12   13 1    
    23   12   50 1    
    24   12   51 1    
    25   13   14 1    
    26   13   17 1    
    27   13   15 1    
    28   15   16 1    
    29   15   17 1    
    30   15   18 1    
    31   18   19 1    
    32   18   52 1    
    33   18   53 1    
    34   19   20 1    
    35   19   54 1    
    36   19   55 1    
    37   20   21 1    
    38   20   56 1    
    39   20   57 1    
    40   21   22 1    
    41   21   23 1    
    42   21   41 1    
    43   23   24 1    
    44   23   25 1    
    45   23   40 1    
    46   25   26 1    
    47   25   27 1    
    48   25   39 1    
    49   27   28 2    
    50   27   29 1    
    51   29   30 1    
    52   29   37 1    
    53   29   38 1    
    54   30   31 1    
    55   30   32 1    
    56   30   36 1    
    57   32   33 1    
    58   32   58 1    
    59   32   59 1    
    60   33   34 2    
    61   33   35 1    
    62   36   60 1    
    63   37   61 1    
    64   37   62 1    
    65   37   63 1    
    66   38   64 1    
    67   38   65 1    
    68   38   66 1    
    69   39   67 1    
    70   39   68 1    
    71   39   69 1    
    72   40   70 1    
    73   41   71 1    
    74   41   72 1    
    75   41   73 1    
@<TRIPOS>SUBSTRUCTURE
     1 UNK         1 GROUP             0       ****    0 ROOT    
