@<TRIPOS>MOLECULE
ZINC14957882_2546
60   61    1
SMALL
USER_CHARGES


@<TRIPOS>ATOM
      1 C1          4.2854   54.5732   18.2077 C.3       1 UNK         0.0000 
      2 C2          5.0361   54.6402   19.5353 C.ar      1 UNK         0.0000 
      3 C3          4.4529   53.9834   20.6177 C.ar      1 UNK         0.0000 
      4 C4          5.0366   53.9992   21.8744 C.ar      1 UNK         0.0000 
      5 C5          6.2331   54.6988   22.0871 C.ar      1 UNK         0.0000 
      6 C6          6.8692   55.3018   20.9861 C.ar      1 UNK         0.0000 
      7 C7          6.2721   55.3038   19.7067 C.ar      1 UNK         0.0000 
      8 C8          6.9765   56.0048   18.5764 C.2       1 UNK         0.0000 
      9 O9          6.5790   56.1031   17.4169 O.2       1 UNK         0.0000 
     10 O10         8.1156   55.8566   21.1736 O.3       1 UNK         0.0000 
     11 C11         6.8812   54.7730   23.4756 C.3       1 UNK         0.0000 
     12 C12         5.9428   54.9799   24.6486 C.2       1 UNK         0.0000 
     13 C13         6.0080   54.4098   25.8656 C.2       1 UNK         0.0000 
     14 C14         7.0500   53.3904   26.2882 C.3       1 UNK         0.0000 
     15 C15         5.0045   54.7797   26.9373 C.3       1 UNK         0.0000 
     16 H16         4.5196   55.6963   26.6253 H         1 UNK         0.0000 
     17 C17         3.8960   53.7331   27.1907 C.3       1 UNK         0.0000 
     18 C18         2.7117   54.1090   28.1803 C.3       1 UNK         0.0000 
     19 C19         1.3760   53.5112   27.5831 C.3       1 UNK         0.0000 
     20 H20         1.2783   53.8734   26.5587 H         1 UNK         0.0000 
     21 C21         1.4636   51.9812   27.4997 C.3       1 UNK         0.0000 
     22 C22         1.6477   51.3531   28.8814 C.3       1 UNK         0.0000 
     23 C23         2.8242   51.9870   29.6168 C.2       1 UNK         0.0000 
     24 O24         3.6879   51.2972   30.1318 O.2       1 UNK         0.0000 
     25 C25         2.9232   53.5112   29.6105 C.3       1 UNK         0.0000 
     26 H26         2.1341   53.8515   30.2801 H         1 UNK         0.0000 
     27 C27         4.2771   53.8504   30.2665 C.3       1 UNK         0.0000 
     28 C28         0.0742   53.8900   28.3013 C.3       1 UNK         0.0000 
     29 C29         2.5257   55.6161   28.4498 C.3       1 UNK         0.0000 
     30 O30         5.7499   55.0176   28.0974 O.3       1 UNK         0.0000 
     31 O31         4.4169   53.2981   22.8760 O.3       1 UNK         0.0000 
     32 H32         3.3516   54.0133   18.2818 H         1 UNK         0.0000 
     33 H33         4.0397   55.5770   17.8562 H         1 UNK         0.0000 
     34 H34         4.8998   54.0884   17.4489 H         1 UNK         0.0000 
     35 H35         3.5213   53.4512   20.4847 H         1 UNK         0.0000 
     36 H36         7.9287   56.4623   18.8406 H         1 UNK         0.0000 
     37 H37         8.4950   55.6912   22.0423 H         1 UNK         0.0000 
     38 H38         7.5253   53.9056   23.5952 H         1 UNK         0.0000 
     39 H39         7.5044   55.6606   23.5315 H         1 UNK         0.0000 
     40 H40         5.1554   55.6965   24.4813 H         1 UNK         0.0000 
     41 H41         6.5932   52.6381   26.9280 H         1 UNK         0.0000 
     42 H42         7.5043   52.8965   25.4386 H         1 UNK         0.0000 
     43 H43         7.8207   53.8835   26.8821 H         1 UNK         0.0000 
     44 H44         3.4831   53.5392   26.2000 H         1 UNK         0.0000 
     45 H45         4.3527   52.7846   27.4729 H         1 UNK         0.0000 
     46 H46         2.3015   51.6967   26.8844 H         1 UNK         0.0000 
     47 H47         0.5723   51.5596   27.0306 H         1 UNK         0.0000 
     48 H48         1.9049   50.3078   28.7538 H         1 UNK         0.0000 
     49 H49         0.7509   51.4351   29.4954 H         1 UNK         0.0000 
     50 H50         4.3044   53.4667   31.2861 H         1 UNK         0.0000 
     51 H51         5.0797   53.3849   29.6814 H         1 UNK         0.0000 
     52 H52         4.4957   54.8982   30.3306 H         1 UNK         0.0000 
     53 H53         0.1045   53.7530   29.3817 H         1 UNK         0.0000 
     54 H54        -0.0950   54.9300   28.0820 H         1 UNK         0.0000 
     55 H55        -0.7812   53.3369   27.9105 H         1 UNK         0.0000 
     56 H56         1.6404   55.8696   29.0335 H         1 UNK         0.0000 
     57 H57         3.3661   56.0702   28.9657 H         1 UNK         0.0000 
     58 H58         2.4698   56.0954   27.4984 H         1 UNK         0.0000 
     59 H59         6.4095   55.6988   27.9445 H         1 UNK         0.0000 
     60 H60         4.8839   53.3831   23.7119 H         1 UNK         0.0000 
@<TRIPOS>BOND
     1    1    2 1    
     2    1   32 1    
     3    1   33 1    
     4    1   34 1    
     5    2    7 ar   
     6    2    3 ar   
     7    3    4 ar   
     8    3   35 1    
     9    4    5 ar   
    10    4   31 1    
    11    5    6 ar   
    12    5   11 1    
    13    6    7 ar   
    14    6   10 1    
    15    7    8 1    
    16    8    9 2    
    17    8   36 1    
    18   10   37 1    
    19   11   12 1    
    20   11   38 1    
    21   11   39 1    
    22   12   13 2    
    23   12   40 1    
    24   13   14 1    
    25   13   15 1    
    26   14   41 1    
    27   14   42 1    
    28   14   43 1    
    29   15   16 1    
    30   15   17 1    
    31   15   30 1    
    32   17   18 1    
    33   17   44 1    
    34   17   45 1    
    35   18   25 1    
    36   18   19 1    
    37   18   29 1    
    38   19   20 1    
    39   19   21 1    
    40   19   28 1    
    41   21   22 1    
    42   21   46 1    
    43   21   47 1    
    44   22   23 1    
    45   22   48 1    
    46   22   49 1    
    47   23   24 2    
    48   23   25 1    
    49   25   26 1    
    50   25   27 1    
    51   27   50 1    
    52   27   51 1    
    53   27   52 1    
    54   28   53 1    
    55   28   54 1    
    56   28   55 1    
    57   29   56 1    
    58   29   57 1    
    59   29   58 1    
    60   30   59 1    
    61   31   60 1    
@<TRIPOS>SUBSTRUCTURE
     1 UNK         1 GROUP             0       ****    0 ROOT    
