@<TRIPOS>MOLECULE
ZINC57336358_2379
61   66    1
SMALL
USER_CHARGES


@<TRIPOS>ATOM
      1 C1          0.9414   49.9739   22.4929 C.ar      1 UNK         0.0000 
      2 C2         -0.0959   49.1709   22.0363 C.ar      1 UNK         0.0000 
      3 C3         -0.9501   48.5546   22.9468 C.ar      1 UNK         0.0000 
      4 C4         -0.7865   48.7446   24.3315 C.ar      1 UNK         0.0000 
      5 C5          0.2190   49.6229   24.7906 C.ar      1 UNK         0.0000 
      6 C6          1.0955   50.1941   23.8586 C.ar      1 UNK         0.0000 
      7 C7          0.3759   49.9764   26.2816 C.3       1 UNK         0.0000 
      8 C8         -0.0297   51.4240   26.6871 C.3       1 UNK         0.0000 
      9 C9          1.1108   52.4290   26.4954 C.ar      1 UNK         0.0000 
     10 C10         1.5144   53.1175   25.3606 C.ar      1 UNK         0.0000 
     11 N11         2.6480   53.8466   25.6095 N.pl3     1 UNK         0.0000 
     12 H12         3.1107   54.3974   24.8993 H         1 UNK         0.0000 
     13 C13         3.0172   53.6961   26.9242 C.ar      1 UNK         0.0000 
     14 C14         2.0675   52.8043   27.5124 C.ar      1 UNK         0.0000 
     15 C15         2.2298   52.4641   28.8689 C.ar      1 UNK         0.0000 
     16 C16         3.2974   53.0048   29.5858 C.ar      1 UNK         0.0000 
     17 C17         4.1998   53.8766   28.9827 C.ar      1 UNK         0.0000 
     18 C18         4.0857   54.2423   27.6426 C.ar      1 UNK         0.0000 
     19 C19        -1.3820   51.8385   26.1024 C.ar      1 UNK         0.0000 
     20 C20        -1.6709   52.4860   24.9092 C.ar      1 UNK         0.0000 
     21 N21        -3.0226   52.6405   24.7530 N.pl3     1 UNK         0.0000 
     22 H22        -3.4346   53.0887   23.9487 H         1 UNK         0.0000 
     23 C23        -3.6795   52.0852   25.8251 C.ar      1 UNK         0.0000 
     24 C24        -2.6712   51.5594   26.6916 C.ar      1 UNK         0.0000 
     25 C25        -3.0833   50.9182   27.8724 C.ar      1 UNK         0.0000 
     26 C26        -4.4429   50.8187   28.1607 C.ar      1 UNK         0.0000 
     27 C27        -5.4000   51.3433   27.2959 C.ar      1 UNK         0.0000 
     28 C28        -5.0455   51.9885   26.1106 C.ar      1 UNK         0.0000 
     29 N29        -1.5960   48.0783   25.2804 N.am      1 UNK         0.0000 
     30 C30        -2.2121   46.8846   25.1557 C.2       1 UNK         0.0000 
     31 O31        -2.1594   46.1748   24.1452 O.2       1 UNK         0.0000 
     32 C32        -2.9521   46.3731   26.4076 C.3       1 UNK         0.0000 
     33 H33        -2.1982   46.1007   27.1500 H         1 UNK         0.0000 
     34 C34        -3.9943   47.3651   26.9741 C.3       1 UNK         0.0000 
     35 C35        -5.2759   46.5560   27.0483 C.3       1 UNK         0.0000 
     36 C36        -4.8105   45.1092   26.9566 C.3       1 UNK         0.0000 
     37 O37        -3.6964   45.1910   26.0821 O.3       1 UNK         0.0000 
     38 H38         1.6216   50.4344   21.7906 H         1 UNK         0.0000 
     39 H39        -0.2277   49.0106   20.9759 H         1 UNK         0.0000 
     40 H40        -1.7380   47.9304   22.5564 H         1 UNK         0.0000 
     41 H41         1.9049   50.8274   24.1795 H         1 UNK         0.0000 
     42 H42         1.3812   49.7307   26.6168 H         1 UNK         0.0000 
     43 H43        -0.2137   49.2961   26.8816 H         1 UNK         0.0000 
     44 H44        -0.1860   51.3871   27.7665 H         1 UNK         0.0000 
     45 H45         1.1092   53.1191   24.3595 H         1 UNK         0.0000 
     46 H46         1.5380   51.7878   29.3482 H         1 UNK         0.0000 
     47 H47         3.4278   52.7411   30.6259 H         1 UNK         0.0000 
     48 H48         5.0160   54.2800   29.5667 H         1 UNK         0.0000 
     49 H49         4.7995   54.9123   27.1867 H         1 UNK         0.0000 
     50 H50        -1.0182   52.8491   24.1333 H         1 UNK         0.0000 
     51 H51        -2.3566   50.4967   28.5530 H         1 UNK         0.0000 
     52 H52        -4.7542   50.3179   29.0654 H         1 UNK         0.0000 
     53 H53        -6.4447   51.2389   27.5489 H         1 UNK         0.0000 
     54 H54        -5.7995   52.3831   25.4463 H         1 UNK         0.0000 
     55 H55        -1.5753   48.4640   26.2192 H         1 UNK         0.0000 
     56 H56        -3.7115   47.6691   27.9852 H         1 UNK         0.0000 
     57 H57        -4.1657   48.2491   26.3561 H         1 UNK         0.0000 
     58 H58        -5.8455   46.7534   27.9583 H         1 UNK         0.0000 
     59 H59        -5.9212   46.7933   26.2010 H         1 UNK         0.0000 
     60 H60        -4.4960   44.6826   27.9105 H         1 UNK         0.0000 
     61 H61        -5.5724   44.4391   26.5557 H         1 UNK         0.0000 
@<TRIPOS>BOND
     1    1    6 ar   
     2    1    2 ar   
     3    1   38 1    
     4    2    3 ar   
     5    2   39 1    
     6    3    4 ar   
     7    3   40 1    
     8    4    5 ar   
     9    4   29 1    
    10    5    6 ar   
    11    5    7 1    
    12    6   41 1    
    13    7    8 1    
    14    7   42 1    
    15    7   43 1    
    16    8    9 1    
    17    8   19 1    
    18    8   44 1    
    19    9   14 ar   
    20    9   10 ar   
    21   10   11 ar   
    22   10   45 1    
    23   11   12 1    
    24   11   13 ar   
    25   13   18 ar   
    26   13   14 ar   
    27   14   15 ar   
    28   15   16 ar   
    29   15   46 1    
    30   16   17 ar   
    31   16   47 1    
    32   17   18 ar   
    33   17   48 1    
    34   18   49 1    
    35   19   24 ar   
    36   19   20 ar   
    37   20   21 ar   
    38   20   50 1    
    39   21   22 1    
    40   21   23 ar   
    41   23   28 ar   
    42   23   24 ar   
    43   24   25 ar   
    44   25   26 ar   
    45   25   51 1    
    46   26   27 ar   
    47   26   52 1    
    48   27   28 ar   
    49   27   53 1    
    50   28   54 1    
    51   29   30 am   BACKBONE|DICT|INTERRES
    52   29   55 1    
    53   30   31 2    
    54   30   32 1    
    55   32   33 1    
    56   32   37 1    
    57   32   34 1    
    58   34   35 1    
    59   34   56 1    
    60   34   57 1    
    61   35   36 1    
    62   35   58 1    
    63   35   59 1    
    64   36   37 1    
    65   36   60 1    
    66   36   61 1    
@<TRIPOS>SUBSTRUCTURE
     1 UNK         1 GROUP             0       ****    0 ROOT    
