@<TRIPOS>MOLECULE
ZINC20744557_1566
41   45    1
SMALL
USER_CHARGES


@<TRIPOS>ATOM
      1 C1          0.7053   52.4959   26.6575 C.3       1 UNK         0.0000 
      2 C2          1.7652   53.0294   25.7188 C.ar      1 UNK         0.0000 
      3 C3          2.9683   53.6992   25.9914 C.ar      1 UNK         0.0000 
      4 C4          3.5675   53.8585   24.7515 C.ar      1 UNK         0.0000 
      5 N5          2.7303   53.2874   23.8070 N.pl3     1 UNK         0.0000 
      6 N6          1.6136   52.8472   24.4284 N.2       1 UNK         0.0000 
      7 C7          2.9066   53.0014   22.4099 C.ar      1 UNK         0.0000 
      8 C8          3.9047   53.5711   21.5772 C.ar      1 UNK         0.0000 
      9 C9          3.9309   53.1103   20.2306 C.ar      1 UNK         0.0000 
     10 N10         4.9690   53.7820   19.6383 N.pl3     1 UNK         0.0000 
     11 H11         5.3038   53.7140   18.6880 H         1 UNK         0.0000 
     12 C12         5.5025   54.5951   20.6087 C.ar      1 UNK         0.0000 
     13 N13         4.9007   54.4968   21.7683 N.2       1 UNK         0.0000 
     14 N14         3.1150   52.2089   19.6836 N.ar      1 UNK         0.0000 
     15 C15         2.2049   51.7297   20.5667 C.ar      1 UNK         0.0000 
     16 N16         2.0595   52.0667   21.8727 N.ar      1 UNK         0.0000 
     17 N17         4.8360   54.3884   24.5992 N.am      1 UNK         0.0000 
     18 C18         5.6684   54.7027   25.6176 C.2       1 UNK         0.0000 
     19 O19         6.7049   55.3432   25.4576 O.2       1 UNK         0.0000 
     20 C20         5.2327   54.0966   26.9786 C.3       1 UNK         0.0000 
     21 C21         3.6896   54.2300   27.2312 C.3       1 UNK         0.0000 
     22 H22         3.4839   55.2966   27.3067 H         1 UNK         0.0000 
     23 C23         3.1833   53.6501   28.5569 C.ar      1 UNK         0.0000 
     24 C24         3.8936   52.6524   29.2414 C.ar      1 UNK         0.0000 
     25 C25         3.3792   52.0968   30.4097 C.ar      1 UNK         0.0000 
     26 C26         2.1335   52.4970   30.8839 C.ar      1 UNK         0.0000 
     27 C27         1.4335   53.5101   30.2346 C.ar      1 UNK         0.0000 
     28 C28         1.9669   54.1040   29.0920 C.ar      1 UNK         0.0000 
     29 F29         1.2788   55.1000   28.4861 F         1 UNK         0.0000 
     30 F30         1.6282   51.9391   32.0043 F         1 UNK         0.0000 
     31 H31         1.1443   51.8995   27.4572 H         1 UNK         0.0000 
     32 H32         0.1320   53.2942   27.1244 H         1 UNK         0.0000 
     33 H33        -0.0123   51.8457   26.1554 H         1 UNK         0.0000 
     34 H34         6.3453   55.2315   20.3766 H         1 UNK         0.0000 
     35 H35         1.5175   50.9888   20.1848 H         1 UNK         0.0000 
     36 H36         5.1106   54.7859   23.7106 H         1 UNK         0.0000 
     37 H37         5.5269   53.0472   26.9271 H         1 UNK         0.0000 
     38 H38         5.8066   54.5643   27.7803 H         1 UNK         0.0000 
     39 H39         4.8415   52.2860   28.8774 H         1 UNK         0.0000 
     40 H40         3.9415   51.3489   30.9460 H         1 UNK         0.0000 
     41 H41         0.4803   53.8383   30.6228 H         1 UNK         0.0000 
@<TRIPOS>BOND
     1    1    2 1    
     2    1   31 1    
     3    1   32 1    
     4    1   33 1    
     5    2    6 ar   
     6    2    3 ar   
     7    3   21 1    
     8    3    4 ar   
     9    4    5 ar   
    10    4   17 1    
    11    5    6 ar   
    12    5    7 1    
    13    7   16 ar   
    14    7    8 ar   
    15    8   13 ar   
    16    8    9 ar   
    17    9   10 ar   
    18    9   14 ar   
    19   10   11 1    
    20   10   12 ar   
    21   12   13 ar   
    22   12   34 1    
    23   14   15 ar   
    24   15   16 ar   
    25   15   35 1    
    26   17   18 am   BACKBONE|DICT|INTERRES
    27   17   36 1    
    28   18   19 2    
    29   18   20 1    
    30   20   21 1    
    31   20   37 1    
    32   20   38 1    
    33   21   22 1    
    34   21   23 1    
    35   23   28 ar   
    36   23   24 ar   
    37   24   25 ar   
    38   24   39 1    
    39   25   26 ar   
    40   25   40 1    
    41   26   27 ar   
    42   26   30 1    
    43   27   28 ar   
    44   27   41 1    
    45   28   29 1    
@<TRIPOS>SUBSTRUCTURE
     1 UNK         1 GROUP             0       ****    0 ROOT    
