@<TRIPOS>MOLECULE
ZINC20130547_3167
65   67    1
SMALL
USER_CHARGES


@<TRIPOS>ATOM
      1 C1          6.8355   55.5507   24.9238 C.3       1 UNK         0.0000 
      2 C2          5.9064   54.8883   25.9304 C.ar      1 UNK         0.0000 
      3 C3          6.3223   54.8564   27.2637 C.ar      1 UNK         0.0000 
      4 C4          5.4961   54.3434   28.2540 C.ar      1 UNK         0.0000 
      5 C5          4.2340   53.8609   27.9251 C.ar      1 UNK         0.0000 
      6 C6          3.7924   53.8725   26.5996 C.ar      1 UNK         0.0000 
      7 C7          4.6381   54.3649   25.5847 C.ar      1 UNK         0.0000 
      8 N8          4.1530   54.3283   24.2612 N.am      1 UNK         0.0000 
      9 C9          4.7695   53.7842   23.1920 C.2       1 UNK         0.0000 
     10 O10         5.9006   53.2979   23.2168 O.2       1 UNK         0.0000 
     11 C11         3.9412   53.7573   21.9065 C.3       1 UNK         0.0000 
     12 S12         4.7032   52.8145   20.5428 S.3       1 UNK         0.0000 
     13 C13         4.7510   54.0181   19.2387 C.2       1 UNK         0.0000 
     14 C14         5.2855   55.2583   19.2769 C.2       1 UNK         0.0000 
     15 C15         5.1656   56.2242   18.0843 C.3       1 UNK         0.0000 
     16 H16         4.5653   57.0611   18.4454 H         1 UNK         0.0000 
     17 C17         4.3383   55.5884   16.9211 C.2       1 UNK         0.0000 
     18 C18         3.9100   54.2918   16.9773 C.2       1 UNK         0.0000 
     19 N19         4.1225   53.5480   18.1170 N.pl3     1 UNK         0.0000 
     20 C20         3.0874   53.5194   15.9483 C.3       1 UNK         0.0000 
     21 C21         4.1120   56.4346   15.7205 C.2       1 UNK         0.0000 
     22 O22         3.8909   55.9870   14.5913 O.2       1 UNK         0.0000 
     23 O23         4.1713   57.7667   15.9888 O.3       1 UNK         0.0000 
     24 C24         3.9241   58.7535   14.9910 C.3       1 UNK         0.0000 
     25 C25         2.4391   58.9472   14.7559 C.2       1 UNK         0.0000 
     26 C26         1.7854   60.1028   14.9499 C.2       1 UNK         0.0000 
     27 C27         6.5118   56.8530   17.6837 C.ar      1 UNK         0.0000 
     28 C28         6.7134   58.2280   17.8568 C.ar      1 UNK         0.0000 
     29 C29         7.9193   58.8197   17.4934 C.ar      1 UNK         0.0000 
     30 C30         8.9388   58.0444   16.9518 C.ar      1 UNK         0.0000 
     31 C31         8.7539   56.6742   16.7815 C.ar      1 UNK         0.0000 
     32 C32         7.5444   56.0593   17.1514 C.ar      1 UNK         0.0000 
     33 O33         7.3078   54.7026   17.0244 O.3       1 UNK         0.0000 
     34 C34         8.2981   53.8589   16.4523 C.3       1 UNK         0.0000 
     35 C35         6.0471   55.6968   20.4044 C.1       1 UNK         0.0000 
     36 N36         6.6920   56.0966   21.2793 N.1       1 UNK         0.0000 
     37 C37         2.4115   53.2985   26.2932 C.3       1 UNK         0.0000 
     38 H38         7.4336   56.3196   25.4017 H         1 UNK         0.0000 
     39 H39         7.4952   54.8180   24.4627 H         1 UNK         0.0000 
     40 H40         6.2888   56.0735   24.1397 H         1 UNK         0.0000 
     41 H41         7.2946   55.2279   27.5527 H         1 UNK         0.0000 
     42 H42         5.8374   54.3367   29.2769 H         1 UNK         0.0000 
     43 H43         3.6015   53.4686   28.7079 H         1 UNK         0.0000 
     44 H44         3.1834   54.5794   24.1524 H         1 UNK         0.0000 
     45 H45         3.7403   54.7822   21.5959 H         1 UNK         0.0000 
     46 H46         2.9705   53.3050   22.1092 H         1 UNK         0.0000 
     47 H47         3.8976   52.5616   18.0958 H         1 UNK         0.0000 
     48 H48         3.7526   52.9722   15.2811 H         1 UNK         0.0000 
     49 H49         2.4226   52.7990   16.4235 H         1 UNK         0.0000 
     50 H50         2.4488   54.1631   15.3462 H         1 UNK         0.0000 
     51 H51         4.4089   58.4891   14.0505 H         1 UNK         0.0000 
     52 H52         4.3711   59.6939   15.3160 H         1 UNK         0.0000 
     53 H53         1.8928   58.0798   14.4167 H         1 UNK         0.0000 
     54 H54         2.3039   60.9844   15.3011 H         1 UNK         0.0000 
     55 H55         0.7257   60.1843   14.7711 H         1 UNK         0.0000 
     56 H56         5.9299   58.8530   18.2572 H         1 UNK         0.0000 
     57 H57         8.0488   59.8846   17.6175 H         1 UNK         0.0000 
     58 H58         9.8699   58.5043   16.6559 H         1 UNK         0.0000 
     59 H59         9.5633   56.1046   16.3557 H         1 UNK         0.0000 
     60 H60         7.9485   52.8275   16.4789 H         1 UNK         0.0000 
     61 H61         8.4598   54.1254   15.4051 H         1 UNK         0.0000 
     62 H62         9.2426   53.9033   16.9942 H         1 UNK         0.0000 
     63 H63         2.0025   52.7365   27.1340 H         1 UNK         0.0000 
     64 H64         1.7141   54.0922   26.0239 H         1 UNK         0.0000 
     65 H65         2.4637   52.6110   25.4482 H         1 UNK         0.0000 
@<TRIPOS>BOND
     1    1    2 1    
     2    1   38 1    
     3    1   39 1    
     4    1   40 1    
     5    2    7 ar   
     6    2    3 ar   
     7    3    4 ar   
     8    3   41 1    
     9    4    5 ar   
    10    4   42 1    
    11    5    6 ar   
    12    5   43 1    
    13    6    7 ar   
    14    6   37 1    
    15    7    8 1    
    16    8    9 am   BACKBONE|DICT|INTERRES
    17    8   44 1    
    18    9   10 2    
    19    9   11 1    
    20   11   12 1    
    21   11   45 1    
    22   11   46 1    
    23   12   13 1    
    24   13   19 1    
    25   13   14 2    
    26   14   15 1    
    27   14   35 1    
    28   15   16 1    
    29   15   17 1    
    30   15   27 1    
    31   17   18 2    
    32   17   21 1    
    33   18   19 1    
    34   18   20 1    
    35   19   47 1    
    36   20   48 1    
    37   20   49 1    
    38   20   50 1    
    39   21   22 2    
    40   21   23 1    
    41   23   24 1    
    42   24   25 1    
    43   24   51 1    
    44   24   52 1    
    45   25   26 2    
    46   25   53 1    
    47   26   54 1    
    48   26   55 1    
    49   27   32 ar   
    50   27   28 ar   
    51   28   29 ar   
    52   28   56 1    
    53   29   30 ar   
    54   29   57 1    
    55   30   31 ar   
    56   30   58 1    
    57   31   32 ar   
    58   31   59 1    
    59   32   33 1    
    60   33   34 1    
    61   34   60 1    
    62   34   61 1    
    63   34   62 1    
    64   35   36 3    
    65   37   63 1    
    66   37   64 1    
    67   37   65 1    
@<TRIPOS>SUBSTRUCTURE
     1 UNK         1 GROUP             0       ****    0 ROOT    
