@<TRIPOS>MOLECULE
ZINC21120426_4330
45   48    1
SMALL
USER_CHARGES


@<TRIPOS>ATOM
      1 C1          2.9807   54.4378   24.0464 C.ar      1 UNK         0.0000 
      2 C2          3.5609   54.4960   22.7812 C.ar      1 UNK         0.0000 
      3 C3          4.9392   54.3535   22.6448 C.ar      1 UNK         0.0000 
      4 C4          5.7427   54.1781   23.7669 C.ar      1 UNK         0.0000 
      5 C5          5.1554   54.0966   25.0271 C.ar      1 UNK         0.0000 
      6 C6          3.7629   54.1740   25.1738 C.ar      1 UNK         0.0000 
      7 C7          3.1656   53.9349   26.5328 C.2       1 UNK         0.0000 
      8 C8          3.7544   54.4987   27.6555 C.2       1 UNK         0.0000 
      9 S9          3.0007   54.1641   29.1819 S.3       1 UNK         0.0000 
     10 C10         1.8444   53.1491   28.3590 C.ar      1 UNK         0.0000 
     11 C11         2.0300   53.1135   26.9306 C.ar      1 UNK         0.0000 
     12 C12         1.1019   52.2617   26.2563 C.ar      1 UNK         0.0000 
     13 N13         0.1666   51.5526   26.9387 N.ar      1 UNK         0.0000 
     14 C14         0.1185   51.6968   28.2791 C.ar      1 UNK         0.0000 
     15 N15         0.9155   52.4754   29.0431 N.ar      1 UNK         0.0000 
     16 S16         1.1047   52.0123   24.4971 S.3       1 UNK         0.0000 
     17 C17         0.7954   50.2632   24.0828 C.3       1 UNK         0.0000 
     18 C18        -0.5573   49.7028   24.5265 C.2       1 UNK         0.0000 
     19 O19        -1.5893   50.3438   24.3086 O.2       1 UNK         0.0000 
     20 N20        -0.5143   48.4934   25.1196 N.am      1 UNK         0.0000 
     21 N21        -1.6742   47.9695   25.6812 N.am      1 UNK         0.0000 
     22 C22        -2.2468   46.9037   25.0787 C.2       1 UNK         0.0000 
     23 O23        -1.8986   46.4307   23.9932 O.2       1 UNK         0.0000 
     24 C24        -3.4204   46.3088   25.8091 C.ar      1 UNK         0.0000 
     25 C25        -4.5420   45.8579   25.0993 C.ar      1 UNK         0.0000 
     26 C26        -5.6340   45.3250   25.7835 C.ar      1 UNK         0.0000 
     27 C27        -5.6101   45.2521   27.1747 C.ar      1 UNK         0.0000 
     28 C28        -4.4996   45.6968   27.8823 C.ar      1 UNK         0.0000 
     29 C29        -3.3999   46.1975   27.2037 C.ar      1 UNK         0.0000 
     30 F30        -6.6681   44.7443   27.8456 F         1 UNK         0.0000 
     31 F31         5.5040   54.4162   21.4189 F         1 UNK         0.0000 
     32 H32         1.9136   54.5714   24.1420 H         1 UNK         0.0000 
     33 H33         2.9469   54.6624   21.9080 H         1 UNK         0.0000 
     34 H34         6.8135   54.0847   23.6568 H         1 UNK         0.0000 
     35 H35         5.7854   53.9025   25.8829 H         1 UNK         0.0000 
     36 H36         4.6232   55.1420   27.6602 H         1 UNK         0.0000 
     37 H37        -0.6341   51.1151   28.7956 H         1 UNK         0.0000 
     38 H38         1.6163   49.6673   24.4815 H         1 UNK         0.0000 
     39 H39         0.8507   50.1657   22.9987 H         1 UNK         0.0000 
     40 H40         0.3284   48.0540   25.4650 H         1 UNK         0.0000 
     41 H41        -1.6932   48.0989   26.6927 H         1 UNK         0.0000 
     42 H42        -4.5799   45.9340   24.0207 H         1 UNK         0.0000 
     43 H43        -6.5034   44.9830   25.2419 H         1 UNK         0.0000 
     44 H44        -4.4637   45.6537   28.9560 H         1 UNK         0.0000 
     45 H45        -2.5354   46.4969   27.7803 H         1 UNK         0.0000 
@<TRIPOS>BOND
     1    1    6 ar   
     2    1    2 ar   
     3    1   32 1    
     4    2    3 ar   
     5    2   33 1    
     6    3    4 ar   
     7    3   31 1    
     8    4    5 ar   
     9    4   34 1    
    10    5    6 ar   
    11    5   35 1    
    12    6    7 1    
    13    7   11 1    
    14    7    8 2    
    15    8    9 1    
    16    8   36 1    
    17    9   10 1    
    18   10   15 ar   
    19   10   11 ar   
    20   11   12 ar   
    21   12   13 ar   
    22   12   16 1    
    23   13   14 ar   
    24   14   15 ar   
    25   14   37 1    
    26   16   17 1    
    27   17   18 1    
    28   17   38 1    
    29   17   39 1    
    30   18   19 2    
    31   18   20 am   BACKBONE|DICT|INTERRES
    32   20   21 1    
    33   20   40 1    
    34   21   22 am   BACKBONE|DICT|INTERRES
    35   21   41 1    
    36   22   23 2    
    37   22   24 1    
    38   24   29 ar   
    39   24   25 ar   
    40   25   26 ar   
    41   25   42 1    
    42   26   27 ar   
    43   26   43 1    
    44   27   28 ar   
    45   27   30 1    
    46   28   29 ar   
    47   28   44 1    
    48   29   45 1    
@<TRIPOS>SUBSTRUCTURE
     1 UNK         1 GROUP             0       ****    0 ROOT    
