@<TRIPOS>MOLECULE
ZINC09078299_3359
47   49    1
SMALL
USER_CHARGES


@<TRIPOS>ATOM
      1 C1          0.5676   49.6489   24.5556 C.3       1 UNK         0.0000 
      2 C2          1.5982   50.1290   23.5231 C.3       1 UNK         0.0000 
      3 O3          1.9040   51.5104   23.6804 O.3       1 UNK         0.0000 
      4 C4          1.1577   52.4716   23.1000 C.2       1 UNK         0.0000 
      5 O5          0.1139   52.2838   22.4746 O.2       1 UNK         0.0000 
      6 C6          1.6412   53.9080   23.3652 C.3       1 UNK         0.0000 
      7 N7          3.0566   54.0701   23.7594 N.pl3     1 UNK         0.0000 
      8 C8          4.0532   54.1731   22.7754 C.ar      1 UNK         0.0000 
      9 C9          3.9080   54.0963   21.3860 C.ar      1 UNK         0.0000 
     10 C10         4.9634   54.4662   20.5522 C.ar      1 UNK         0.0000 
     11 C11         6.1732   54.8971   21.1042 C.ar      1 UNK         0.0000 
     12 C12         6.3579   54.8665   22.4906 C.ar      1 UNK         0.0000 
     13 C13         5.2923   54.4966   23.3126 C.ar      1 UNK         0.0000 
     14 S14         5.2417   54.4967   25.0568 S.3       1 UNK         0.0000 
     15 C15         3.4875   54.0033   25.0835 C.2       1 UNK         0.0000 
     16 N16         2.7610   53.6930   26.0924 N.am      1 UNK         0.0000 
     17 C17         3.2523   53.6372   27.3863 C.2       1 UNK         0.0000 
     18 O18         4.3907   53.2985   27.7216 O.2       1 UNK         0.0000 
     19 C19         2.2079   53.9195   28.4279 C.ar      1 UNK         0.0000 
     20 C20         2.2923   55.1215   29.1346 C.ar      1 UNK         0.0000 
     21 C21         1.3749   55.4121   30.1374 C.ar      1 UNK         0.0000 
     22 C22         0.3774   54.4973   30.4705 C.ar      1 UNK         0.0000 
     23 C23         0.2676   53.3065   29.7587 C.ar      1 UNK         0.0000 
     24 C24         1.1671   53.0099   28.7285 C.ar      1 UNK         0.0000 
     25 N25         0.9986   51.7401   28.0039 N.pl3     1 UNK         0.0000 
     26 O26         1.9033   50.9193   28.0828 O.co2     1 UNK         0.0000 
     27 O27        -0.0466   51.5753   27.3850 O.co2     1 UNK         0.0000 
     28 Cl28        1.5040   56.8967   30.9916 Cl        1 UNK         0.0000 
     29 S29         7.4739   55.4667   20.0225 S.o2      1 UNK         0.0000 
     30 O30         8.6641   55.6963   20.8454 O.2       1 UNK         0.0000 
     31 O31         7.5063   54.5741   18.8609 O.2       1 UNK         0.0000 
     32 N32         6.9368   57.0230   19.4573 N.pl3     1 UNK         0.0000 
     33 H33         0.3607   48.5860   24.4271 H         1 UNK         0.0000 
     34 H34        -0.3757   50.1884   24.4629 H         1 UNK         0.0000 
     35 H35         0.9350   49.7864   25.5727 H         1 UNK         0.0000 
     36 H36         2.5264   49.5757   23.6581 H         1 UNK         0.0000 
     37 H37         1.2586   49.9158   22.5076 H         1 UNK         0.0000 
     38 H38         1.3982   54.5244   22.5008 H         1 UNK         0.0000 
     39 H39         1.0261   54.2851   24.1833 H         1 UNK         0.0000 
     40 H40         2.9723   53.8070   20.9324 H         1 UNK         0.0000 
     41 H41         4.8249   54.4467   19.4796 H         1 UNK         0.0000 
     42 H42         7.3028   55.1692   22.9216 H         1 UNK         0.0000 
     43 H43         3.0744   55.8356   28.9146 H         1 UNK         0.0000 
     44 H44        -0.3114   54.7156   31.2722 H         1 UNK         0.0000 
     45 H45        -0.5154   52.6048   30.0136 H         1 UNK         0.0000 
     46 H46         7.7315   57.5758   19.1259 H         1 UNK         0.0000 
     47 H47         6.2677   56.9378   18.6877 H         1 UNK         0.0000 
@<TRIPOS>BOND
     1    1    2 1    
     2    1   33 1    
     3    1   34 1    
     4    1   35 1    
     5    2    3 1    
     6    2   36 1    
     7    2   37 1    
     8    3    4 1    
     9    4    5 2    
    10    4    6 1    
    11    6    7 1    
    12    6   38 1    
    13    6   39 1    
    14    7   15 1    
    15    7    8 1    
    16    8   13 ar   
    17    8    9 ar   
    18    9   10 ar   
    19    9   40 1    
    20   10   11 ar   
    21   10   41 1    
    22   11   12 ar   
    23   11   29 1    
    24   12   13 ar   
    25   12   42 1    
    26   13   14 1    
    27   14   15 1    
    28   15   16 2    BACKBONE|DICT|INTERRES
    29   16   17 am   BACKBONE|DICT|INTERRES
    30   17   18 2    
    31   17   19 1    
    32   19   24 ar   
    33   19   20 ar   
    34   20   21 ar   
    35   20   43 1    
    36   21   22 ar   
    37   21   28 1    
    38   22   23 ar   
    39   22   44 1    
    40   23   24 ar   
    41   23   45 1    
    42   24   25 1    
    43   25   26 2    
    44   25   27 1    
    45   29   30 2    
    46   29   31 2    
    47   29   32 1    
    48   32   46 1    
    49   32   47 1    
@<TRIPOS>SUBSTRUCTURE
     1 UNK         1 GROUP             0       ****    0 ROOT    
