ZINC40313686_1839
                    3D
 Schrodinger Suite 2024-2.
 41 43  0  0  1  0            999 V2000
    6.2700   54.4759   25.9413 C   0  0  0  0  0  0
    5.7121   54.4471   27.2192 C   0  0  0  0  0  0
    4.3219   54.4710   27.3917 C   0  0  0  0  0  0
    3.5042   54.4863   26.2601 C   0  0  0  0  0  0
    4.0537   54.4967   24.9850 C   0  0  0  0  0  0
    5.4454   54.4981   24.8151 C   0  0  0  0  0  0
    6.0643   54.6026   23.5534 N   0  0  0  0  0  0
    5.5122   54.3464   22.3460 C   0  0  0  0  0  0
    4.4638   53.7250   22.1673 O   0  0  0  0  0  0
    6.2297   54.8973   21.2255 C   0  0  0  0  0  0
    7.4529   55.5741   21.1347 C   0  0  0  0  0  0
    7.7250   55.8657   19.7898 C   0  0  0  0  0  0
    6.6505   55.3823   19.0717 C   0  0  0  0  0  0
    5.7656   54.7968   19.9371 N   0  0  0  0  0  0
    4.9004   54.3426   19.6725 H   0  0  0  0  0  0
    8.8166   56.4931   19.2779 N   0  0  0  0  0  0
    3.7738   54.4892   28.6698 N   0  0  0  0  0  0
    2.4655   55.0791   29.0037 C   0  0  0  0  0  0
    1.3488   54.0122   29.0502 C   0  0  0  0  0  0
    1.6866   52.8884   30.0438 C   0  0  0  0  0  0
    3.1075   52.3580   29.7845 C   0  0  0  0  0  0
    4.1503   53.4892   29.6761 C   0  0  0  0  0  0
    7.3437   54.4839   25.8329 H   0  0  0  0  0  0
    6.3674   54.4447   28.0787 H   0  0  0  0  0  0
    2.4306   54.4969   26.3590 H   0  0  0  0  0  0
    3.3774   54.5440   24.1461 H   0  0  0  0  0  0
    6.9940   54.9923   23.5568 H   0  0  0  0  0  0
    8.1090   55.8194   21.9566 H   0  0  0  0  0  0
    6.4457   55.3899   18.0109 H   0  0  0  0  0  0
    9.7148   56.4504   19.7452 H   0  0  0  0  0  0
    8.8524   56.7533   18.3032 H   0  0  0  0  0  0
    2.5506   55.5557   29.9818 H   0  0  0  0  0  0
    2.2191   55.8832   28.3094 H   0  0  0  0  0  0
    0.4073   54.4843   29.3349 H   0  0  0  0  0  0
    1.1736   53.6017   28.0545 H   0  0  0  0  0  0
    0.9588   52.0776   29.9661 H   0  0  0  0  0  0
    1.6107   53.2694   31.0632 H   0  0  0  0  0  0
    3.1387   51.7411   28.8852 H   0  0  0  0  0  0
    3.3979   51.6963   30.6001 H   0  0  0  0  0  0
    5.1149   53.0543   29.4225 H   0  0  0  0  0  0
    4.2882   53.9855   30.6376 H   0  0  0  0  0  0
  1  6  2  0  0  0
  1  2  1  0  0  0
  1 23  1  0  0  0
  2  3  2  0  0  0
  2 24  1  0  0  0
  3  4  1  0  0  0
  3 17  1  0  0  0
  4  5  2  0  0  0
  4 25  1  0  0  0
  5  6  1  0  0  0
  5 26  1  0  0  0
  6  7  1  0  0  0
  7  8  1  0  0  0
  7 27  1  0  0  0
  8  9  2  0  0  0
  8 10  1  0  0  0
 10 14  1  0  0  0
 10 11  2  0  0  0
 11 12  1  0  0  0
 11 28  1  0  0  0
 12 13  2  0  0  0
 12 16  1  0  0  0
 13 14  1  0  0  0
 13 29  1  0  0  0
 14 15  1  0  0  0
 16 30  1  0  0  0
 16 31  1  0  0  0
 17 22  1  0  0  0
 17 18  1  0  0  0
 18 19  1  0  0  0
 18 32  1  0  0  0
 18 33  1  0  0  0
 19 20  1  0  0  0
 19 34  1  0  0  0
 19 35  1  0  0  0
 20 21  1  0  0  0
 20 36  1  0  0  0
 20 37  1  0  0  0
 21 22  1  0  0  0
 21 38  1  0  0  0
 21 39  1  0  0  0
 22 40  1  0  0  0
 22 41  1  0  0  0
M  END
> <i_i_glide_confnum>
69

> <i_i_glide_lignum>
1840

> <i_i_glide_posenum>
275

> <i_i_glide_rotatable_bonds>
4

> <i_m_Source_File_Index>
2037

> <b_m_subgroup_collapsed>
0

> <r_i_docking_score>
-6.74975

> <r_i_glide_ecoul>
-2.03801

> <r_i_glide_eff_state_penalty>
0

> <r_i_glide_einternal>
3.66239

> <r_i_glide_emodel>
-55.2536

> <r_i_glide_energy>
-40.453

> <r_i_glide_erotb>
0.896663

> <r_i_glide_esite>
-0.00718006

> <r_i_glide_evdw>
-38.415

> <r_i_glide_gscore>
-6.74975

> <r_i_glide_hbond>
-0.176388

> <r_i_glide_ligand_efficiency>
-0.321416

> <r_i_glide_ligand_efficiency_ln>
-1.66886

> <r_i_glide_ligand_efficiency_sa>
-0.886764

> <r_i_glide_lipo>
-3.1172

> <r_i_glide_metal>
0

> <r_i_glide_rewards>
-2.11919

> <s_i_glide_gridfile>
wee1_glide-grid

> <s_m_Source_File>
wee1_decoys_glide_SP.sdf

> <s_m_Source_Path>
/Users/zhangxujun/Desktop

> <s_m_entry_id>
2312

> <s_m_entry_name>
wee1_decoys_glide_SP.2037

> <s_m_subgroup_title>
wee1_decoys_glide_SP

> <s_m_subgroupid>
wee1_decoys_glide_SP


$$$$
