@<TRIPOS>MOLECULE
ZINC38741288_3326
67   71    1
SMALL
USER_CHARGES


@<TRIPOS>ATOM
      1 C1         -0.4953   48.0775   20.3442 C.3       1 UNK         0.0000 
      2 C2         -0.7397   49.5360   19.9332 C.3       1 UNK         0.0000 
      3 N3         -0.3398   50.5027   20.9649 N.pl3     1 UNK         0.0000 
      4 C4          0.9358   51.0355   20.8889 C.ar      1 UNK         0.0000 
      5 C5          1.4834   51.9393   21.7474 C.ar      1 UNK         0.0000 
      6 C6          0.6635   52.4137   22.9086 C.ar      1 UNK         0.0000 
      7 O7          1.0240   53.2307   23.7574 O.2       1 UNK         0.0000 
      8 C8         -0.7243   51.8266   22.9705 C.ar      1 UNK         0.0000 
      9 C9         -1.1981   50.8946   22.0189 C.ar      1 UNK         0.0000 
     10 N10        -2.4581   50.3826   22.0638 N.ar      1 UNK         0.0000 
     11 C11        -3.2877   50.7858   23.0570 C.ar      1 UNK         0.0000 
     12 C12        -2.9018   51.6947   24.0383 C.ar      1 UNK         0.0000 
     13 C13        -1.6069   52.2114   23.9928 C.ar      1 UNK         0.0000 
     14 C14        -4.6785   50.1866   23.0366 C.3       1 UNK         0.0000 
     15 C15         2.8329   52.4222   21.4314 C.2       1 UNK         0.0000 
     16 O16         3.4351   52.0448   20.4202 O.2       1 UNK         0.0000 
     17 N17         3.3744   53.3171   22.2879 N.am      1 UNK         0.0000 
     18 C18         4.5562   54.0117   22.0773 C.ar      1 UNK         0.0000 
     19 C19         5.1385   54.4146   20.8866 C.ar      1 UNK         0.0000 
     20 C20         6.2942   55.1198   21.2113 C.ar      1 UNK         0.0000 
     21 N21         6.4532   55.1227   22.5203 N.2       1 UNK         0.0000 
     22 N22         5.3998   54.4708   23.0846 N.pl3     1 UNK         0.0000 
     23 C23         5.2645   54.3759   24.5025 C.ar      1 UNK         0.0000 
     24 N24         6.3284   54.5340   25.2247 N.2       1 UNK         0.0000 
     25 C25         6.2942   54.4096   26.5478 C.ar      1 UNK         0.0000 
     26 O26         7.2721   54.4962   27.2816 O.2       1 UNK         0.0000 
     27 C27         4.9964   54.1250   27.1784 C.ar      1 UNK         0.0000 
     28 C28         3.9200   54.0039   26.3373 C.ar      1 UNK         0.0000 
     29 N29         4.0687   54.1384   24.9735 N.ar      1 UNK         0.0000 
     30 C30         2.5300   53.6143   26.8433 C.3       1 UNK         0.0000 
     31 C31         2.5657   53.0297   28.2730 C.3       1 UNK         0.0000 
     32 C32         3.4617   53.8640   29.2035 C.3       1 UNK         0.0000 
     33 C33         4.9191   53.9162   28.6986 C.3       1 UNK         0.0000 
     34 C34         7.2811   55.8225   20.2704 C.3       1 UNK         0.0000 
     35 C35         6.7518   57.2399   19.9760 C.3       1 UNK         0.0000 
     36 C36         8.7017   55.8977   20.8805 C.3       1 UNK         0.0000 
     37 C37         7.3898   55.0609   18.9306 C.3       1 UNK         0.0000 
     38 H38        -0.8619   47.3946   19.5771 H         1 UNK         0.0000 
     39 H39         0.5700   47.8788   20.4820 H         1 UNK         0.0000 
     40 H40        -1.0087   47.8368   21.2759 H         1 UNK         0.0000 
     41 H41        -0.2054   49.7380   19.0019 H         1 UNK         0.0000 
     42 H42        -1.7937   49.6792   19.6888 H         1 UNK         0.0000 
     43 H43         1.4941   50.6741   20.0346 H         1 UNK         0.0000 
     44 H44        -3.5829   51.9920   24.8194 H         1 UNK         0.0000 
     45 H45        -1.3028   52.9153   24.7583 H         1 UNK         0.0000 
     46 H46        -4.6631   49.1844   23.4675 H         1 UNK         0.0000 
     47 H47        -5.3790   50.7961   23.6110 H         1 UNK         0.0000 
     48 H48        -5.0617   50.1158   22.0171 H         1 UNK         0.0000 
     49 H49         2.9217   53.4644   23.1829 H         1 UNK         0.0000 
     50 H50         4.7469   54.2397   19.8930 H         1 UNK         0.0000 
     51 H51         1.8936   54.4965   26.8359 H         1 UNK         0.0000 
     52 H52         2.0586   52.8971   26.1715 H         1 UNK         0.0000 
     53 H53         1.5514   52.9768   28.6777 H         1 UNK         0.0000 
     54 H54         2.9378   52.0042   28.2385 H         1 UNK         0.0000 
     55 H55         3.0616   54.8793   29.2832 H         1 UNK         0.0000 
     56 H56         3.4411   53.4444   30.2117 H         1 UNK         0.0000 
     57 H57         5.4117   52.9700   28.9283 H         1 UNK         0.0000 
     58 H58         5.4759   54.6790   29.2485 H         1 UNK         0.0000 
     59 H59         6.6986   57.8378   20.8820 H         1 UNK         0.0000 
     60 H60         7.3741   57.7777   19.2587 H         1 UNK         0.0000 
     61 H61         5.7457   57.2113   19.5592 H         1 UNK         0.0000 
     62 H62         9.0711   54.9002   21.1277 H         1 UNK         0.0000 
     63 H63         9.4203   56.3594   20.2015 H         1 UNK         0.0000 
     64 H64         8.7072   56.4778   21.8037 H         1 UNK         0.0000 
     65 H65         6.4295   54.9872   18.4177 H         1 UNK         0.0000 
     66 H66         8.0816   55.5496   18.2424 H         1 UNK         0.0000 
     67 H67         7.7480   54.0442   19.0791 H         1 UNK         0.0000 
@<TRIPOS>BOND
     1    1    2 1    
     2    1   38 1    
     3    1   39 1    
     4    1   40 1    
     5    2    3 1    
     6    2   41 1    
     7    2   42 1    
     8    3    9 ar   
     9    3    4 ar   
    10    4    5 ar   
    11    4   43 1    
    12    5    6 ar   
    13    5   15 1    
    14    6    7 2    
    15    6    8 ar   
    16    8   13 ar   
    17    8    9 ar   
    18    9   10 ar   
    19   10   11 ar   
    20   11   12 ar   
    21   11   14 1    
    22   12   13 ar   
    23   12   44 1    
    24   13   45 1    
    25   14   46 1    
    26   14   47 1    
    27   14   48 1    
    28   15   16 2    
    29   15   17 am   BACKBONE|DICT|INTERRES
    30   17   18 1    
    31   17   49 1    
    32   18   22 ar   
    33   18   19 ar   
    34   19   20 ar   
    35   19   50 1    
    36   20   21 ar   
    37   20   34 1    
    38   21   22 ar   
    39   22   23 1    
    40   23   29 ar   
    41   23   24 ar   
    42   24   25 ar   
    43   25   26 2    
    44   25   27 ar   
    45   27   33 1    
    46   27   28 ar   
    47   28   29 ar   
    48   28   30 1    
    49   30   31 1    
    50   30   51 1    
    51   30   52 1    
    52   31   32 1    
    53   31   53 1    
    54   31   54 1    
    55   32   33 1    
    56   32   55 1    
    57   32   56 1    
    58   33   57 1    
    59   33   58 1    
    60   34   35 1    
    61   34   36 1    
    62   34   37 1    
    63   35   59 1    
    64   35   60 1    
    65   35   61 1    
    66   36   62 1    
    67   36   63 1    
    68   36   64 1    
    69   37   65 1    
    70   37   66 1    
    71   37   67 1    
@<TRIPOS>SUBSTRUCTURE
     1 UNK         1 GROUP             0       ****    0 ROOT    
