@<TRIPOS>MOLECULE
ZINC38596782_3054
68   71    1
SMALL
USER_CHARGES


@<TRIPOS>ATOM
      1 C1         -0.3103   51.9757   27.4997 C.3       1 UNK         0.0000 
      2 C2         -1.0677   51.0022   26.5651 C.3       1 UNK         0.0000 
      3 H3         -0.4201   50.1310   26.4499 H         1 UNK         0.0000 
      4 C4         -1.3471   51.5741   25.1328 C.3       1 UNK         0.0000 
      5 H5         -2.0081   52.4242   25.2896 H         1 UNK         0.0000 
      6 C6         -2.0716   50.6168   24.1812 C.2       1 UNK         0.0000 
      7 C7         -2.9838   50.9321   23.1732 C.2       1 UNK         0.0000 
      8 C8         -3.4651   49.8342   22.4559 C.2       1 UNK         0.0000 
      9 C9         -2.9216   48.6423   22.8921 C.2       1 UNK         0.0000 
     10 S10        -1.8129   48.8862   24.1974 S.3       1 UNK         0.0000 
     11 N11        -0.1225   52.1530   24.5586 N.3       1 UNK         0.0000 
     12 C12        -0.3926   53.2894   23.6809 C.3       1 UNK         0.0000 
     13 C13         0.9059   54.0952   23.5201 C.3       1 UNK         0.0000 
     14 N14         1.9415   53.1975   22.8181 N.4       1 UNK         0.0000 
     15 C15         2.1505   51.8655   23.5755 C.3       1 UNK         0.0000 
     16 C16         0.8060   51.1960   23.9358 C.3       1 UNK         0.0000 
     17 C17         3.2538   53.9423   22.4601 C.3       1 UNK         0.0000 
     18 C18         4.3628   54.0970   23.5062 C.ar      1 UNK         0.0000 
     19 C19         4.1150   54.4894   24.8296 C.ar      1 UNK         0.0000 
     20 C20         5.1665   54.6578   25.7249 C.ar      1 UNK         0.0000 
     21 C21         6.4732   54.4594   25.2949 C.ar      1 UNK         0.0000 
     22 C22         6.7353   54.0964   23.9778 C.ar      1 UNK         0.0000 
     23 C23         5.6831   53.9071   23.0887 C.ar      1 UNK         0.0000 
     24 N24        -2.2605   50.4969   27.2517 N.am      1 UNK         0.0000 
     25 C25        -3.4386   51.1384   27.4260 C.2       1 UNK         0.0000 
     26 O26        -3.6926   52.2171   26.8820 O.2       1 UNK         0.0000 
     27 C27        -4.4531   50.4753   28.2990 C.2       1 UNK         0.0000 
     28 O28        -5.5686   50.9916   28.4376 O.2       1 UNK         0.0000 
     29 N29        -4.1006   49.2984   28.8811 N.am      1 UNK         0.0000 
     30 C30        -5.0416   48.4834   29.5287 C.ar      1 UNK         0.0000 
     31 C31        -5.3981   47.2975   28.8818 C.ar      1 UNK         0.0000 
     32 C32        -6.4124   46.4971   29.3993 C.ar      1 UNK         0.0000 
     33 C33        -7.0275   46.8415   30.6004 C.ar      1 UNK         0.0000 
     34 C34        -6.6495   48.0032   31.2697 C.ar      1 UNK         0.0000 
     35 C35        -5.6682   48.8589   30.7356 C.ar      1 UNK         0.0000 
     36 O36        -5.2967   50.0522   31.3336 O.3       1 UNK         0.0000 
     37 C37        -5.9823   50.4892   32.5040 C.3       1 UNK         0.0000 
     38 H38         0.6220   52.3194   27.0516 H         1 UNK         0.0000 
     39 H39        -0.8963   52.8708   27.7066 H         1 UNK         0.0000 
     40 H40        -0.0476   51.4980   28.4443 H         1 UNK         0.0000 
     41 H41        -3.2976   51.9453   22.9721 H         1 UNK         0.0000 
     42 H42        -4.1824   49.9090   21.6517 H         1 UNK         0.0000 
     43 H43        -3.1146   47.6479   22.5192 H         1 UNK         0.0000 
     44 H44        -0.7674   52.8968   22.7315 H         1 UNK         0.0000 
     45 H45        -1.1662   53.9427   24.0815 H         1 UNK         0.0000 
     46 H46         1.2733   54.4242   24.4842 H         1 UNK         0.0000 
     47 H47         0.7733   54.9655   22.8818 H         1 UNK         0.0000 
     48 H48         2.7046   52.0977   24.4818 H         1 UNK         0.0000 
     49 H49         2.7044   51.2282   22.8860 H         1 UNK         0.0000 
     50 H50         0.9813   50.3290   24.5744 H         1 UNK         0.0000 
     51 H51         0.3329   50.8535   23.0139 H         1 UNK         0.0000 
     52 H52         3.6200   53.3672   21.6067 H         1 UNK         0.0000 
     53 H53         2.9549   54.9189   22.0818 H         1 UNK         0.0000 
     54 H54         3.1254   54.6786   25.1997 H         1 UNK         0.0000 
     55 H55         4.9693   54.9453   26.7476 H         1 UNK         0.0000 
     56 H56         7.2865   54.5762   25.9935 H         1 UNK         0.0000 
     57 H57         7.7521   53.9413   23.6476 H         1 UNK         0.0000 
     58 H58         5.9022   53.6228   22.0697 H         1 UNK         0.0000 
     59 H59        -2.0959   49.5912   27.7110 H         1 UNK         0.0000 
     60 H60        -3.1654   48.9056   28.7703 H         1 UNK         0.0000 
     61 H61        -4.9251   47.0220   27.9494 H         1 UNK         0.0000 
     62 H62        -6.7221   45.6078   28.8713 H         1 UNK         0.0000 
     63 H63        -7.8025   46.2103   31.0120 H         1 UNK         0.0000 
     64 H64        -7.1476   48.2337   32.1986 H         1 UNK         0.0000 
     65 H65        -5.6956   51.5115   32.7414 H         1 UNK         0.0000 
     66 H66        -7.0639   50.4972   32.3624 H         1 UNK         0.0000 
     67 H67        -5.7353   49.8631   33.3628 H         1 UNK         0.0000 
     68 H68         1.5083   52.9604   21.9344 H         1 UNK         0.0000 
@<TRIPOS>BOND
     1    1    2 1    
     2    1   38 1    
     3    1   39 1    
     4    1   40 1    
     5    2    3 1    
     6    2    4 1    
     7    2   24 1    
     8    4    5 1    
     9    4    6 1    
    10    4   11 1    
    11    6   10 1    
    12    6    7 2    
    13    7    8 1    
    14    7   41 1    
    15    8    9 2    
    16    8   42 1    
    17    9   10 1    
    18    9   43 1    
    19   11   16 1    
    20   11   12 1    
    21   12   13 1    
    22   12   44 1    
    23   12   45 1    
    24   13   14 1    
    25   13   46 1    
    26   13   47 1    
    27   14   15 1    
    28   14   17 1    
    29   14   68 1    
    30   15   16 1    
    31   15   48 1    
    32   15   49 1    
    33   16   50 1    
    34   16   51 1    
    35   17   18 1    
    36   17   52 1    
    37   17   53 1    
    38   18   23 ar   
    39   18   19 ar   
    40   19   20 ar   
    41   19   54 1    
    42   20   21 ar   
    43   20   55 1    
    44   21   22 ar   
    45   21   56 1    
    46   22   23 ar   
    47   22   57 1    
    48   23   58 1    
    49   24   25 am   BACKBONE|DICT|INTERRES
    50   24   59 1    
    51   25   26 2    
    52   25   27 1    
    53   27   28 2    
    54   27   29 am   BACKBONE|DICT|INTERRES
    55   29   30 1    
    56   29   60 1    
    57   30   35 ar   
    58   30   31 ar   
    59   31   32 ar   
    60   31   61 1    
    61   32   33 ar   
    62   32   62 1    
    63   33   34 ar   
    64   33   63 1    
    65   34   35 ar   
    66   34   64 1    
    67   35   36 1    
    68   36   37 1    
    69   37   65 1    
    70   37   66 1    
    71   37   67 1    
@<TRIPOS>SUBSTRUCTURE
     1 UNK         1 GROUP             0       ****    0 ROOT    
