@<TRIPOS>MOLECULE
ZINC36311896_735
62   65    1
SMALL
USER_CHARGES


@<TRIPOS>ATOM
      1 C1         -0.8901   52.0782   28.1708 C.ar      1 UNK         0.0000 
      2 C2         -2.0014   51.2967   28.4589 C.ar      1 UNK         0.0000 
      3 C3         -2.8534   50.8969   27.4359 C.ar      1 UNK         0.0000 
      4 C4         -2.6102   51.2529   26.0999 C.ar      1 UNK         0.0000 
      5 C5         -1.4656   52.0396   25.7992 C.ar      1 UNK         0.0000 
      6 C6         -0.6379   52.4598   26.8571 C.ar      1 UNK         0.0000 
      7 C7         -1.1410   52.4625   24.3756 C.2       1 UNK         0.0000 
      8 O8         -1.9990   53.0715   23.7305 O.2       1 UNK         0.0000 
      9 N9          0.0501   52.0935   23.8233 N.am      1 UNK         0.0000 
     10 C10         1.2162   51.6198   24.5770 C.3       1 UNK         0.0000 
     11 C11         2.2276   52.7855   24.5721 C.3       1 UNK         0.0000 
     12 N12         2.7181   52.9665   23.1229 N.4       1 UNK         0.0000 
     13 C13         1.4899   53.3395   22.2455 C.3       1 UNK         0.0000 
     14 C14         0.3360   52.3130   22.3908 C.3       1 UNK         0.0000 
     15 C15         3.9072   53.9573   22.8782 C.3       1 UNK         0.0000 
     16 H16         3.4584   54.9503   22.8250 H         1 UNK         0.0000 
     17 C17         5.0204   53.9351   24.0009 C.3       1 UNK         0.0000 
     18 C18         6.3611   54.6178   23.5943 C.3       1 UNK         0.0000 
     19 C19         6.8260   55.4588   24.7763 C.3       1 UNK         0.0000 
     20 C20         6.0712   54.9219   25.9771 C.3       1 UNK         0.0000 
     21 C21         4.7072   54.5771   25.3852 C.3       1 UNK         0.0000 
     22 C22         4.5230   53.5280   21.5181 C.2       1 UNK         0.0000 
     23 O23         4.6890   52.3288   21.2819 O.2       1 UNK         0.0000 
     24 N24         4.9100   54.5346   20.7070 N.am      1 UNK         0.0000 
     25 C25         5.5939   54.4643   19.4858 C.ar      1 UNK         0.0000 
     26 C26         5.5489   53.3589   18.6266 C.ar      1 UNK         0.0000 
     27 C27         6.2810   53.3561   17.4396 C.ar      1 UNK         0.0000 
     28 C28         7.0494   54.4674   17.0916 C.ar      1 UNK         0.0000 
     29 C29         7.0772   55.5825   17.9288 C.ar      1 UNK         0.0000 
     30 C30         6.3482   55.5831   19.1190 C.ar      1 UNK         0.0000 
     31 F31         7.8147   56.6631   17.5897 F         1 UNK         0.0000 
     32 C32        -3.5536   50.6756   25.0227 C.3       1 UNK         0.0000 
     33 F33        -4.2477   49.6255   25.4662 F         1 UNK         0.0000 
     34 F34        -4.3982   51.6172   24.5996 F         1 UNK         0.0000 
     35 F35        -2.8639   50.2179   23.9773 F         1 UNK         0.0000 
     36 H36        -0.2295   52.3877   28.9682 H         1 UNK         0.0000 
     37 H37        -2.1912   50.9732   29.4732 H         1 UNK         0.0000 
     38 H38        -3.6872   50.2636   27.6977 H         1 UNK         0.0000 
     39 H39         0.2335   53.0711   26.6752 H         1 UNK         0.0000 
     40 H40         1.6348   50.7641   24.0451 H         1 UNK         0.0000 
     41 H41         1.0010   51.2052   25.5598 H         1 UNK         0.0000 
     42 H42         3.0843   52.4961   25.1626 H         1 UNK         0.0000 
     43 H43         1.8335   53.7395   24.9284 H         1 UNK         0.0000 
     44 H44         1.1849   54.3609   22.4821 H         1 UNK         0.0000 
     45 H45         1.8325   53.2961   21.2107 H         1 UNK         0.0000 
     46 H46        -0.5480   52.6477   21.8454 H         1 UNK         0.0000 
     47 H47         0.6275   51.3680   21.9291 H         1 UNK         0.0000 
     48 H48         5.3057   52.9036   24.1843 H         1 UNK         0.0000 
     49 H49         7.1237   53.8721   23.3569 H         1 UNK         0.0000 
     50 H50         6.2718   55.3039   22.7543 H         1 UNK         0.0000 
     51 H51         7.9034   55.4231   24.8838 H         1 UNK         0.0000 
     52 H52         6.5485   56.4968   24.6140 H         1 UNK         0.0000 
     53 H53         6.5569   54.0230   26.3654 H         1 UNK         0.0000 
     54 H54         6.0129   55.6458   26.7914 H         1 UNK         0.0000 
     55 H55         4.1531   55.5072   25.2776 H         1 UNK         0.0000 
     56 H56         4.1498   53.9636   26.0858 H         1 UNK         0.0000 
     57 H57         4.7819   55.4711   21.0568 H         1 UNK         0.0000 
     58 H58         4.9468   52.4965   18.8591 H         1 UNK         0.0000 
     59 H59         6.2461   52.4891   16.7951 H         1 UNK         0.0000 
     60 H60         7.6165   54.4684   16.1733 H         1 UNK         0.0000 
     61 H61         6.3913   56.4563   19.7534 H         1 UNK         0.0000 
     62 H62         3.0626   52.0630   22.8168 H         1 UNK         0.0000 
@<TRIPOS>BOND
     1    1    6 ar   
     2    1    2 ar   
     3    1   36 1    
     4    2    3 ar   
     5    2   37 1    
     6    3    4 ar   
     7    3   38 1    
     8    4    5 ar   
     9    4   32 1    
    10    5    6 ar   
    11    5    7 1    
    12    6   39 1    
    13    7    8 2    
    14    7    9 am   BACKBONE|DICT|INTERRES
    15    9   14 1    
    16    9   10 1    
    17   10   11 1    
    18   10   40 1    
    19   10   41 1    
    20   11   12 1    
    21   11   42 1    
    22   11   43 1    
    23   12   13 1    
    24   12   15 1    
    25   12   62 1    
    26   13   14 1    
    27   13   44 1    
    28   13   45 1    
    29   14   46 1    
    30   14   47 1    
    31   15   16 1    
    32   15   17 1    
    33   15   22 1    
    34   17   21 1    
    35   17   18 1    
    36   17   48 1    
    37   18   19 1    
    38   18   49 1    
    39   18   50 1    
    40   19   20 1    
    41   19   51 1    
    42   19   52 1    
    43   20   21 1    
    44   20   53 1    
    45   20   54 1    
    46   21   55 1    
    47   21   56 1    
    48   22   23 2    
    49   22   24 am   BACKBONE|DICT|INTERRES
    50   24   25 1    
    51   24   57 1    
    52   25   30 ar   
    53   25   26 ar   
    54   26   27 ar   
    55   26   58 1    
    56   27   28 ar   
    57   27   59 1    
    58   28   29 ar   
    59   28   60 1    
    60   29   30 ar   
    61   29   31 1    
    62   30   61 1    
    63   32   33 1    
    64   32   34 1    
    65   32   35 1    
@<TRIPOS>SUBSTRUCTURE
     1 UNK         1 GROUP             0       ****    0 ROOT    
