@<TRIPOS>MOLECULE
ZINC34762186_5095
64   67    1
SMALL
USER_CHARGES


@<TRIPOS>ATOM
      1 C1          4.0322   54.0987   21.1474 C.3       1 UNK         0.0000 
      2 C2          4.4307   53.1737   22.3089 C.3       1 UNK         0.0000 
      3 C3          4.6693   53.9040   23.6234 C.2       1 UNK         0.0000 
      4 C4          5.8328   54.6258   23.8678 C.2       1 UNK         0.0000 
      5 S5          5.9712   55.1876   25.5132 S.3       1 UNK         0.0000 
      6 C6          4.4272   54.4894   25.9051 C.ar      1 UNK         0.0000 
      7 C7          3.7987   53.8643   24.7829 C.ar      1 UNK         0.0000 
      8 C8          2.5290   53.2738   25.0812 C.ar      1 UNK         0.0000 
      9 N9          2.0335   53.2966   26.3479 N.ar      1 UNK         0.0000 
     10 C10         2.7578   53.9043   27.3109 C.ar      1 UNK         0.0000 
     11 N11         3.9466   54.5239   27.1488 N.ar      1 UNK         0.0000 
     12 S12         2.1147   53.8804   28.9514 S.3       1 UNK         0.0000 
     13 C13         0.6144   52.8406   28.9252 C.3       1 UNK         0.0000 
     14 C14        -0.0759   52.7323   30.2833 C.2       1 UNK         0.0000 
     15 O15         0.1033   53.5754   31.1593 O.2       1 UNK         0.0000 
     16 N16        -0.8913   51.6978   30.4818 N.am      1 UNK         0.0000 
     17 N17         1.7552   52.5797   24.1508 N.pl3     1 UNK         0.0000 
     18 C18         1.2507   53.2844   22.9661 C.3       1 UNK         0.0000 
     19 C19         0.9803   52.3620   21.7588 C.3       1 UNK         0.0000 
     20 N20         0.0158   51.2224   22.1520 N.4       1 UNK         0.0000 
     21 C21         0.4939   50.5163   23.4407 C.3       1 UNK         0.0000 
     22 C22         0.7780   51.5461   24.5507 C.3       1 UNK         0.0000 
     23 C23        -0.1563   50.1831   21.0137 C.3       1 UNK         0.0000 
     24 C24        -0.3381   50.7667   19.6150 C.ar      1 UNK         0.0000 
     25 C25         0.7803   50.8204   18.7731 C.ar      1 UNK         0.0000 
     26 C26         0.6794   51.3379   17.4820 C.ar      1 UNK         0.0000 
     27 C27        -0.5548   51.8057   17.0239 C.ar      1 UNK         0.0000 
     28 C28        -1.6765   51.7511   17.8514 C.ar      1 UNK         0.0000 
     29 C29        -1.5818   51.2299   19.1474 C.ar      1 UNK         0.0000 
     30 C30        -2.8319   51.1707   20.0161 C.3       1 UNK         0.0000 
     31 C31         1.9096   51.4036   16.5920 C.3       1 UNK         0.0000 
     32 C32         6.9561   54.9191   22.9117 C.3       1 UNK         0.0000 
     33 H33         3.5316   53.5401   20.3561 H         1 UNK         0.0000 
     34 H34         4.8955   54.5809   20.6921 H         1 UNK         0.0000 
     35 H35         3.3654   54.8939   21.4745 H         1 UNK         0.0000 
     36 H36         3.7106   52.3729   22.4292 H         1 UNK         0.0000 
     37 H37         5.3412   52.6464   22.0177 H         1 UNK         0.0000 
     38 H38        -0.0979   53.2531   28.2104 H         1 UNK         0.0000 
     39 H39         0.8952   51.8436   28.5837 H         1 UNK         0.0000 
     40 H40        -1.0547   50.9707   29.8017 H         1 UNK         0.0000 
     41 H41        -1.2957   51.6125   31.4223 H         1 UNK         0.0000 
     42 H42         0.3023   53.7188   23.2890 H         1 UNK         0.0000 
     43 H43         1.8712   54.1358   22.7025 H         1 UNK         0.0000 
     44 H44         1.8804   51.9007   21.3533 H         1 UNK         0.0000 
     45 H45         0.4753   52.9215   20.9732 H         1 UNK         0.0000 
     46 H46         1.3842   49.9298   23.2014 H         1 UNK         0.0000 
     47 H47        -0.3173   49.8513   23.7429 H         1 UNK         0.0000 
     48 H48         1.1015   51.0318   25.4564 H         1 UNK         0.0000 
     49 H49        -0.1472   52.0699   24.7992 H         1 UNK         0.0000 
     50 H50         0.7392   49.5589   21.0427 H         1 UNK         0.0000 
     51 H51        -0.9941   49.5523   21.3125 H         1 UNK         0.0000 
     52 H52         1.7412   50.4627   19.1198 H         1 UNK         0.0000 
     53 H53        -0.6481   52.2044   16.0229 H         1 UNK         0.0000 
     54 H54        -2.6254   52.1043   17.4709 H         1 UNK         0.0000 
     55 H55        -3.7191   51.5406   19.4981 H         1 UNK         0.0000 
     56 H56        -3.0350   50.1414   20.3133 H         1 UNK         0.0000 
     57 H57        -2.6937   51.7523   20.9285 H         1 UNK         0.0000 
     58 H58         2.8322   51.3447   17.1736 H         1 UNK         0.0000 
     59 H59         1.9057   50.5879   15.8685 H         1 UNK         0.0000 
     60 H60         1.9407   52.3468   16.0454 H         1 UNK         0.0000 
     61 H61         6.6246   55.0879   21.8894 H         1 UNK         0.0000 
     62 H62         7.5037   55.8163   23.1987 H         1 UNK         0.0000 
     63 H63         7.6667   54.0940   22.8861 H         1 UNK         0.0000 
     64 H64        -0.8732   51.6527   22.3663 H         1 UNK         0.0000 
@<TRIPOS>BOND
     1    1    2 1    
     2    1   33 1    
     3    1   34 1    
     4    1   35 1    
     5    2    3 1    
     6    2   36 1    
     7    2   37 1    
     8    3    7 1    
     9    3    4 2    
    10    4    5 1    
    11    4   32 1    
    12    5    6 1    
    13    6   11 ar   
    14    6    7 ar   
    15    7    8 ar   
    16    8    9 ar   
    17    8   17 1    
    18    9   10 ar   
    19   10   11 ar   
    20   10   12 1    
    21   12   13 1    
    22   13   14 1    
    23   13   38 1    
    24   13   39 1    
    25   14   15 2    
    26   14   16 am   BACKBONE|DICT|INTERRES
    27   16   40 1    
    28   16   41 1    
    29   17   22 1    
    30   17   18 1    
    31   18   19 1    
    32   18   42 1    
    33   18   43 1    
    34   19   20 1    
    35   19   44 1    
    36   19   45 1    
    37   20   21 1    
    38   20   23 1    
    39   20   64 1    
    40   21   22 1    
    41   21   46 1    
    42   21   47 1    
    43   22   48 1    
    44   22   49 1    
    45   23   24 1    
    46   23   50 1    
    47   23   51 1    
    48   24   29 ar   
    49   24   25 ar   
    50   25   26 ar   
    51   25   52 1    
    52   26   27 ar   
    53   26   31 1    
    54   27   28 ar   
    55   27   53 1    
    56   28   29 ar   
    57   28   54 1    
    58   29   30 1    
    59   30   55 1    
    60   30   56 1    
    61   30   57 1    
    62   31   58 1    
    63   31   59 1    
    64   31   60 1    
    65   32   61 1    
    66   32   62 1    
    67   32   63 1    
@<TRIPOS>SUBSTRUCTURE
     1 UNK         1 GROUP             0       ****    0 ROOT    
