@<TRIPOS>MOLECULE
ZINC11881817_1067
68   72    1
SMALL
USER_CHARGES


@<TRIPOS>ATOM
      1 C1         13.7391   59.9136   19.7772 C.3       1 UNK         0.0000 
      2 C2         12.4411   59.6714   19.0490 C.2       1 UNK         0.0000 
      3 C3         11.9763   58.4961   18.4660 C.2       1 UNK         0.0000 
      4 C4         10.7792   58.8252   17.8701 C.2       1 UNK         0.0000 
      5 O5         10.5347   60.1355   18.1304 O.3       1 UNK         0.0000 
      6 N6         11.5814   60.6526   18.8926 N.2       1 UNK         0.0000 
      7 C7          9.8124   58.0776   16.9639 C.3       1 UNK         0.0000 
      8 N8          8.3850   58.2900   17.2716 N.am      1 UNK         0.0000 
      9 C9          7.9036   59.6527   17.0051 C.3       1 UNK         0.0000 
     10 C10         7.5731   57.3705   17.8584 C.2       1 UNK         0.0000 
     11 O11         6.4632   57.6700   18.3054 O.2       1 UNK         0.0000 
     12 C12         8.0336   55.8937   17.9341 C.3       1 UNK         0.0000 
     13 O13         6.9738   55.0064   18.3376 O.3       1 UNK         0.0000 
     14 C14         6.5832   54.8975   19.6637 C.ar      1 UNK         0.0000 
     15 C15         7.2368   55.5643   20.7052 C.ar      1 UNK         0.0000 
     16 C16         6.8540   55.3614   22.0221 C.ar      1 UNK         0.0000 
     17 C17         5.8005   54.5011   22.3518 C.ar      1 UNK         0.0000 
     18 C18         5.1066   53.8685   21.3077 C.ar      1 UNK         0.0000 
     19 C19         5.5044   54.0482   19.9722 C.ar      1 UNK         0.0000 
     20 C20         4.8528   53.2033   18.8766 C.3       1 UNK         0.0000 
     21 C21         3.1791   52.7653   17.0651 C.3       1 UNK         0.0000 
     22 C22         4.0260   55.1987   17.4208 C.3       1 UNK         0.0000 
     23 C23         2.8277   55.9818   16.8795 C.2       1 UNK         0.0000 
     24 C24         2.8224   57.2803   16.3574 C.2       1 UNK         0.0000 
     25 N25         1.6051   57.6438   16.0378 N.2       1 UNK         0.0000 
     26 O26         0.8217   56.5411   16.3588 O.3       1 UNK         0.0000 
     27 N27         1.6006   55.5154   16.8817 N.2       1 UNK         0.0000 
     28 C28         3.9688   58.2433   16.1458 C.3       1 UNK         0.0000 
     29 C29         5.4484   54.3136   23.7890 C.ar      1 UNK         0.0000 
     30 C30         4.1049   54.1798   24.2058 C.ar      1 UNK         0.0000 
     31 C31         3.7659   54.0963   25.5648 C.ar      1 UNK         0.0000 
     32 C32         4.8020   54.1271   26.4908 C.ar      1 UNK         0.0000 
     33 C33         6.1051   54.2398   26.1041 C.ar      1 UNK         0.0000 
     34 C34         6.4642   54.3297   24.7677 C.ar      1 UNK         0.0000 
     35 O35         6.9050   54.2928   27.2000 O.3       1 UNK         0.0000 
     36 C36         6.0720   53.9415   28.2700 C.3       1 UNK         0.0000 
     37 O37         4.7432   54.1033   27.8484 O.3       1 UNK         0.0000 
     38 H38        14.2704   60.7767   19.3744 H         1 UNK         0.0000 
     39 H39        14.4103   59.0601   19.6815 H         1 UNK         0.0000 
     40 H40        13.5776   60.0957   20.8402 H         1 UNK         0.0000 
     41 H41        12.4736   57.5375   18.4439 H         1 UNK         0.0000 
     42 H42         9.9779   58.3839   15.9319 H         1 UNK         0.0000 
     43 H43        10.0693   57.0203   16.9719 H         1 UNK         0.0000 
     44 H44         6.8194   59.6947   16.8827 H         1 UNK         0.0000 
     45 H45         8.1644   60.3290   17.8198 H         1 UNK         0.0000 
     46 H46         8.3336   60.0477   16.0827 H         1 UNK         0.0000 
     47 H47         8.3315   55.5794   16.9357 H         1 UNK         0.0000 
     48 H48         8.9225   55.7821   18.5563 H         1 UNK         0.0000 
     49 H49         8.0706   56.2205   20.5174 H         1 UNK         0.0000 
     50 H50         7.3984   55.8860   22.7937 H         1 UNK         0.0000 
     51 H51         4.2933   53.1944   21.5387 H         1 UNK         0.0000 
     52 H52         5.5907   52.8967   18.1299 H         1 UNK         0.0000 
     53 H53         4.4406   52.2855   19.3029 H         1 UNK         0.0000 
     54 H54         3.9960   52.5555   16.3688 H         1 UNK         0.0000 
     55 H55         2.9181   51.8630   17.6239 H         1 UNK         0.0000 
     56 H56         2.3061   53.1322   16.5300 H         1 UNK         0.0000 
     57 H57         4.4919   55.7827   18.2144 H         1 UNK         0.0000 
     58 H58         4.7874   54.9832   16.6692 H         1 UNK         0.0000 
     59 H59         3.9183   58.7383   15.1763 H         1 UNK         0.0000 
     60 H60         3.9740   59.0327   16.8994 H         1 UNK         0.0000 
     61 H61         4.9390   57.7498   16.1916 H         1 UNK         0.0000 
     62 H62         3.3118   54.1806   23.4728 H         1 UNK         0.0000 
     63 H63         2.7345   54.0174   25.8744 H         1 UNK         0.0000 
     64 H64         7.5040   54.4230   24.4881 H         1 UNK         0.0000 
     65 H65         6.2901   54.5408   29.1544 H         1 UNK         0.0000 
     66 H66         6.2442   52.8951   28.5148 H         1 UNK         0.0000 
     67 N67         3.6751   53.8313   18.0803 N.4       1 UNK         0.0000 
     68 H68         2.9346   54.0180   18.7486 H         1 UNK         0.0000 
@<TRIPOS>BOND
     1    1    2 1    
     2    1   38 1    
     3    1   39 1    
     4    1   40 1    
     5    2    6 2    
     6    2    3 1    
     7    3    4 2    
     8    3   41 1    
     9    4    5 1    
    10    4    7 1    
    11    5    6 1    
    12    7    8 1    
    13    7   42 1    
    14    7   43 1    
    15    8    9 1    
    16    8   10 am   BACKBONE|DICT|INTERRES
    17    9   44 1    
    18    9   45 1    
    19    9   46 1    
    20   10   11 2    
    21   10   12 1    
    22   12   13 1    
    23   12   47 1    
    24   12   48 1    
    25   13   14 1    
    26   14   19 ar   
    27   14   15 ar   
    28   15   16 ar   
    29   15   49 1    
    30   16   17 ar   
    31   16   50 1    
    32   17   18 ar   
    33   17   29 1    
    34   18   19 ar   
    35   18   51 1    
    36   19   20 1    
    37   20   52 1    
    38   20   53 1    
    39   20   67 1    
    40   21   54 1    
    41   21   55 1    
    42   21   56 1    
    43   21   67 1    
    44   22   23 1    
    45   22   57 1    
    46   22   58 1    
    47   22   67 1    
    48   23   27 2    
    49   23   24 1    
    50   24   25 2    
    51   24   28 1    
    52   25   26 1    
    53   26   27 1    
    54   28   59 1    
    55   28   60 1    
    56   28   61 1    
    57   29   34 ar   
    58   29   30 ar   
    59   30   31 ar   
    60   30   62 1    
    61   31   32 ar   
    62   31   63 1    
    63   32   37 1    
    64   32   33 ar   
    65   33   34 ar   
    66   33   35 1    
    67   34   64 1    
    68   35   36 1    
    69   36   37 1    
    70   36   65 1    
    71   36   66 1    
    72   67   68 1    
@<TRIPOS>SUBSTRUCTURE
     1 UNK         1 GROUP             0       ****    0 ROOT    
