@<TRIPOS>MOLECULE
ZINC15737486_2452
64   68    1
SMALL
USER_CHARGES


@<TRIPOS>ATOM
      1 C1          6.4042   53.6958   28.2146 C.3       1 UNK         0.0000 
      2 C2          5.1613   54.2606   27.4985 C.3       1 UNK         0.0000 
      3 H3          5.2321   55.3360   27.6456 H         1 UNK         0.0000 
      4 C4          3.7474   53.8352   28.1059 C.3       1 UNK         0.0000 
      5 C5          2.6754   53.6073   26.9817 C.3       1 UNK         0.0000 
      6 C6          1.2864   53.2393   27.5545 C.3       1 UNK         0.0000 
      7 C7          0.7960   54.3819   28.4813 C.3       1 UNK         0.0000 
      8 C8          1.7961   54.5864   29.6423 C.3       1 UNK         0.0000 
      9 C9          3.1878   54.9515   29.0512 C.3       1 UNK         0.0000 
     10 C10         1.8660   53.2617   30.4343 C.3       1 UNK         0.0000 
     11 C11         2.3977   52.1600   29.5217 C.3       1 UNK         0.0000 
     12 C12         1.4094   51.9248   28.3571 C.3       1 UNK         0.0000 
     13 C13         3.8009   52.5462   28.9977 C.3       1 UNK         0.0000 
     14 N14         5.2719   54.0969   26.0398 N.am      1 UNK         0.0000 
     15 C15         6.1477   54.7110   25.2191 C.2       1 UNK         0.0000 
     16 O16         7.0869   55.3879   25.6440 O.2       1 UNK         0.0000 
     17 C17         5.8884   54.5937   23.7254 C.ar      1 UNK         0.0000 
     18 C18         4.8198   53.8410   23.2076 C.ar      1 UNK         0.0000 
     19 C19         4.5871   53.7896   21.8351 C.ar      1 UNK         0.0000 
     20 C20         5.4162   54.4926   20.9587 C.ar      1 UNK         0.0000 
     21 C21         6.4752   55.2507   21.4568 C.ar      1 UNK         0.0000 
     22 C22         6.7044   55.2979   22.8287 C.ar      1 UNK         0.0000 
     23 S23         5.1522   54.3747   19.1917 S.o2      1 UNK         0.0000 
     24 O24         6.3315   53.7013   18.6467 O.2       1 UNK         0.0000 
     25 O25         3.8099   53.8284   18.9799 O.2       1 UNK         0.0000 
     26 N26         5.1402   56.0320   18.5968 N.pl3     1 UNK         0.0000 
     27 C27         6.3456   56.6048   17.9658 C.3       1 UNK         0.0000 
     28 H28         7.1611   56.3174   18.6275 H         1 UNK         0.0000 
     29 C29         6.2620   58.1381   17.8277 C.3       1 UNK         0.0000 
     30 C30         5.3539   58.4963   16.6400 C.3       1 UNK         0.0000 
     31 S31         5.6420   57.1443   15.3762 S.o2      1 UNK         0.0000 
     32 O32         4.3498   56.5541   15.0112 O.2       1 UNK         0.0000 
     33 O33         6.5796   57.5976   14.3435 O.2       1 UNK         0.0000 
     34 C34         6.5533   56.0142   16.5634 C.3       1 UNK         0.0000 
     35 H35         6.3360   53.8782   29.2814 H         1 UNK         0.0000 
     36 H36         6.5040   52.6207   28.0682 H         1 UNK         0.0000 
     37 H37         7.3267   54.1848   27.9028 H         1 UNK         0.0000 
     38 H38         2.9930   52.8078   26.3133 H         1 UNK         0.0000 
     39 H39         2.5870   54.4963   26.3594 H         1 UNK         0.0000 
     40 H40         0.5822   53.0957   26.7348 H         1 UNK         0.0000 
     41 H41         0.7031   55.3090   27.9172 H         1 UNK         0.0000 
     42 H42        -0.1970   54.1458   28.8657 H         1 UNK         0.0000 
     43 H43         1.4456   55.3903   30.2925 H         1 UNK         0.0000 
     44 H44         3.1014   55.8955   28.5161 H         1 UNK         0.0000 
     45 H45         3.8978   55.1269   29.8579 H         1 UNK         0.0000 
     46 H46         0.8854   52.9939   30.8374 H         1 UNK         0.0000 
     47 H47         2.5368   53.2972   31.2816 H         1 UNK         0.0000 
     48 H48         2.4835   51.2963   30.1485 H         1 UNK         0.0000 
     49 H49         1.7580   51.1112   27.7193 H         1 UNK         0.0000 
     50 H50         0.4344   51.6121   28.7382 H         1 UNK         0.0000 
     51 H51         4.4550   52.6987   29.8571 H         1 UNK         0.0000 
     52 H52         4.2325   51.7011   28.4802 H         1 UNK         0.0000 
     53 H53         4.5903   53.4824   25.6248 H         1 UNK         0.0000 
     54 H54         4.1462   53.2983   23.8522 H         1 UNK         0.0000 
     55 H55         3.7642   53.2026   21.4517 H         1 UNK         0.0000 
     56 H56         7.1298   55.7845   20.7863 H         1 UNK         0.0000 
     57 H57         7.5167   55.9067   23.1957 H         1 UNK         0.0000 
     58 H58         4.2465   56.3318   18.2008 H         1 UNK         0.0000 
     59 H59         5.9062   58.6122   18.7432 H         1 UNK         0.0000 
     60 H60         7.2595   58.5374   17.6348 H         1 UNK         0.0000 
     61 H61         4.3163   58.4171   16.9606 H         1 UNK         0.0000 
     62 H62         5.4812   59.4845   16.1962 H         1 UNK         0.0000 
     63 H63         7.6123   56.1393   16.3417 H         1 UNK         0.0000 
     64 H64         6.3584   54.9570   16.3858 H         1 UNK         0.0000 
@<TRIPOS>BOND
     1    1    2 1    
     2    1   35 1    
     3    1   36 1    
     4    1   37 1    
     5    2    3 1    
     6    2    4 1    
     7    2   14 1    
     8    4    9 1    
     9    4   13 1    
    10    4    5 1    
    11    5    6 1    
    12    5   38 1    
    13    5   39 1    
    14    6   12 1    
    15    6    7 1    
    16    6   40 1    
    17    7    8 1    
    18    7   41 1    
    19    7   42 1    
    20    8    9 1    
    21    8   10 1    
    22    8   43 1    
    23    9   44 1    
    24    9   45 1    
    25   10   11 1    
    26   10   46 1    
    27   10   47 1    
    28   11   12 1    
    29   11   13 1    
    30   11   48 1    
    31   12   49 1    
    32   12   50 1    
    33   13   51 1    
    34   13   52 1    
    35   14   15 am   BACKBONE|DICT|INTERRES
    36   14   53 1    
    37   15   16 2    
    38   15   17 1    
    39   17   22 ar   
    40   17   18 ar   
    41   18   19 ar   
    42   18   54 1    
    43   19   20 ar   
    44   19   55 1    
    45   20   21 ar   
    46   20   23 1    
    47   21   22 ar   
    48   21   56 1    
    49   22   57 1    
    50   23   24 2    
    51   23   25 2    
    52   23   26 1    
    53   26   27 1    
    54   26   58 1    
    55   27   28 1    
    56   27   34 1    
    57   27   29 1    
    58   29   30 1    
    59   29   59 1    
    60   29   60 1    
    61   30   31 1    
    62   30   61 1    
    63   30   62 1    
    64   31   32 2    
    65   31   33 2    
    66   31   34 1    
    67   34   63 1    
    68   34   64 1    
@<TRIPOS>SUBSTRUCTURE
     1 UNK         1 GROUP             0       ****    0 ROOT    
