@<TRIPOS>MOLECULE
ZINC15666039_4378
50   52    1
SMALL
USER_CHARGES


@<TRIPOS>ATOM
      1 C1          6.9987   55.3338   22.5018 C.3       1 UNK         0.0000 
      2 C2          6.1414   54.8769   23.6751 C.ar      1 UNK         0.0000 
      3 C3          6.5068   55.2755   24.9678 C.ar      1 UNK         0.0000 
      4 C4          5.7532   54.8965   26.0823 C.ar      1 UNK         0.0000 
      5 C5          4.5833   54.1506   25.9016 C.ar      1 UNK         0.0000 
      6 C6          4.1895   53.7970   24.6133 C.ar      1 UNK         0.0000 
      7 C7          4.9813   54.0970   23.5026 C.ar      1 UNK         0.0000 
      8 S8          4.5075   53.3167   21.9473 S.o2      1 UNK         0.0000 
      9 O9          5.4709   52.2411   21.6982 O.2       1 UNK         0.0000 
     10 O10         3.0730   53.0159   22.0129 O.2       1 UNK         0.0000 
     11 N11         4.7042   54.4993   20.6550 N.pl3     1 UNK         0.0000 
     12 C12         4.3293   54.2902   19.3218 C.ar      1 UNK         0.0000 
     13 C13         3.9886   53.0294   18.8234 C.ar      1 UNK         0.0000 
     14 C14         3.6167   52.8867   17.4895 C.ar      1 UNK         0.0000 
     15 C15         3.5837   54.0001   16.6544 C.ar      1 UNK         0.0000 
     16 C16         3.9257   55.2589   17.1428 C.ar      1 UNK         0.0000 
     17 C17         4.3037   55.4007   18.4750 C.ar      1 UNK         0.0000 
     18 Br18        3.0772   53.7986   14.8309 Br        1 UNK         0.0000 
     19 N19         3.7426   53.6983   26.9252 N.am      1 UNK         0.0000 
     20 C20         3.9761   53.4812   28.2330 C.2       1 UNK         0.0000 
     21 O21         5.0312   53.7349   28.8143 O.2       1 UNK         0.0000 
     22 C22         2.8386   52.8954   28.9302 C.2       1 UNK         0.0000 
     23 C23         1.5126   52.6715   28.4537 C.2       1 UNK         0.0000 
     24 C24         0.7940   52.2037   29.5442 C.2       1 UNK         0.0000 
     25 O25         1.5920   52.0965   30.6263 O.3       1 UNK         0.0000 
     26 C26         2.8475   52.4059   30.2398 C.2       1 UNK         0.0000 
     27 C27         3.9068   52.1142   31.2738 C.3       1 UNK         0.0000 
     28 C28        -0.6426   51.7883   29.7323 C.3       1 UNK         0.0000 
     29 C29         0.9268   52.8964   27.0743 C.3       1 UNK         0.0000 
     30 H30         6.4399   56.0189   21.8676 H         1 UNK         0.0000 
     31 H31         7.8946   55.8665   22.8212 H         1 UNK         0.0000 
     32 H32         7.3177   54.4966   21.8898 H         1 UNK         0.0000 
     33 H33         7.3905   55.8784   25.1057 H         1 UNK         0.0000 
     34 H34         6.0705   55.2015   27.0691 H         1 UNK         0.0000 
     35 H35         3.2982   53.1990   24.4812 H         1 UNK         0.0000 
     36 H36         4.9131   55.4427   20.9352 H         1 UNK         0.0000 
     37 H37         4.0191   52.1501   19.4472 H         1 UNK         0.0000 
     38 H38         3.3737   51.9062   17.1039 H         1 UNK         0.0000 
     39 H39         3.9009   56.1204   16.4916 H         1 UNK         0.0000 
     40 H40         4.5696   56.3808   18.8443 H         1 UNK         0.0000 
     41 H41         2.8369   53.3866   26.6117 H         1 UNK         0.0000 
     42 H42         4.7638   51.6207   30.8201 H         1 UNK         0.0000 
     43 H43         3.5502   51.4738   32.0811 H         1 UNK         0.0000 
     44 H44         4.3011   53.0210   31.7281 H         1 UNK         0.0000 
     45 H45        -1.2953   52.6528   29.6827 H         1 UNK         0.0000 
     46 H46        -0.9653   51.0874   28.9620 H         1 UNK         0.0000 
     47 H47        -0.8267   51.3056   30.6934 H         1 UNK         0.0000 
     48 H48         1.1056   53.9135   26.7303 H         1 UNK         0.0000 
     49 H49         1.3807   52.2391   26.3320 H         1 UNK         0.0000 
     50 H50        -0.1519   52.7384   27.0395 H         1 UNK         0.0000 
@<TRIPOS>BOND
     1    1    2 1    
     2    1   30 1    
     3    1   31 1    
     4    1   32 1    
     5    2    7 ar   
     6    2    3 ar   
     7    3    4 ar   
     8    3   33 1    
     9    4    5 ar   
    10    4   34 1    
    11    5    6 ar   
    12    5   19 1    
    13    6    7 ar   
    14    6   35 1    
    15    7    8 1    
    16    8    9 2    
    17    8   10 2    
    18    8   11 1    
    19   11   12 1    
    20   11   36 1    
    21   12   17 ar   
    22   12   13 ar   
    23   13   14 ar   
    24   13   37 1    
    25   14   15 ar   
    26   14   38 1    
    27   15   16 ar   
    28   15   18 1    
    29   16   17 ar   
    30   16   39 1    
    31   17   40 1    
    32   19   20 am   BACKBONE|DICT|INTERRES
    33   19   41 1    
    34   20   21 2    
    35   20   22 1    
    36   22   26 2    
    37   22   23 1    
    38   23   24 2    
    39   23   29 1    
    40   24   25 1    
    41   24   28 1    
    42   25   26 1    
    43   26   27 1    
    44   27   42 1    
    45   27   43 1    
    46   27   44 1    
    47   28   45 1    
    48   28   46 1    
    49   28   47 1    
    50   29   48 1    
    51   29   49 1    
    52   29   50 1    
@<TRIPOS>SUBSTRUCTURE
     1 UNK         1 GROUP             0       ****    0 ROOT    
