@<TRIPOS>MOLECULE
ZINC36660341_5708
67   70    1
SMALL
USER_CHARGES


@<TRIPOS>ATOM
      1 C1          3.0953   54.8707   28.9167 C.3       1 UNK         0.0000 
      2 C2          4.3519   54.2813   28.2470 C.3       1 UNK         0.0000 
      3 C3          4.3092   54.2439   26.7199 C.ar      1 UNK         0.0000 
      4 C4          3.1502   53.8165   26.0573 C.ar      1 UNK         0.0000 
      5 C5          3.0904   53.7382   24.6643 C.ar      1 UNK         0.0000 
      6 C6          4.2224   54.0974   23.9282 C.ar      1 UNK         0.0000 
      7 C7          5.4018   54.5247   24.5918 C.ar      1 UNK         0.0000 
      8 C8          5.4509   54.5984   25.9914 C.ar      1 UNK         0.0000 
      9 S9          6.6301   54.8948   23.3818 S.3       1 UNK         0.0000 
     10 C10         5.4468   54.4966   22.1332 C.2       1 UNK         0.0000 
     11 N11         4.2929   54.0681   22.5720 N.2       1 UNK         0.0000 
     12 N12         5.7457   54.5683   20.7661 N.am      1 UNK         0.0000 
     13 C13         5.2719   53.4337   19.9477 C.3       1 UNK         0.0000 
     14 C14         3.8761   53.6271   19.3212 C.3       1 UNK         0.0000 
     15 C15         3.5609   52.5131   18.3100 C.3       1 UNK         0.0000 
     16 N16         2.1770   52.6995   17.6514 N.4       1 UNK         0.0000 
     17 C17         2.0437   54.0161   16.8524 C.3       1 UNK         0.0000 
     18 C18         1.8477   51.4733   16.7711 C.3       1 UNK         0.0000 
     19 C19         6.2480   55.7212   20.2167 C.2       1 UNK         0.0000 
     20 O20         6.5177   56.7220   20.8916 O.2       1 UNK         0.0000 
     21 C21         6.4210   55.8616   18.6767 C.3       1 UNK         0.0000 
     22 H22         6.4461   54.8813   18.2174 H         1 UNK         0.0000 
     23 C23         5.3212   56.7605   18.0649 C.3       1 UNK         0.0000 
     24 C24         6.0364   57.7738   17.1949 C.3       1 UNK         0.0000 
     25 C25         7.3711   57.9732   17.8911 C.3       1 UNK         0.0000 
     26 N26         7.6863   56.6054   18.3746 N.pl3     1 UNK         0.0000 
     27 S27         9.0483   55.7249   17.6760 S.o2      1 UNK         0.0000 
     28 O28        10.1583   56.6674   17.5045 O.2       1 UNK         0.0000 
     29 O29         9.2176   54.4962   18.4595 O.2       1 UNK         0.0000 
     30 C30         8.4934   55.2441   16.0401 C.ar      1 UNK         0.0000 
     31 C31         7.8809   54.0010   15.8532 C.ar      1 UNK         0.0000 
     32 C32         7.4250   53.6408   14.5884 C.ar      1 UNK         0.0000 
     33 C33         7.5856   54.5212   13.5174 C.ar      1 UNK         0.0000 
     34 C34         8.2019   55.7565   13.7009 C.ar      1 UNK         0.0000 
     35 C35         8.6588   56.1219   14.9669 C.ar      1 UNK         0.0000 
     36 F36         7.1353   54.1706   12.2912 F         1 UNK         0.0000 
     37 H37         3.2382   54.9536   29.9935 H         1 UNK         0.0000 
     38 H38         2.2172   54.2437   28.7575 H         1 UNK         0.0000 
     39 H39         2.8645   55.8668   28.5385 H         1 UNK         0.0000 
     40 H40         5.2169   54.8635   28.5718 H         1 UNK         0.0000 
     41 H41         4.5158   53.2646   28.6088 H         1 UNK         0.0000 
     42 H42         2.2801   53.5227   26.6243 H         1 UNK         0.0000 
     43 H43         2.1917   53.4051   24.1674 H         1 UNK         0.0000 
     44 H44         6.3495   54.9238   26.4967 H         1 UNK         0.0000 
     45 H45         6.0064   53.1939   19.1802 H         1 UNK         0.0000 
     46 H46         5.2561   52.5277   20.5580 H         1 UNK         0.0000 
     47 H47         3.1167   53.6292   20.1038 H         1 UNK         0.0000 
     48 H48         3.8204   54.5998   18.8437 H         1 UNK         0.0000 
     49 H49         4.2908   52.4685   17.4997 H         1 UNK         0.0000 
     50 H50         3.5072   51.5396   18.7989 H         1 UNK         0.0000 
     51 H51         2.8647   54.0615   16.1344 H         1 UNK         0.0000 
     52 H52         1.0780   54.0044   16.3479 H         1 UNK         0.0000 
     53 H53         2.0828   54.8438   17.5602 H         1 UNK         0.0000 
     54 H54         2.6015   51.4003   15.9857 H         1 UNK         0.0000 
     55 H55         1.8733   50.5867   17.4054 H         1 UNK         0.0000 
     56 H56         0.8518   51.6148   16.3539 H         1 UNK         0.0000 
     57 H57         4.6229   56.1859   17.4554 H         1 UNK         0.0000 
     58 H58         4.7305   57.2785   18.8206 H         1 UNK         0.0000 
     59 H59         6.1877   57.3747   16.1901 H         1 UNK         0.0000 
     60 H60         5.4838   58.7096   17.0922 H         1 UNK         0.0000 
     61 H61         8.1798   58.4391   17.3291 H         1 UNK         0.0000 
     62 H62         7.2351   58.6307   18.7524 H         1 UNK         0.0000 
     63 H63         7.7573   53.3167   16.6827 H         1 UNK         0.0000 
     64 H64         6.9508   52.6830   14.4344 H         1 UNK         0.0000 
     65 H65         8.3238   56.4282   12.8636 H         1 UNK         0.0000 
     66 H66         9.1334   57.0842   15.1094 H         1 UNK         0.0000 
     67 H67         1.5038   52.7259   18.4026 H         1 UNK         0.0000 
@<TRIPOS>BOND
     1    1    2 1    
     2    1   37 1    
     3    1   38 1    
     4    1   39 1    
     5    2    3 1    
     6    2   40 1    
     7    2   41 1    
     8    3    8 ar   
     9    3    4 ar   
    10    4    5 ar   
    11    4   42 1    
    12    5    6 ar   
    13    5   43 1    
    14    6   11 1    
    15    6    7 ar   
    16    7    8 ar   
    17    7    9 1    
    18    8   44 1    
    19    9   10 1    
    20   10   11 2    
    21   10   12 am   BACKBONE|DICT|INTERRES
    22   12   13 1    
    23   12   19 am   BACKBONE|DICT|INTERRES
    24   13   14 1    
    25   13   45 1    
    26   13   46 1    
    27   14   15 1    
    28   14   47 1    
    29   14   48 1    
    30   15   16 1    
    31   15   49 1    
    32   15   50 1    
    33   16   17 1    
    34   16   18 1    
    35   16   67 1    
    36   17   51 1    
    37   17   52 1    
    38   17   53 1    
    39   18   54 1    
    40   18   55 1    
    41   18   56 1    
    42   19   20 2    
    43   19   21 1    
    44   21   22 1    
    45   21   26 1    
    46   21   23 1    
    47   23   24 1    
    48   23   57 1    
    49   23   58 1    
    50   24   25 1    
    51   24   59 1    
    52   24   60 1    
    53   25   26 1    
    54   25   61 1    
    55   25   62 1    
    56   26   27 1    
    57   27   28 2    
    58   27   29 2    
    59   27   30 1    
    60   30   35 ar   
    61   30   31 ar   
    62   31   32 ar   
    63   31   63 1    
    64   32   33 ar   
    65   32   64 1    
    66   33   34 ar   
    67   33   36 1    
    68   34   35 ar   
    69   34   65 1    
    70   35   66 1    
@<TRIPOS>SUBSTRUCTURE
     1 UNK         1 GROUP             0       ****    0 ROOT    
