@<TRIPOS>MOLECULE
ZINC38491256_5606
60   63    1
SMALL
USER_CHARGES


@<TRIPOS>ATOM
      1 C1          2.3638   52.8284   29.5827 C.3       1 UNK         0.0000 
      2 C2          3.1689   53.2821   28.3779 C.ar      1 UNK         0.0000 
      3 C3          4.5629   53.2945   28.4280 C.ar      1 UNK         0.0000 
      4 C4          5.2962   53.6967   27.3166 C.ar      1 UNK         0.0000 
      5 C5          4.6415   54.0968   26.1418 C.ar      1 UNK         0.0000 
      6 C6          3.2420   54.0975   26.1061 C.ar      1 UNK         0.0000 
      7 C7          2.5098   53.6936   27.2196 C.ar      1 UNK         0.0000 
      8 N8          5.4067   54.5217   25.0202 N.pl3     1 UNK         0.0000 
      9 C9          5.2208   54.3419   23.6491 C.ar      1 UNK         0.0000 
     10 C10         6.3047   55.0531   23.0618 C.ar      1 UNK         0.0000 
     11 N11         7.0585   55.5346   24.0328 N.2       1 UNK         0.0000 
     12 N12         6.5169   55.2272   25.2501 N.2       1 UNK         0.0000 
     13 C13         6.6475   55.2970   21.6642 C.2       1 UNK         0.0000 
     14 O14         7.7880   55.6356   21.3330 O.2       1 UNK         0.0000 
     15 N15         5.6235   55.1968   20.7930 N.am      1 UNK         0.0000 
     16 C16         5.6971   55.3658   19.3978 C.ar      1 UNK         0.0000 
     17 C17         5.1927   54.3166   18.6200 C.ar      1 UNK         0.0000 
     18 C18         5.1825   54.3983   17.2279 C.ar      1 UNK         0.0000 
     19 C19         5.6863   55.5367   16.6057 C.ar      1 UNK         0.0000 
     20 C20         6.1723   56.5952   17.3693 C.ar      1 UNK         0.0000 
     21 C21         6.1747   56.5424   18.7762 C.ar      1 UNK         0.0000 
     22 O22         6.6049   57.6039   19.5594 O.3       1 UNK         0.0000 
     23 C23         6.9069   58.8483   18.9290 C.3       1 UNK         0.0000 
     24 C24         4.6400   53.2483   16.3974 C.3       1 UNK         0.0000 
     25 C25         4.0277   53.5648   23.0904 C.3       1 UNK         0.0000 
     26 S26         4.3965   52.4873   21.6816 S.3       1 UNK         0.0000 
     27 C27         3.0775   51.3242   21.4881 C.ar      1 UNK         0.0000 
     28 N28         3.1048   50.5795   20.3546 N.ar      1 UNK         0.0000 
     29 C29         2.1455   49.6306   20.2215 C.ar      1 UNK         0.0000 
     30 C30         1.1686   49.4105   21.1975 C.ar      1 UNK         0.0000 
     31 C31         1.2195   50.2333   22.3273 C.ar      1 UNK         0.0000 
     32 N32         2.1592   51.2044   22.4825 N.ar      1 UNK         0.0000 
     33 C33         0.2388   50.0704   23.4708 C.3       1 UNK         0.0000 
     34 C34         2.2135   48.8069   18.9520 C.3       1 UNK         0.0000 
     35 H35         1.9503   51.8340   29.4069 H         1 UNK         0.0000 
     36 H36         2.9648   52.8110   30.4936 H         1 UNK         0.0000 
     37 H37         1.5306   53.5103   29.7578 H         1 UNK         0.0000 
     38 H38         5.0855   52.9727   29.3142 H         1 UNK         0.0000 
     39 H39         6.3764   53.6802   27.3767 H         1 UNK         0.0000 
     40 H40         2.7042   54.4387   25.2339 H         1 UNK         0.0000 
     41 H41         1.4304   53.7022   27.1797 H         1 UNK         0.0000 
     42 H42         4.7662   54.7970   21.1431 H         1 UNK         0.0000 
     43 H43         4.8077   53.4202   19.0855 H         1 UNK         0.0000 
     44 H44         5.6931   55.6092   15.5274 H         1 UNK         0.0000 
     45 H45         6.5348   57.4623   16.8387 H         1 UNK         0.0000 
     46 H46         7.1022   59.6094   19.6818 H         1 UNK         0.0000 
     47 H47         7.7962   58.7732   18.3008 H         1 UNK         0.0000 
     48 H48         6.0718   59.2104   18.3275 H         1 UNK         0.0000 
     49 H49         5.1193   53.2037   15.4195 H         1 UNK         0.0000 
     50 H50         3.5634   53.3501   16.2597 H         1 UNK         0.0000 
     51 H51         4.8354   52.2907   16.8802 H         1 UNK         0.0000 
     52 H52         3.6095   52.8996   23.8397 H         1 UNK         0.0000 
     53 H53         3.2190   54.2387   22.8042 H         1 UNK         0.0000 
     54 H54         0.4198   48.6411   21.0869 H         1 UNK         0.0000 
     55 H55        -0.5492   49.3554   23.2273 H         1 UNK         0.0000 
     56 H56         0.7565   49.7116   24.3606 H         1 UNK         0.0000 
     57 H57        -0.2353   51.0228   23.7115 H         1 UNK         0.0000 
     58 H58         1.3400   48.1659   18.8351 H         1 UNK         0.0000 
     59 H59         2.2722   49.4596   18.0808 H         1 UNK         0.0000 
     60 H60         3.1042   48.1784   18.9516 H         1 UNK         0.0000 
@<TRIPOS>BOND
     1    1    2 1    
     2    1   35 1    
     3    1   36 1    
     4    1   37 1    
     5    2    7 ar   
     6    2    3 ar   
     7    3    4 ar   
     8    3   38 1    
     9    4    5 ar   
    10    4   39 1    
    11    5    6 ar   
    12    5    8 1    
    13    6    7 ar   
    14    6   40 1    
    15    7   41 1    
    16    8   12 ar   
    17    8    9 ar   
    18    9   10 ar   
    19    9   25 1    
    20   10   11 ar   
    21   10   13 1    
    22   11   12 ar   
    23   13   14 2    
    24   13   15 am   BACKBONE|DICT|INTERRES
    25   15   16 1    
    26   15   42 1    
    27   16   21 ar   
    28   16   17 ar   
    29   17   18 ar   
    30   17   43 1    
    31   18   19 ar   
    32   18   24 1    
    33   19   20 ar   
    34   19   44 1    
    35   20   21 ar   
    36   20   45 1    
    37   21   22 1    
    38   22   23 1    
    39   23   46 1    
    40   23   47 1    
    41   23   48 1    
    42   24   49 1    
    43   24   50 1    
    44   24   51 1    
    45   25   26 1    
    46   25   52 1    
    47   25   53 1    
    48   26   27 1    
    49   27   32 ar   
    50   27   28 ar   
    51   28   29 ar   
    52   29   30 ar   
    53   29   34 1    
    54   30   31 ar   
    55   30   54 1    
    56   31   32 ar   
    57   31   33 1    
    58   33   55 1    
    59   33   56 1    
    60   33   57 1    
    61   34   58 1    
    62   34   59 1    
    63   34   60 1    
@<TRIPOS>SUBSTRUCTURE
     1 UNK         1 GROUP             0       ****    0 ROOT    
