@<TRIPOS>MOLECULE
ZINC36311773_1187
68   71    1
SMALL
USER_CHARGES


@<TRIPOS>ATOM
      1 C1          3.7631   54.5313   27.7372 C.3       1 UNK         0.0000 
      2 C2          5.1884   54.5568   27.1441 C.3       1 UNK         0.0000 
      3 C3          6.0744   53.4861   27.8037 C.3       1 UNK         0.0000 
      4 C4          5.2585   54.5017   25.6105 C.ar      1 UNK         0.0000 
      5 C5          6.4516   54.8768   24.9901 C.ar      1 UNK         0.0000 
      6 C6          6.5633   54.8730   23.6064 C.ar      1 UNK         0.0000 
      7 C7          5.4717   54.4966   22.8169 C.ar      1 UNK         0.0000 
      8 C8          4.2823   54.0945   23.4251 C.ar      1 UNK         0.0000 
      9 C9          4.1753   54.0982   24.8164 C.ar      1 UNK         0.0000 
     10 N10         5.5358   54.4862   21.4131 N.am      1 UNK         0.0000 
     11 C11         6.1865   55.3815   20.6289 C.2       1 UNK         0.0000 
     12 O12         6.7041   56.4050   21.0808 O.2       1 UNK         0.0000 
     13 C13         6.3244   55.0513   19.1150 C.3       1 UNK         0.0000 
     14 H14         7.0334   54.2210   19.1062 H         1 UNK         0.0000 
     15 C15         6.9162   56.1497   18.1550 C.3       1 UNK         0.0000 
     16 C16         6.3510   57.5913   18.2164 C.3       1 UNK         0.0000 
     17 C17         7.4233   58.4964   17.5968 C.3       1 UNK         0.0000 
     18 C18         8.7511   57.7311   17.6957 C.3       1 UNK         0.0000 
     19 C19         8.4277   56.3806   18.3473 C.3       1 UNK         0.0000 
     20 N20         5.0236   54.3696   18.5684 N.4       1 UNK         0.0000 
     21 C21         3.9702   55.3421   17.9866 C.3       1 UNK         0.0000 
     22 C22         2.6940   54.5625   17.5993 C.3       1 UNK         0.0000 
     23 N23         3.0721   53.5096   16.6354 N.am      1 UNK         0.0000 
     24 C24         4.0468   52.5275   17.1519 C.3       1 UNK         0.0000 
     25 C25         5.3439   53.2777   17.5174 C.3       1 UNK         0.0000 
     26 C26         2.3433   53.3166   15.4987 C.2       1 UNK         0.0000 
     27 O27         1.2899   53.9236   15.2765 O.2       1 UNK         0.0000 
     28 C28         2.8417   52.3435   14.4527 C.ar      1 UNK         0.0000 
     29 C29         4.1878   52.3222   14.0514 C.ar      1 UNK         0.0000 
     30 C30         4.6261   51.4162   13.0841 C.ar      1 UNK         0.0000 
     31 C31         3.7223   50.5332   12.4949 C.ar      1 UNK         0.0000 
     32 C32         2.3782   50.5626   12.8649 C.ar      1 UNK         0.0000 
     33 C33         1.9394   51.4679   13.8329 C.ar      1 UNK         0.0000 
     34 Br34        1.1448   49.3630   12.0525 Br        1 UNK         0.0000 
     35 H35         3.1253   55.2917   27.2845 H         1 UNK         0.0000 
     36 H36         3.7840   54.7256   28.8095 H         1 UNK         0.0000 
     37 H37         3.2845   53.5619   27.5919 H         1 UNK         0.0000 
     38 H38         5.6150   55.5216   27.4205 H         1 UNK         0.0000 
     39 H39         7.0934   53.4966   27.4164 H         1 UNK         0.0000 
     40 H40         6.1389   53.6377   28.8814 H         1 UNK         0.0000 
     41 H41         5.6628   52.4966   27.6330 H         1 UNK         0.0000 
     42 H42         7.3000   55.1762   25.5832 H         1 UNK         0.0000 
     43 H43         7.4987   55.1679   23.1574 H         1 UNK         0.0000 
     44 H44         3.4336   53.7899   22.8287 H         1 UNK         0.0000 
     45 H45         3.2431   53.7895   25.2632 H         1 UNK         0.0000 
     46 H46         5.0241   53.7366   20.9766 H         1 UNK         0.0000 
     47 H47         6.8133   55.8287   17.1170 H         1 UNK         0.0000 
     48 H48         5.3746   57.7188   17.7545 H         1 UNK         0.0000 
     49 H49         6.2248   57.9197   19.2462 H         1 UNK         0.0000 
     50 H50         7.1821   58.7002   16.5517 H         1 UNK         0.0000 
     51 H51         7.4716   59.4648   18.0998 H         1 UNK         0.0000 
     52 H52         9.1742   57.5793   16.6997 H         1 UNK         0.0000 
     53 H53         9.4924   58.2827   18.2788 H         1 UNK         0.0000 
     54 H54         8.6592   56.4745   19.4097 H         1 UNK         0.0000 
     55 H55         9.0376   55.5518   17.9828 H         1 UNK         0.0000 
     56 H56         3.7426   56.0522   18.7827 H         1 UNK         0.0000 
     57 H57         4.3917   55.8644   17.1268 H         1 UNK         0.0000 
     58 H58         2.2573   54.0963   18.4816 H         1 UNK         0.0000 
     59 H59         1.9387   55.2459   17.2047 H         1 UNK         0.0000 
     60 H60         4.2455   51.6970   16.4763 H         1 UNK         0.0000 
     61 H61         3.6390   52.0507   18.0461 H         1 UNK         0.0000 
     62 H62         5.8487   53.7278   16.6596 H         1 UNK         0.0000 
     63 H63         6.0204   52.5647   17.9955 H         1 UNK         0.0000 
     64 H64         4.9028   53.0070   14.4829 H         1 UNK         0.0000 
     65 H65         5.6656   51.3999   12.7913 H         1 UNK         0.0000 
     66 H66         4.0612   49.8309   11.7473 H         1 UNK         0.0000 
     67 H67         0.8933   51.4728   14.1098 H         1 UNK         0.0000 
     68 H68         4.5881   53.8895   19.3405 H         1 UNK         0.0000 
@<TRIPOS>BOND
     1    1    2 1    
     2    1   35 1    
     3    1   36 1    
     4    1   37 1    
     5    2    3 1    
     6    2    4 1    
     7    2   38 1    
     8    3   39 1    
     9    3   40 1    
    10    3   41 1    
    11    4    9 ar   
    12    4    5 ar   
    13    5    6 ar   
    14    5   42 1    
    15    6    7 ar   
    16    6   43 1    
    17    7    8 ar   
    18    7   10 1    
    19    8    9 ar   
    20    8   44 1    
    21    9   45 1    
    22   10   11 am   BACKBONE|DICT|INTERRES
    23   10   46 1    
    24   11   12 2    
    25   11   13 1    
    26   13   14 1    
    27   13   15 1    
    28   13   20 1    
    29   15   19 1    
    30   15   16 1    
    31   15   47 1    
    32   16   17 1    
    33   16   48 1    
    34   16   49 1    
    35   17   18 1    
    36   17   50 1    
    37   17   51 1    
    38   18   19 1    
    39   18   52 1    
    40   18   53 1    
    41   19   54 1    
    42   19   55 1    
    43   20   25 1    
    44   20   21 1    
    45   20   68 1    
    46   21   22 1    
    47   21   56 1    
    48   21   57 1    
    49   22   23 1    
    50   22   58 1    
    51   22   59 1    
    52   23   24 1    
    53   23   26 am   BACKBONE|DICT|INTERRES
    54   24   25 1    
    55   24   60 1    
    56   24   61 1    
    57   25   62 1    
    58   25   63 1    
    59   26   27 2    
    60   26   28 1    
    61   28   33 ar   
    62   28   29 ar   
    63   29   30 ar   
    64   29   64 1    
    65   30   31 ar   
    66   30   65 1    
    67   31   32 ar   
    68   31   66 1    
    69   32   33 ar   
    70   32   34 1    
    71   33   67 1    
@<TRIPOS>SUBSTRUCTURE
     1 UNK         1 GROUP             0       ****    0 ROOT    
