@<TRIPOS>MOLECULE
ZINC39676560_898
76   79    1
SMALL
USER_CHARGES


@<TRIPOS>ATOM
      1 C1         -6.3279   50.1828   20.4054 C.3       1 UNK         0.0000 
      2 C2         -4.9539   50.6256   19.8708 C.3       1 UNK         0.0000 
      3 C3         -3.7583   50.2832   20.8165 C.3       1 UNK         0.0000 
      4 H4         -4.1020   50.4948   21.8303 H         1 UNK         0.0000 
      5 C5         -3.4214   48.7722   20.7075 C.3       1 UNK         0.0000 
      6 C6         -2.5205   51.2043   20.5937 C.2       1 UNK         0.0000 
      7 O7         -2.5342   52.0069   19.6551 O.2       1 UNK         0.0000 
      8 N8         -1.4711   51.1781   21.4540 N.am      1 UNK         0.0000 
      9 C9         -0.2501   51.9330   21.1640 C.3       1 UNK         0.0000 
     10 C10         0.8037   51.0979   21.8923 C.3       1 UNK         0.0000 
     11 H11         1.0224   50.2604   21.2237 H         1 UNK         0.0000 
     12 C12         0.1085   50.6156   23.1917 C.3       1 UNK         0.0000 
     13 C13        -1.2821   50.2667   22.5944 C.3       1 UNK         0.0000 
     14 C14         0.8366   49.4345   23.8725 C.3       1 UNK         0.0000 
     15 C15         0.0114   48.8411   25.0327 C.3       1 UNK         0.0000 
     16 N16        -0.2869   49.9366   26.0816 N.4       1 UNK         0.0000 
     17 C17        -0.8668   51.2486   25.5002 C.3       1 UNK         0.0000 
     18 C18         0.0113   51.7057   24.3064 C.3       1 UNK         0.0000 
     19 C19         2.1506   51.8346   22.0413 C.2       1 UNK         0.0000 
     20 O20         3.1541   51.1388   22.0816 O.2       1 UNK         0.0000 
     21 N21         2.2000   53.1817   22.0457 N.am      1 UNK         0.0000 
     22 C22         3.3941   54.0490   22.1305 C.3       1 UNK         0.0000 
     23 C23         4.0179   54.0966   23.5465 C.ar      1 UNK         0.0000 
     24 C24         3.1773   54.3617   24.6338 C.ar      1 UNK         0.0000 
     25 C25         3.6922   54.4725   25.9227 C.ar      1 UNK         0.0000 
     26 C26         5.0571   54.3307   26.1558 C.ar      1 UNK         0.0000 
     27 C27         5.9116   54.0964   25.0696 C.ar      1 UNK         0.0000 
     28 C28         5.3914   53.9477   23.7852 C.ar      1 UNK         0.0000 
     29 O29         5.4686   54.4148   27.4715 O.3       1 UNK         0.0000 
     30 C30         6.8169   54.0966   27.7971 C.3       1 UNK         0.0000 
     31 C31         4.3423   54.0522   20.8986 C.ar      1 UNK         0.0000 
     32 C32         5.4501   54.9131   20.8606 C.ar      1 UNK         0.0000 
     33 C33         6.3066   54.9411   19.7632 C.ar      1 UNK         0.0000 
     34 C34         6.0733   54.1182   18.6660 C.ar      1 UNK         0.0000 
     35 C35         4.9402   53.2969   18.6675 C.ar      1 UNK         0.0000 
     36 C36         4.0922   53.2605   19.7696 C.ar      1 UNK         0.0000 
     37 O37         6.9955   54.1701   17.6408 O.3       1 UNK         0.0000 
     38 C38         6.8716   53.2541   16.5569 C.3       1 UNK         0.0000 
     39 H39        -7.1220   50.4612   19.7113 H         1 UNK         0.0000 
     40 H40        -6.5513   50.6575   21.3615 H         1 UNK         0.0000 
     41 H41        -6.3874   49.1023   20.5448 H         1 UNK         0.0000 
     42 H42        -4.7838   50.1872   18.8851 H         1 UNK         0.0000 
     43 H43        -5.0236   51.6967   19.6816 H         1 UNK         0.0000 
     44 H44        -2.9353   48.3811   21.5988 H         1 UNK         0.0000 
     45 H45        -4.3178   48.1642   20.5780 H         1 UNK         0.0000 
     46 H46        -2.7793   48.5608   19.8497 H         1 UNK         0.0000 
     47 H47         0.0010   52.0240   20.1045 H         1 UNK         0.0000 
     48 H48        -0.3369   52.8967   21.6523 H         1 UNK         0.0000 
     49 H49        -2.1060   50.1972   23.3022 H         1 UNK         0.0000 
     50 H50        -1.1683   49.2703   22.1710 H         1 UNK         0.0000 
     51 H51         0.9837   48.6385   23.1433 H         1 UNK         0.0000 
     52 H52         1.8457   49.7065   24.1843 H         1 UNK         0.0000 
     53 H53        -0.9476   48.4224   24.7269 H         1 UNK         0.0000 
     54 H54         0.5829   48.0968   25.5779 H         1 UNK         0.0000 
     55 H55        -0.8954   49.5468   26.7999 H         1 UNK         0.0000 
     56 H56        -1.9032   51.0414   25.2332 H         1 UNK         0.0000 
     57 H57        -0.8619   51.9701   26.3190 H         1 UNK         0.0000 
     58 H58         1.0011   52.0158   24.6450 H         1 UNK         0.0000 
     59 H59        -0.4483   52.6078   23.9011 H         1 UNK         0.0000 
     60 H60         1.3504   53.6771   21.8309 H         1 UNK         0.0000 
     61 H61         2.9513   55.0410   22.0510 H         1 UNK         0.0000 
     62 H62         2.1157   54.4933   24.4808 H         1 UNK         0.0000 
     63 H63         3.0286   54.6647   26.7534 H         1 UNK         0.0000 
     64 H64         6.9748   53.9735   25.2072 H         1 UNK         0.0000 
     65 H65         6.0782   53.7051   22.9907 H         1 UNK         0.0000 
     66 H66         6.9386   54.0965   28.8800 H         1 UNK         0.0000 
     67 H67         7.0976   53.1039   27.4404 H         1 UNK         0.0000 
     68 H68         7.5045   54.8345   27.3853 H         1 UNK         0.0000 
     69 H69         5.6566   55.5828   21.6816 H         1 UNK         0.0000 
     70 H70         7.1649   55.5961   19.7637 H         1 UNK         0.0000 
     71 H71         4.7136   52.6442   17.8383 H         1 UNK         0.0000 
     72 H72         3.2395   52.6029   19.7154 H         1 UNK         0.0000 
     73 H73         7.7020   53.3968   15.8652 H         1 UNK         0.0000 
     74 H74         6.9030   52.2180   16.9004 H         1 UNK         0.0000 
     75 H75         5.9490   53.4177   15.9980 H         1 UNK         0.0000 
     76 H76         0.5773   50.1522   26.5588 H         1 UNK         0.0000 
@<TRIPOS>BOND
     1    1    2 1    
     2    1   39 1    
     3    1   40 1    
     4    1   41 1    
     5    2    3 1    
     6    2   42 1    
     7    2   43 1    
     8    3    4 1    
     9    3    5 1    
    10    3    6 1    
    11    5   44 1    
    12    5   45 1    
    13    5   46 1    
    14    6    7 2    
    15    6    8 am   BACKBONE|DICT|INTERRES
    16    8   13 1    
    17    8    9 1    
    18    9   10 1    
    19    9   47 1    
    20    9   48 1    
    21   10   11 1    
    22   10   12 1    
    23   10   19 1    
    24   12   18 1    
    25   12   13 1    
    26   12   14 1    
    27   13   49 1    
    28   13   50 1    
    29   14   15 1    
    30   14   51 1    
    31   14   52 1    
    32   15   16 1    
    33   15   53 1    
    34   15   54 1    
    35   16   17 1    
    36   16   55 1    
    37   16   76 1    
    38   17   18 1    
    39   17   56 1    
    40   17   57 1    
    41   18   58 1    
    42   18   59 1    
    43   19   20 2    
    44   19   21 am   BACKBONE|DICT|INTERRES
    45   21   22 1    
    46   21   60 1    
    47   22   23 1    
    48   22   31 1    
    49   22   61 1    
    50   23   28 ar   
    51   23   24 ar   
    52   24   25 ar   
    53   24   62 1    
    54   25   26 ar   
    55   25   63 1    
    56   26   27 ar   
    57   26   29 1    
    58   27   28 ar   
    59   27   64 1    
    60   28   65 1    
    61   29   30 1    
    62   30   66 1    
    63   30   67 1    
    64   30   68 1    
    65   31   36 ar   
    66   31   32 ar   
    67   32   33 ar   
    68   32   69 1    
    69   33   34 ar   
    70   33   70 1    
    71   34   35 ar   
    72   34   37 1    
    73   35   36 ar   
    74   35   71 1    
    75   36   72 1    
    76   37   38 1    
    77   38   73 1    
    78   38   74 1    
    79   38   75 1    
@<TRIPOS>SUBSTRUCTURE
     1 UNK         1 GROUP             0       ****    0 ROOT    
