@<TRIPOS>MOLECULE
ZINC32528120_437
48   51    1
SMALL
USER_CHARGES


@<TRIPOS>ATOM
      1 C1          0.8459   52.9916   31.4532 C.3       1 UNK         0.0000 
      2 C2          0.8478   54.1129   30.3930 C.3       1 UNK         0.0000 
      3 C3          1.7715   53.9267   29.1541 C.3       1 UNK         0.0000 
      4 H4          1.6016   54.8070   28.5306 H         1 UNK         0.0000 
      5 C5          1.4247   52.6668   28.3276 C.2       1 UNK         0.0000 
      6 O6          1.4951   51.5522   28.8447 O.2       1 UNK         0.0000 
      7 N7          1.1018   52.8975   27.0382 N.am      1 UNK         0.0000 
      8 C8          0.7045   51.9952   26.0715 C.2       1 UNK         0.0000 
      9 N9          0.6694   52.3749   24.8268 N.2       1 UNK         0.0000 
     10 C10         0.2386   51.3727   24.0167 C.ar      1 UNK         0.0000 
     11 C11         0.1064   51.4771   22.6250 C.ar      1 UNK         0.0000 
     12 C12        -0.3855   50.3770   21.9222 C.ar      1 UNK         0.0000 
     13 C13        -0.7496   49.1983   22.5803 C.ar      1 UNK         0.0000 
     14 C14        -0.5935   49.0602   23.9648 C.ar      1 UNK         0.0000 
     15 C15        -0.0995   50.1604   24.6757 C.ar      1 UNK         0.0000 
     16 S16         0.2007   50.3414   26.3966 S.3       1 UNK         0.0000 
     17 S17        -1.4404   47.8613   21.6186 S.o2      1 UNK         0.0000 
     18 O18        -0.5404   47.6409   20.4818 O.2       1 UNK         0.0000 
     19 O19        -1.7968   46.7764   22.5389 O.2       1 UNK         0.0000 
     20 N20        -2.9270   48.5143   20.9859 N.pl3     1 UNK         0.0000 
     21 S21         3.5562   54.0018   29.5565 S.3       1 UNK         0.0000 
     22 C22         4.5121   54.0947   28.0611 C.ar      1 UNK         0.0000 
     23 C23         5.9021   54.0975   28.1497 C.ar      1 UNK         0.0000 
     24 C24         6.6617   54.1238   26.9825 C.ar      1 UNK         0.0000 
     25 C25         6.0072   54.1371   25.7266 C.ar      1 UNK         0.0000 
     26 C26         6.7032   54.1271   24.4923 C.ar      1 UNK         0.0000 
     27 C27         5.9953   54.1067   23.2927 C.ar      1 UNK         0.0000 
     28 C28         4.6032   54.0963   23.2876 C.ar      1 UNK         0.0000 
     29 C29         3.8894   54.1233   24.4837 C.ar      1 UNK         0.0000 
     30 C30         4.5790   54.1425   25.7207 C.ar      1 UNK         0.0000 
     31 N31         3.8567   54.1433   26.8744 N.ar      1 UNK         0.0000 
     32 H32         0.3140   53.3049   32.3528 H         1 UNK         0.0000 
     33 H33         0.3367   52.0971   31.0937 H         1 UNK         0.0000 
     34 H34         1.8543   52.7026   31.7480 H         1 UNK         0.0000 
     35 H35         1.1155   55.0506   30.8823 H         1 UNK         0.0000 
     36 H36        -0.1788   54.2650   30.0547 H         1 UNK         0.0000 
     37 H37         1.2581   53.8306   26.6938 H         1 UNK         0.0000 
     38 H38         0.3760   52.3871   22.1086 H         1 UNK         0.0000 
     39 H39        -0.4957   50.4445   20.8477 H         1 UNK         0.0000 
     40 H40        -0.8577   48.1453   24.4814 H         1 UNK         0.0000 
     41 H41        -3.6186   48.7211   21.7094 H         1 UNK         0.0000 
     42 H42        -2.7865   49.2779   20.3222 H         1 UNK         0.0000 
     43 H43         6.3954   54.0812   29.1110 H         1 UNK         0.0000 
     44 H44         7.7387   54.1136   27.0333 H         1 UNK         0.0000 
     45 H45         7.7824   54.1173   24.4813 H         1 UNK         0.0000 
     46 H46         6.5318   54.0969   22.3554 H         1 UNK         0.0000 
     47 H47         4.0710   54.0777   22.3469 H         1 UNK         0.0000 
     48 H48         2.8090   54.1181   24.4725 H         1 UNK         0.0000 
@<TRIPOS>BOND
     1    1    2 1    
     2    1   32 1    
     3    1   33 1    
     4    1   34 1    
     5    2    3 1    
     6    2   35 1    
     7    2   36 1    
     8    3    4 1    
     9    3    5 1    
    10    3   21 1    
    11    5    6 2    
    12    5    7 am   BACKBONE|DICT|INTERRES
    13    7    8 am   BACKBONE|DICT|INTERRES
    14    7   37 1    
    15    8   16 1    
    16    8    9 2    
    17    9   10 1    
    18   10   15 ar   
    19   10   11 ar   
    20   11   12 ar   
    21   11   38 1    
    22   12   13 ar   
    23   12   39 1    
    24   13   14 ar   
    25   13   17 1    
    26   14   15 ar   
    27   14   40 1    
    28   15   16 1    
    29   17   18 2    
    30   17   19 2    
    31   17   20 1    
    32   20   41 1    
    33   20   42 1    
    34   21   22 1    
    35   22   31 ar   
    36   22   23 ar   
    37   23   24 ar   
    38   23   43 1    
    39   24   25 ar   
    40   24   44 1    
    41   25   30 ar   
    42   25   26 ar   
    43   26   27 ar   
    44   26   45 1    
    45   27   28 ar   
    46   27   46 1    
    47   28   29 ar   
    48   28   47 1    
    49   29   30 ar   
    50   29   48 1    
    51   30   31 ar   
@<TRIPOS>SUBSTRUCTURE
     1 UNK         1 GROUP             0       ****    0 ROOT    
