@<TRIPOS>MOLECULE
ZINC36213802_2726
70   72    1
SMALL
USER_CHARGES


@<TRIPOS>ATOM
      1 C1          4.9091   54.2733   25.5503 C.3       1 UNK         0.0000 
      2 C2          5.0684   54.3716   24.0354 C.ar      1 UNK         0.0000 
      3 C3          6.3045   54.7987   23.5343 C.ar      1 UNK         0.0000 
      4 C4          6.5178   54.8969   22.1618 C.ar      1 UNK         0.0000 
      5 C5          5.5041   54.5526   21.2723 C.ar      1 UNK         0.0000 
      6 C6          4.2738   54.1136   21.7547 C.ar      1 UNK         0.0000 
      7 C7          4.0329   54.0211   23.1353 C.ar      1 UNK         0.0000 
      8 C8          2.6904   53.5212   23.6139 C.2       1 UNK         0.0000 
      9 O9          2.0725   54.1058   24.4995 O.2       1 UNK         0.0000 
     10 N10         2.3046   52.3672   23.0442 N.am      1 UNK         0.0000 
     11 C11         1.1518   51.4892   23.2934 C.3       1 UNK         0.0000 
     12 H12         1.7005   50.5588   23.4076 H         1 UNK         0.0000 
     13 C13         0.3862   51.6678   24.6520 C.3       1 UNK         0.0000 
     14 C14        -0.7920   52.6764   24.6940 C.3       1 UNK         0.0000 
     15 C15        -1.2381   52.8965   26.1695 C.3       1 UNK         0.0000 
     16 N16        -1.6521   51.5887   26.7129 N.am      1 UNK         0.0000 
     17 C17        -0.5597   50.5857   26.6911 C.3       1 UNK         0.0000 
     18 C18        -0.1826   50.3486   25.2105 C.3       1 UNK         0.0000 
     19 C19        -2.9742   51.2596   26.6770 C.2       1 UNK         0.0000 
     20 O20        -3.8375   52.0202   26.2276 O.2       1 UNK         0.0000 
     21 N21        -3.2968   50.0968   27.2811 N.am      1 UNK         0.0000 
     22 C22        -4.6344   49.5159   27.4887 C.3       1 UNK         0.0000 
     23 C23        -5.5298   50.4456   28.3429 C.3       1 UNK         0.0000 
     24 C24        -4.4564   48.1907   28.2576 C.3       1 UNK         0.0000 
     25 C25        -5.3246   49.2062   26.1399 C.3       1 UNK         0.0000 
     26 C26         0.2782   51.4393   22.0115 C.2       1 UNK         0.0000 
     27 O27        -0.2581   52.4904   21.6521 O.2       1 UNK         0.0000 
     28 N28         0.1526   50.2778   21.3090 N.am      1 UNK         0.0000 
     29 C29         0.8276   49.0145   21.6530 C.3       1 UNK         0.0000 
     30 C30         2.1776   49.0045   20.8983 C.3       1 UNK         0.0000 
     31 C31         1.9767   49.1782   19.3760 C.3       1 UNK         0.0000 
     32 C32         1.0298   50.3578   19.0494 C.3       1 UNK         0.0000 
     33 C33        -0.2691   50.3295   19.8968 C.3       1 UNK         0.0000 
     34 H34         5.8580   54.3828   26.0758 H         1 UNK         0.0000 
     35 H35         4.2192   55.0375   25.9090 H         1 UNK         0.0000 
     36 H36         4.5019   53.3008   25.8297 H         1 UNK         0.0000 
     37 H37         7.1081   55.0628   24.2065 H         1 UNK         0.0000 
     38 H38         7.4731   55.2354   21.7893 H         1 UNK         0.0000 
     39 H39         5.6700   54.6262   20.2073 H         1 UNK         0.0000 
     40 H40         3.5007   53.8646   21.0395 H         1 UNK         0.0000 
     41 H41         2.8925   52.0430   22.2921 H         1 UNK         0.0000 
     42 H42         1.1440   51.9918   25.3674 H         1 UNK         0.0000 
     43 H43        -1.6187   52.3750   24.0486 H         1 UNK         0.0000 
     44 H44        -0.4683   53.6271   24.2712 H         1 UNK         0.0000 
     45 H45        -2.0106   53.6547   26.3193 H         1 UNK         0.0000 
     46 H46        -0.3943   53.2159   26.7844 H         1 UNK         0.0000 
     47 H47         0.2824   51.0213   27.2302 H         1 UNK         0.0000 
     48 H48        -0.7612   49.6983   27.2653 H         1 UNK         0.0000 
     49 H49         0.5903   49.5794   25.1785 H         1 UNK         0.0000 
     50 H50        -0.9935   49.9424   24.6029 H         1 UNK         0.0000 
     51 H51        -2.5421   49.5431   27.6821 H         1 UNK         0.0000 
     52 H52        -6.4887   49.9777   28.5683 H         1 UNK         0.0000 
     53 H53        -5.7477   51.3860   27.8364 H         1 UNK         0.0000 
     54 H54        -5.0542   50.6892   29.2937 H         1 UNK         0.0000 
     55 H55        -3.8164   47.4932   27.7144 H         1 UNK         0.0000 
     56 H56        -3.9897   48.3527   29.2309 H         1 UNK         0.0000 
     57 H57        -5.4096   47.6914   28.4335 H         1 UNK         0.0000 
     58 H58        -4.7126   48.5462   25.5235 H         1 UNK         0.0000 
     59 H59        -6.2876   48.7170   26.2871 H         1 UNK         0.0000 
     60 H60        -5.5122   50.1106   25.5612 H         1 UNK         0.0000 
     61 H61         0.8654   48.8099   22.7233 H         1 UNK         0.0000 
     62 H62         0.1885   48.2120   21.2807 H         1 UNK         0.0000 
     63 H63         2.8293   49.7901   21.2836 H         1 UNK         0.0000 
     64 H64         2.7041   48.0701   21.0945 H         1 UNK         0.0000 
     65 H65         1.5585   48.2590   18.9626 H         1 UNK         0.0000 
     66 H66         2.9402   49.3185   18.8821 H         1 UNK         0.0000 
     67 H67         0.7766   50.3409   17.9888 H         1 UNK         0.0000 
     68 H68         1.5493   51.3050   19.2084 H         1 UNK         0.0000 
     69 H69        -0.8395   49.4223   19.6920 H         1 UNK         0.0000 
     70 H70        -0.9739   51.1373   19.6910 H         1 UNK         0.0000 
@<TRIPOS>BOND
     1    1    2 1    
     2    1   34 1    
     3    1   35 1    
     4    1   36 1    
     5    2    7 ar   
     6    2    3 ar   
     7    3    4 ar   
     8    3   37 1    
     9    4    5 ar   
    10    4   38 1    
    11    5    6 ar   
    12    5   39 1    
    13    6    7 ar   
    14    6   40 1    
    15    7    8 1    
    16    8    9 2    
    17    8   10 am   BACKBONE|DICT|INTERRES
    18   10   11 1    
    19   10   41 1    
    20   11   12 1    
    21   11   13 1    
    22   11   26 1    
    23   13   18 1    
    24   13   14 1    
    25   13   42 1    
    26   14   15 1    
    27   14   43 1    
    28   14   44 1    
    29   15   16 1    
    30   15   45 1    
    31   15   46 1    
    32   16   17 1    
    33   16   19 am   BACKBONE|DICT|INTERRES
    34   17   18 1    
    35   17   47 1    
    36   17   48 1    
    37   18   49 1    
    38   18   50 1    
    39   19   20 2    
    40   19   21 am   BACKBONE|DICT|INTERRES
    41   21   22 1    
    42   21   51 1    
    43   22   23 1    
    44   22   24 1    
    45   22   25 1    
    46   23   52 1    
    47   23   53 1    
    48   23   54 1    
    49   24   55 1    
    50   24   56 1    
    51   24   57 1    
    52   25   58 1    
    53   25   59 1    
    54   25   60 1    
    55   26   27 2    
    56   26   28 am   BACKBONE|DICT|INTERRES
    57   28   33 1    
    58   28   29 1    
    59   29   30 1    
    60   29   61 1    
    61   29   62 1    
    62   30   31 1    
    63   30   63 1    
    64   30   64 1    
    65   31   32 1    
    66   31   65 1    
    67   31   66 1    
    68   32   33 1    
    69   32   67 1    
    70   32   68 1    
    71   33   69 1    
    72   33   70 1    
@<TRIPOS>SUBSTRUCTURE
     1 UNK         1 GROUP             0       ****    0 ROOT    
