@<TRIPOS>MOLECULE
ZINC39673276_3076
60   63    1
SMALL
USER_CHARGES


@<TRIPOS>ATOM
      1 C1          6.0664   53.7064   28.1275 C.ar      1 UNK         0.0000 
      2 C2          6.2635   53.7145   26.7488 C.ar      1 UNK         0.0000 
      3 C3          5.2432   54.1003   25.8606 C.ar      1 UNK         0.0000 
      4 C4          4.0202   54.5087   26.4224 C.ar      1 UNK         0.0000 
      5 C5          3.8165   54.4963   27.8027 C.ar      1 UNK         0.0000 
      6 C6          4.8389   54.0931   28.6556 C.ar      1 UNK         0.0000 
      7 Br7         2.1555   55.0878   28.5211 Br        1 UNK         0.0000 
      8 C8          5.5419   54.0971   24.3643 C.2       1 UNK         0.0000 
      9 O9          6.7159   54.2492   24.0202 O.2       1 UNK         0.0000 
     10 N10         4.5796   53.8602   23.4257 N.am      1 UNK         0.0000 
     11 C11         3.1448   53.6893   23.6327 C.3       1 UNK         0.0000 
     12 C12         2.5738   53.3865   22.2269 C.3       1 UNK         0.0000 
     13 H13         2.1136   54.3335   21.9643 H         1 UNK         0.0000 
     14 C14         3.7687   53.0390   21.2824 C.3       1 UNK         0.0000 
     15 C15         4.9347   53.7499   22.0071 C.3       1 UNK         0.0000 
     16 C16         4.1105   51.5203   21.1248 C.3       1 UNK         0.0000 
     17 C17         3.1427   50.7199   20.2130 C.3       1 UNK         0.0000 
     18 N18         3.1044   51.3959   18.8358 N.4       1 UNK         0.0000 
     19 C19         2.7280   52.8895   18.9080 C.3       1 UNK         0.0000 
     20 C20         3.7343   53.5957   19.8304 C.3       1 UNK         0.0000 
     21 C21         1.4069   52.3769   22.3466 C.2       1 UNK         0.0000 
     22 O22         0.4463   52.4964   21.5872 O.2       1 UNK         0.0000 
     23 N23         1.4960   51.3668   23.2350 N.am      1 UNK         0.0000 
     24 C24         0.4599   50.3657   23.4899 C.3       1 UNK         0.0000 
     25 C25        -0.6369   50.8639   24.4244 C.ar      1 UNK         0.0000 
     26 C26        -1.6865   51.6391   23.9230 C.ar      1 UNK         0.0000 
     27 C27        -2.7139   52.0517   24.7662 C.ar      1 UNK         0.0000 
     28 C28        -2.7184   51.6707   26.1069 C.ar      1 UNK         0.0000 
     29 C29        -1.6659   50.8971   26.6097 C.ar      1 UNK         0.0000 
     30 C30        -0.6344   50.4864   25.7698 C.ar      1 UNK         0.0000 
     31 O31        -3.7751   52.0955   26.8818 O.3       1 UNK         0.0000 
     32 C32        -4.3997   51.1385   27.7379 C.3       1 UNK         0.0000 
     33 F33        -3.6936   50.8965   28.8420 F         1 UNK         0.0000 
     34 F34        -4.7210   50.0065   27.1077 F         1 UNK         0.0000 
     35 H35         6.8690   53.4083   28.7862 H         1 UNK         0.0000 
     36 H36         7.2253   53.3979   26.3736 H         1 UNK         0.0000 
     37 H37         3.2124   54.8957   25.8328 H         1 UNK         0.0000 
     38 H38         4.6882   54.0984   29.7240 H         1 UNK         0.0000 
     39 H39         2.6827   54.6150   23.9739 H         1 UNK         0.0000 
     40 H40         3.0292   52.8749   24.3480 H         1 UNK         0.0000 
     41 H41         5.9026   53.3053   21.7798 H         1 UNK         0.0000 
     42 H42         4.9809   54.7810   21.6503 H         1 UNK         0.0000 
     43 H43         5.1056   51.4219   20.6892 H         1 UNK         0.0000 
     44 H44         4.1919   51.0257   22.0817 H         1 UNK         0.0000 
     45 H45         3.5032   49.7101   20.0141 H         1 UNK         0.0000 
     46 H46         2.1116   50.6433   20.5495 H         1 UNK         0.0000 
     47 H47         4.0362   51.2526   18.4302 H         1 UNK         0.0000 
     48 H48         2.7643   53.2672   17.8850 H         1 UNK         0.0000 
     49 H49         1.7013   52.9410   19.2747 H         1 UNK         0.0000 
     50 H50         3.5076   54.6624   19.8460 H         1 UNK         0.0000 
     51 H51         4.7246   53.5260   19.3748 H         1 UNK         0.0000 
     52 H52         2.3024   51.3270   23.8384 H         1 UNK         0.0000 
     53 H53         0.9327   49.4794   23.9176 H         1 UNK         0.0000 
     54 H54         0.0049   50.0377   22.5523 H         1 UNK         0.0000 
     55 H55        -1.7101   51.9211   22.8807 H         1 UNK         0.0000 
     56 H56        -3.5227   52.6517   24.3769 H         1 UNK         0.0000 
     57 H57        -1.6472   50.5841   27.6437 H         1 UNK         0.0000 
     58 H58         0.1537   49.8651   26.1720 H         1 UNK         0.0000 
     59 H59        -5.3429   51.5609   28.0842 H         1 UNK         0.0000 
     60 H60         2.4766   50.8961   18.2204 H         1 UNK         0.0000 
@<TRIPOS>BOND
     1    1    6 ar   
     2    1    2 ar   
     3    1   35 1    
     4    2    3 ar   
     5    2   36 1    
     6    3    4 ar   
     7    3    8 1    
     8    4    5 ar   
     9    4   37 1    
    10    5    6 ar   
    11    5    7 1    
    12    6   38 1    
    13    8    9 2    
    14    8   10 am   BACKBONE|DICT|INTERRES
    15   10   15 1    
    16   10   11 1    
    17   11   12 1    
    18   11   39 1    
    19   11   40 1    
    20   12   13 1    
    21   12   14 1    
    22   12   21 1    
    23   14   20 1    
    24   14   15 1    
    25   14   16 1    
    26   15   41 1    
    27   15   42 1    
    28   16   17 1    
    29   16   43 1    
    30   16   44 1    
    31   17   18 1    
    32   17   45 1    
    33   17   46 1    
    34   18   19 1    
    35   18   47 1    
    36   18   60 1    
    37   19   20 1    
    38   19   48 1    
    39   19   49 1    
    40   20   50 1    
    41   20   51 1    
    42   21   22 2    
    43   21   23 am   BACKBONE|DICT|INTERRES
    44   23   24 1    
    45   23   52 1    
    46   24   25 1    
    47   24   53 1    
    48   24   54 1    
    49   25   30 ar   
    50   25   26 ar   
    51   26   27 ar   
    52   26   55 1    
    53   27   28 ar   
    54   27   56 1    
    55   28   29 ar   
    56   28   31 1    
    57   29   30 ar   
    58   29   57 1    
    59   30   58 1    
    60   31   32 1    
    61   32   33 1    
    62   32   34 1    
    63   32   59 1    
@<TRIPOS>SUBSTRUCTURE
     1 UNK         1 GROUP             0       ****    0 ROOT    
