@<TRIPOS>MOLECULE
ZINC39883543_4146
69   73    1
SMALL
USER_CHARGES


@<TRIPOS>ATOM
      1 C1          1.6998   53.0100   28.5377 C.3       1 UNK         0.0000 
      2 C2          2.8982   53.9312   28.9043 C.3       1 UNK         0.0000 
      3 C3          2.3453   55.3131   29.3191 C.3       1 UNK         0.0000 
      4 C4          3.5858   53.2657   30.1241 C.3       1 UNK         0.0000 
      5 C5          3.8783   54.0973   27.7121 C.ar      1 UNK         0.0000 
      6 C6          5.2678   54.2012   27.9108 C.ar      1 UNK         0.0000 
      7 C7          6.1729   54.2649   26.8511 C.ar      1 UNK         0.0000 
      8 C8          5.6387   54.2136   25.5613 C.ar      1 UNK         0.0000 
      9 C9          4.2539   54.1457   25.3067 C.ar      1 UNK         0.0000 
     10 C10         3.3766   54.1288   26.4005 C.ar      1 UNK         0.0000 
     11 C11         4.1101   54.0967   23.8755 C.2       1 UNK         0.0000 
     12 C12         5.4196   54.1342   23.4021 C.2       1 UNK         0.0000 
     13 O13         6.3466   54.2189   24.3980 O.3       1 UNK         0.0000 
     14 C14         2.8134   54.0336   23.0704 C.3       1 UNK         0.0000 
     15 C15         1.9486   52.7870   23.3306 C.2       1 UNK         0.0000 
     16 O16         1.9035   52.3024   24.4607 O.2       1 UNK         0.0000 
     17 N17         1.2394   52.3297   22.2777 N.am      1 UNK         0.0000 
     18 C18         0.4069   51.2048   22.2216 C.2       1 UNK         0.0000 
     19 C19        -0.5147   50.9062   21.1965 C.2       1 UNK         0.0000 
     20 C20        -1.2711   49.7374   21.4777 C.2       1 UNK         0.0000 
     21 C21        -0.8665   49.1130   22.6671 C.2       1 UNK         0.0000 
     22 S22         0.4017   49.9705   23.4597 S.3       1 UNK         0.0000 
     23 C23        -1.4870   47.8600   23.2639 C.3       1 UNK         0.0000 
     24 C24        -2.2591   47.1099   22.1612 C.3       1 UNK         0.0000 
     25 C25        -3.1808   48.0600   21.3769 C.3       1 UNK         0.0000 
     26 C26        -2.3994   49.1553   20.6134 C.3       1 UNK         0.0000 
     27 C27        -0.7294   51.7339   20.0295 C.2       1 UNK         0.0000 
     28 O28        -1.8567   52.0889   19.6769 O.2       1 UNK         0.0000 
     29 N29         0.4056   52.0939   19.4036 N.am      1 UNK         0.0000 
     30 C30         0.4940   52.9013   18.1833 C.3       1 UNK         0.0000 
     31 C31         0.4255   52.1018   16.8570 C.3       1 UNK         0.0000 
     32 H32         0.6134   52.7849   16.0268 H         1 UNK         0.0000 
     33 C33         1.2392   50.8047   16.7764 C.3       1 UNK         0.0000 
     34 C34         0.4862   49.9440   15.7864 C.3       1 UNK         0.0000 
     35 C35        -0.9338   50.5099   15.8024 C.3       1 UNK         0.0000 
     36 O36        -0.9023   51.5983   16.7241 O.3       1 UNK         0.0000 
     37 H37         1.0810   52.7800   29.4069 H         1 UNK         0.0000 
     38 H38         2.0402   52.0591   28.1232 H         1 UNK         0.0000 
     39 H39         1.0266   53.4650   27.8114 H         1 UNK         0.0000 
     40 H40         3.1353   55.9799   29.6615 H         1 UNK         0.0000 
     41 H41         1.8407   55.8077   28.4872 H         1 UNK         0.0000 
     42 H42         1.6220   55.2289   30.1315 H         1 UNK         0.0000 
     43 H43         4.3042   53.9306   30.6037 H         1 UNK         0.0000 
     44 H44         2.8603   52.9811   30.8847 H         1 UNK         0.0000 
     45 H45         4.1137   52.3540   29.8379 H         1 UNK         0.0000 
     46 H46         5.6812   54.2209   28.9050 H         1 UNK         0.0000 
     47 H47         7.2357   54.3182   27.0252 H         1 UNK         0.0000 
     48 H48         2.3160   54.0959   26.2136 H         1 UNK         0.0000 
     49 H49         5.8279   54.1259   22.4007 H         1 UNK         0.0000 
     50 H50         2.1890   54.8963   23.2947 H         1 UNK         0.0000 
     51 H51         3.0377   54.0975   22.0041 H         1 UNK         0.0000 
     52 H52         1.2351   52.9147   21.4541 H         1 UNK         0.0000 
     53 H53        -0.7310   47.2148   23.7137 H         1 UNK         0.0000 
     54 H54        -2.1715   48.1378   24.0667 H         1 UNK         0.0000 
     55 H55        -1.5585   46.6307   21.4751 H         1 UNK         0.0000 
     56 H56        -2.8440   46.3055   22.6077 H         1 UNK         0.0000 
     57 H57        -3.7905   47.4917   20.6727 H         1 UNK         0.0000 
     58 H58        -3.8840   48.5281   22.0680 H         1 UNK         0.0000 
     59 H59        -3.1006   49.9257   20.2925 H         1 UNK         0.0000 
     60 H60        -1.9732   48.7332   19.7027 H         1 UNK         0.0000 
     61 H61         1.2685   51.6716   19.7141 H         1 UNK         0.0000 
     62 H62        -0.2823   53.6692   18.1828 H         1 UNK         0.0000 
     63 H63         1.4395   53.4451   18.2168 H         1 UNK         0.0000 
     64 H64         2.2841   50.9859   16.5185 H         1 UNK         0.0000 
     65 H65         1.2824   50.3086   17.7461 H         1 UNK         0.0000 
     66 H66         0.9224   50.0333   14.7911 H         1 UNK         0.0000 
     67 H67         0.5167   48.8904   16.0664 H         1 UNK         0.0000 
     68 H68        -1.2290   50.8692   14.8153 H         1 UNK         0.0000 
     69 H69        -1.6652   49.7695   16.1291 H         1 UNK         0.0000 
@<TRIPOS>BOND
     1    1    2 1    
     2    1   37 1    
     3    1   38 1    
     4    1   39 1    
     5    2    3 1    
     6    2    4 1    
     7    2    5 1    
     8    3   40 1    
     9    3   41 1    
    10    3   42 1    
    11    4   43 1    
    12    4   44 1    
    13    4   45 1    
    14    5   10 ar   
    15    5    6 ar   
    16    6    7 ar   
    17    6   46 1    
    18    7    8 ar   
    19    7   47 1    
    20    8   13 1    
    21    8    9 ar   
    22    9   10 ar   
    23    9   11 1    
    24   10   48 1    
    25   11   12 2    
    26   11   14 1    
    27   12   13 1    
    28   12   49 1    
    29   14   15 1    
    30   14   50 1    
    31   14   51 1    
    32   15   16 2    
    33   15   17 am   BACKBONE|DICT|INTERRES
    34   17   18 am   BACKBONE|DICT|INTERRES
    35   17   52 1    
    36   18   22 1    
    37   18   19 2    
    38   19   20 1    
    39   19   27 1    
    40   20   26 1    
    41   20   21 2    
    42   21   22 1    
    43   21   23 1    
    44   23   24 1    
    45   23   53 1    
    46   23   54 1    
    47   24   25 1    
    48   24   55 1    
    49   24   56 1    
    50   25   26 1    
    51   25   57 1    
    52   25   58 1    
    53   26   59 1    
    54   26   60 1    
    55   27   28 2    
    56   27   29 am   BACKBONE|DICT|INTERRES
    57   29   30 1    
    58   29   61 1    
    59   30   31 1    
    60   30   62 1    
    61   30   63 1    
    62   31   32 1    
    63   31   36 1    
    64   31   33 1    
    65   33   34 1    
    66   33   64 1    
    67   33   65 1    
    68   34   35 1    
    69   34   66 1    
    70   34   67 1    
    71   35   36 1    
    72   35   68 1    
    73   35   69 1    
@<TRIPOS>SUBSTRUCTURE
     1 UNK         1 GROUP             0       ****    0 ROOT    
