@<TRIPOS>MOLECULE
ZINC09073414_4366
50   53    1
SMALL
USER_CHARGES


@<TRIPOS>ATOM
      1 C1          6.6434   55.5652   20.1936 C.3       1 UNK         0.0000 
      2 O2          5.8290   55.0735   21.2518 O.3       1 UNK         0.0000 
      3 C3          4.9213   54.0561   21.0052 C.ar      1 UNK         0.0000 
      4 C4          4.7314   53.4847   19.7347 C.ar      1 UNK         0.0000 
      5 C5          3.7690   52.4969   19.5313 C.ar      1 UNK         0.0000 
      6 C6          2.9740   52.0634   20.5887 C.ar      1 UNK         0.0000 
      7 C7          3.1452   52.6159   21.8546 C.ar      1 UNK         0.0000 
      8 C8          4.1257   53.5874   22.0721 C.ar      1 UNK         0.0000 
      9 N9          4.2225   54.0965   23.3716 N.am      1 UNK         0.0000 
     10 C10         5.3383   54.1533   24.1297 C.2       1 UNK         0.0000 
     11 O11         6.4271   53.6968   23.7724 O.2       1 UNK         0.0000 
     12 C12         5.1742   54.8518   25.5062 C.3       1 UNK         0.0000 
     13 H13         4.7293   55.8024   25.2360 H         1 UNK         0.0000 
     14 C14         6.5348   55.1482   26.2139 C.3       1 UNK         0.0000 
     15 C15         6.9718   54.0611   27.2145 C.3       1 UNK         0.0000 
     16 C16         5.9450   53.8018   28.3339 C.3       1 UNK         0.0000 
     17 C17         4.5808   53.6375   27.7073 C.2       1 UNK         0.0000 
     18 C18         4.2095   54.1081   26.4444 C.2       1 UNK         0.0000 
     19 N19         2.9602   53.8453   26.1035 N.2       1 UNK         0.0000 
     20 C20         2.3096   53.1866   27.0335 C.2       1 UNK         0.0000 
     21 S21         3.2093   52.8965   28.4823 S.3       1 UNK         0.0000 
     22 N22         1.0056   52.7216   26.9626 N.am      1 UNK         0.0000 
     23 C23         0.3105   52.4963   25.8225 C.2       1 UNK         0.0000 
     24 O24         0.7556   52.6782   24.6852 O.2       1 UNK         0.0000 
     25 C25        -1.1259   52.0716   26.0151 C.ar      1 UNK         0.0000 
     26 C26        -1.5181   51.2935   27.1157 C.ar      1 UNK         0.0000 
     27 C27        -2.8508   50.9247   27.2777 C.ar      1 UNK         0.0000 
     28 C28        -3.8018   51.3383   26.3487 C.ar      1 UNK         0.0000 
     29 C29        -3.4273   52.1063   25.2494 C.ar      1 UNK         0.0000 
     30 C30        -2.0928   52.4648   25.0788 C.ar      1 UNK         0.0000 
     31 Cl31       -5.4554   50.8916   26.5573 Cl        1 UNK         0.0000 
     32 Cl32        1.7817   50.8418   20.3356 Cl        1 UNK         0.0000 
     33 H33         7.2990   56.3453   20.5799 H         1 UNK         0.0000 
     34 H34         7.2776   54.7835   19.7742 H         1 UNK         0.0000 
     35 H35         6.0412   56.0045   19.3972 H         1 UNK         0.0000 
     36 H36         5.3178   53.7950   18.8842 H         1 UNK         0.0000 
     37 H37         3.6492   52.0609   18.5489 H         1 UNK         0.0000 
     38 H38         2.5220   52.2737   22.6689 H         1 UNK         0.0000 
     39 H39         3.3472   54.3085   23.8262 H         1 UNK         0.0000 
     40 H40         6.4679   56.0964   26.7469 H         1 UNK         0.0000 
     41 H41         7.3236   55.3233   25.4800 H         1 UNK         0.0000 
     42 H42         7.9046   54.3607   27.6807 H         1 UNK         0.0000 
     43 H43         7.1689   53.1330   26.6762 H         1 UNK         0.0000 
     44 H44         5.9379   54.6298   29.0438 H         1 UNK         0.0000 
     45 H45         6.2192   52.9019   28.8797 H         1 UNK         0.0000 
     46 H46         0.5897   52.4077   27.8251 H         1 UNK         0.0000 
     47 H47        -0.8037   50.9347   27.8437 H         1 UNK         0.0000 
     48 H48        -3.1327   50.3036   28.1173 H         1 UNK         0.0000 
     49 H49        -4.1684   52.4187   24.5285 H         1 UNK         0.0000 
     50 H50        -1.8176   53.0595   24.2187 H         1 UNK         0.0000 
@<TRIPOS>BOND
     1    1    2 1    
     2    1   33 1    
     3    1   34 1    
     4    1   35 1    
     5    2    3 1    
     6    3    8 ar   
     7    3    4 ar   
     8    4    5 ar   
     9    4   36 1    
    10    5    6 ar   
    11    5   37 1    
    12    6    7 ar   
    13    6   32 1    
    14    7    8 ar   
    15    7   38 1    
    16    8    9 1    
    17    9   10 am   BACKBONE|DICT|INTERRES
    18    9   39 1    
    19   10   11 2    
    20   10   12 1    
    21   12   13 1    
    22   12   18 1    
    23   12   14 1    
    24   14   15 1    
    25   14   40 1    
    26   14   41 1    
    27   15   16 1    
    28   15   42 1    
    29   15   43 1    
    30   16   17 1    
    31   16   44 1    
    32   16   45 1    
    33   17   21 1    
    34   17   18 2    
    35   18   19 1    
    36   19   20 2    
    37   20   21 1    
    38   20   22 am   BACKBONE|DICT|INTERRES
    39   22   23 am   BACKBONE|DICT|INTERRES
    40   22   46 1    
    41   23   24 2    
    42   23   25 1    
    43   25   30 ar   
    44   25   26 ar   
    45   26   27 ar   
    46   26   47 1    
    47   27   28 ar   
    48   27   48 1    
    49   28   29 ar   
    50   28   31 1    
    51   29   30 ar   
    52   29   49 1    
    53   30   50 1    
@<TRIPOS>SUBSTRUCTURE
     1 UNK         1 GROUP             0       ****    0 ROOT    
