@<TRIPOS>MOLECULE
ZINC06239275_3277
50   53    1
SMALL
USER_CHARGES


@<TRIPOS>ATOM
      1 C1         -0.5474   51.3132   29.0107 C.3       1 UNK         0.0000 
      2 O2         -0.4325   52.6014   28.4250 O.3       1 UNK         0.0000 
      3 C3          0.8328   52.9338   28.0068 C.ar      1 UNK         0.0000 
      4 C4          1.0929   52.9041   26.6411 C.ar      1 UNK         0.0000 
      5 C5          2.3197   53.2966   26.1156 C.ar      1 UNK         0.0000 
      6 C6          3.3171   53.6984   27.0150 C.ar      1 UNK         0.0000 
      7 C7          3.0864   53.7424   28.4028 C.ar      1 UNK         0.0000 
      8 C8          1.8263   53.3717   28.8948 C.ar      1 UNK         0.0000 
      9 O9          1.5804   53.4400   30.2482 O.3       1 UNK         0.0000 
     10 C10         0.7486   54.5263   30.6429 C.3       1 UNK         0.0000 
     11 O11         4.0291   54.1586   29.3264 O.3       1 UNK         0.0000 
     12 C12         5.3338   54.5099   28.8782 C.3       1 UNK         0.0000 
     13 C13         2.5625   53.3326   24.6303 C.ar      1 UNK         0.0000 
     14 C14         2.1646   52.4277   23.5961 C.ar      1 UNK         0.0000 
     15 C15         2.7566   52.9733   22.4730 C.ar      1 UNK         0.0000 
     16 N16         3.4177   54.0969   22.8370 N.pl3     1 UNK         0.0000 
     17 H17         3.9376   54.6962   22.2133 H         1 UNK         0.0000 
     18 N18         3.3008   54.3231   24.1450 N.2       1 UNK         0.0000 
     19 O19         2.7758   52.4990   21.1895 O.3       1 UNK         0.0000 
     20 C20         2.0335   51.3736   21.0145 C.2       1 UNK         0.0000 
     21 C21         1.3480   50.7014   21.9759 C.2       1 UNK         0.0000 
     22 C22         1.3522   51.1175   23.4674 C.3       1 UNK         0.0000 
     23 H23         1.8843   50.3399   24.0197 H         1 UNK         0.0000 
     24 C24        -0.0544   51.1861   24.0606 C.ar      1 UNK         0.0000 
     25 C25        -0.9367   52.1961   23.6605 C.ar      1 UNK         0.0000 
     26 C26        -2.1772   52.3227   24.2795 C.ar      1 UNK         0.0000 
     27 C27        -2.5379   51.4356   25.2918 C.ar      1 UNK         0.0000 
     28 C28        -1.6832   50.4009   25.6680 C.ar      1 UNK         0.0000 
     29 C29        -0.4443   50.2710   25.0470 C.ar      1 UNK         0.0000 
     30 Br30       -4.2053   51.6563   26.1809 Br        1 UNK         0.0000 
     31 C31         0.5683   49.5650   21.6015 C.1       1 UNK         0.0000 
     32 N32        -0.0967   48.6789   21.2684 N.1       1 UNK         0.0000 
     33 N33         2.1249   51.0328   19.6911 N.pl3     1 UNK         0.0000 
     34 H34        -1.6017   51.0616   29.1337 H         1 UNK         0.0000 
     35 H35        -0.0956   50.5413   28.3845 H         1 UNK         0.0000 
     36 H36        -0.0873   51.2964   29.9993 H         1 UNK         0.0000 
     37 H37         0.2767   52.6537   25.9951 H         1 UNK         0.0000 
     38 H38         4.2747   53.9878   26.6110 H         1 UNK         0.0000 
     39 H39         0.6479   54.5289   31.7279 H         1 UNK         0.0000 
     40 H40         1.1790   55.4851   30.3489 H         1 UNK         0.0000 
     41 H41        -0.2536   54.4512   30.2210 H         1 UNK         0.0000 
     42 H42         5.9043   54.8974   29.7185 H         1 UNK         0.0000 
     43 H43         5.8666   53.6445   28.4803 H         1 UNK         0.0000 
     44 H44         5.3114   55.2959   28.1229 H         1 UNK         0.0000 
     45 H45        -0.6427   52.8980   22.8942 H         1 UNK         0.0000 
     46 H46        -2.8494   53.1172   23.9920 H         1 UNK         0.0000 
     47 H47        -1.9635   49.7140   26.4547 H         1 UNK         0.0000 
     48 H48         0.2223   49.4825   25.3669 H         1 UNK         0.0000 
     49 H49         1.6182   50.2370   19.3331 H         1 UNK         0.0000 
     50 H50         2.9209   51.3363   19.1457 H         1 UNK         0.0000 
@<TRIPOS>BOND
     1    1    2 1    
     2    1   34 1    
     3    1   35 1    
     4    1   36 1    
     5    2    3 1    
     6    3    8 ar   
     7    3    4 ar   
     8    4    5 ar   
     9    4   37 1    
    10    5    6 ar   
    11    5   13 1    
    12    6    7 ar   
    13    6   38 1    
    14    7    8 ar   
    15    7   11 1    
    16    8    9 1    
    17    9   10 1    
    18   10   39 1    
    19   10   40 1    
    20   10   41 1    
    21   11   12 1    
    22   12   42 1    
    23   12   43 1    
    24   12   44 1    
    25   13   18 ar   
    26   13   14 ar   
    27   14   22 1    
    28   14   15 ar   
    29   15   16 ar   
    30   15   19 1    
    31   16   17 1    
    32   16   18 ar   
    33   19   20 1    
    34   20   21 2    
    35   20   33 1    
    36   21   22 1    
    37   21   31 1    
    38   22   23 1    
    39   22   24 1    
    40   24   29 ar   
    41   24   25 ar   
    42   25   26 ar   
    43   25   45 1    
    44   26   27 ar   
    45   26   46 1    
    46   27   28 ar   
    47   27   30 1    
    48   28   29 ar   
    49   28   47 1    
    50   29   48 1    
    51   31   32 3    
    52   33   49 1    
    53   33   50 1    
@<TRIPOS>SUBSTRUCTURE
     1 UNK         1 GROUP             0       ****    0 ROOT    
