@<TRIPOS>MOLECULE
ZINC03011938_578
49   52    1
SMALL
USER_CHARGES


@<TRIPOS>ATOM
      1 C1          0.4019   52.9578   31.6905 C.3       1 UNK         0.0000 
      2 O2          1.6794   52.4967   31.2806 O.3       1 UNK         0.0000 
      3 C3          2.1913   52.9049   30.0651 C.ar      1 UNK         0.0000 
      4 C4          1.4648   53.6052   29.0901 C.ar      1 UNK         0.0000 
      5 C5          2.0744   53.9854   27.8948 C.ar      1 UNK         0.0000 
      6 C6          3.4224   53.7052   27.6623 C.ar      1 UNK         0.0000 
      7 C7          4.1540   53.0062   28.6329 C.ar      1 UNK         0.0000 
      8 C8          3.5310   52.5998   29.8132 C.ar      1 UNK         0.0000 
      9 Cl9         4.4257   51.6968   30.9819 Cl        1 UNK         0.0000 
     10 N10         3.9406   54.0752   26.4114 N.am      1 UNK         0.0000 
     11 C11         5.2231   54.3051   26.0493 C.2       1 UNK         0.0000 
     12 O12         6.1760   54.3870   26.8283 O.2       1 UNK         0.0000 
     13 C13         5.4045   54.4537   24.6177 C.ar      1 UNK         0.0000 
     14 C14         6.5605   54.9386   23.9848 C.ar      1 UNK         0.0000 
     15 C15         6.3130   54.8970   22.6264 C.ar      1 UNK         0.0000 
     16 N16         5.0843   54.2793   22.4974 N.pl3     1 UNK         0.0000 
     17 N17         4.5215   54.0931   23.7026 N.2       1 UNK         0.0000 
     18 C18         4.3466   54.0577   21.2505 C.3       1 UNK         0.0000 
     19 H19         3.6619   54.8962   21.1353 H         1 UNK         0.0000 
     20 C20         5.3721   54.1057   20.0945 C.3       1 UNK         0.0000 
     21 C21         6.4307   55.2426   20.1907 C.3       1 UNK         0.0000 
     22 H22         5.9024   56.1891   20.0644 H         1 UNK         0.0000 
     23 N23         7.0504   55.2965   21.5294 N.pl3     1 UNK         0.0000 
     24 C24         7.4375   55.2675   19.0200 C.ar      1 UNK         0.0000 
     25 C25         8.6381   55.9855   19.1403 C.ar      1 UNK         0.0000 
     26 C26         9.5409   56.0458   18.0826 C.ar      1 UNK         0.0000 
     27 C27         9.2599   55.3858   16.8904 C.ar      1 UNK         0.0000 
     28 C28         8.0757   54.6705   16.7477 C.ar      1 UNK         0.0000 
     29 C29         7.1687   54.6150   17.8039 C.ar      1 UNK         0.0000 
     30 Cl30       10.3888   55.4515   15.5847 Cl        1 UNK         0.0000 
     31 C31         3.4777   52.7713   21.2316 C.3       1 UNK         0.0000 
     32 F32         2.9183   52.5796   20.0363 F         1 UNK         0.0000 
     33 F33         4.2106   51.6863   21.4889 F         1 UNK         0.0000 
     34 F34         2.4846   52.8141   22.1212 F         1 UNK         0.0000 
     35 H35         0.3047   52.7347   32.7521 H         1 UNK         0.0000 
     36 H36        -0.4001   52.4556   31.1490 H         1 UNK         0.0000 
     37 H37         0.2982   54.0387   31.5815 H         1 UNK         0.0000 
     38 H38         0.4230   53.8487   29.2371 H         1 UNK         0.0000 
     39 H39         1.4893   54.4968   27.1443 H         1 UNK         0.0000 
     40 H40         5.1876   52.7417   28.4625 H         1 UNK         0.0000 
     41 H41         3.2623   54.1266   25.6657 H         1 UNK         0.0000 
     42 H42         7.4599   55.3023   24.4619 H         1 UNK         0.0000 
     43 H43         5.8803   53.1423   20.0193 H         1 UNK         0.0000 
     44 H44         4.7997   54.1927   19.1710 H         1 UNK         0.0000 
     45 H45         7.7062   56.0574   21.6287 H         1 UNK         0.0000 
     46 H46         8.8923   56.4962   20.0560 H         1 UNK         0.0000 
     47 H47        10.4683   56.5903   18.1937 H         1 UNK         0.0000 
     48 H48         7.8603   54.1527   15.8236 H         1 UNK         0.0000 
     49 H49         6.2657   54.0453   17.6433 H         1 UNK         0.0000 
@<TRIPOS>BOND
     1    1    2 1    
     2    1   35 1    
     3    1   36 1    
     4    1   37 1    
     5    2    3 1    
     6    3    8 ar   
     7    3    4 ar   
     8    4    5 ar   
     9    4   38 1    
    10    5    6 ar   
    11    5   39 1    
    12    6    7 ar   
    13    6   10 1    
    14    7    8 ar   
    15    7   40 1    
    16    8    9 1    
    17   10   11 am   BACKBONE|DICT|INTERRES
    18   10   41 1    
    19   11   12 2    
    20   11   13 1    
    21   13   17 ar   
    22   13   14 ar   
    23   14   15 ar   
    24   14   42 1    
    25   15   23 1    
    26   15   16 ar   
    27   16   17 ar   
    28   16   18 1    
    29   18   19 1    
    30   18   20 1    
    31   18   31 1    
    32   20   21 1    
    33   20   43 1    
    34   20   44 1    
    35   21   22 1    
    36   21   23 1    
    37   21   24 1    
    38   23   45 1    
    39   24   29 ar   
    40   24   25 ar   
    41   25   26 ar   
    42   25   46 1    
    43   26   27 ar   
    44   26   47 1    
    45   27   28 ar   
    46   27   30 1    
    47   28   29 ar   
    48   28   48 1    
    49   29   49 1    
    50   31   32 1    
    51   31   33 1    
    52   31   34 1    
@<TRIPOS>SUBSTRUCTURE
     1 UNK         1 GROUP             0       ****    0 ROOT    
