@<TRIPOS>MOLECULE
ZINC65074634_202
64   67    1
SMALL
USER_CHARGES


@<TRIPOS>ATOM
      1 C1          6.4561   53.5108   27.5851 C.3       1 UNK         0.0000 
      2 C2          5.8061   54.8934   27.4212 C.3       1 UNK         0.0000 
      3 C3          4.9677   55.0487   26.1302 C.3       1 UNK         0.0000 
      4 C4          3.6745   54.2355   26.0145 C.ar      1 UNK         0.0000 
      5 C5          3.0891   54.0971   24.7520 C.ar      1 UNK         0.0000 
      6 C6          1.9297   53.3434   24.5914 C.ar      1 UNK         0.0000 
      7 C7          1.3554   52.7062   25.6909 C.ar      1 UNK         0.0000 
      8 C8          1.8972   52.8938   26.9640 C.ar      1 UNK         0.0000 
      9 C9          3.0526   53.6546   27.1263 C.ar      1 UNK         0.0000 
     10 S10        -0.0707   51.6297   25.4947 S.o2      1 UNK         0.0000 
     11 O11         0.1115   50.5604   26.4819 O.2       1 UNK         0.0000 
     12 O12        -1.2507   52.4966   25.5199 O.2       1 UNK         0.0000 
     13 N13         0.0580   50.9107   23.8757 N.pl3     1 UNK         0.0000 
     14 C14        -0.7142   51.4260   22.7170 C.3       1 UNK         0.0000 
     15 C15         0.2058   51.7428   21.5110 C.3       1 UNK         0.0000 
     16 C16         1.2405   50.6177   21.1760 C.3       1 UNK         0.0000 
     17 C17         1.9732   50.1959   22.4898 C.3       1 UNK         0.0000 
     18 C18         1.0029   49.8062   23.6207 C.3       1 UNK         0.0000 
     19 C19         2.2816   51.0619   20.1246 C.2       1 UNK         0.0000 
     20 N20         2.7044   50.2642   19.1316 N.pl3     1 UNK         0.0000 
     21 C21         2.1637   48.9512   18.8179 C.3       1 UNK         0.0000 
     22 C22         1.3552   48.4588   20.0163 C.3       1 UNK         0.0000 
     23 N23         0.4980   49.5204   20.5316 N.3       1 UNK         0.0000 
     24 N24         2.7957   52.2900   20.2770 N.pl3     1 UNK         0.0000 
     25 C25         3.9053   52.9003   19.5331 C.3       1 UNK         0.0000 
     26 C26         4.8190   53.7599   20.4002 C.ar      1 UNK         0.0000 
     27 C27         5.1045   53.4033   21.7249 C.ar      1 UNK         0.0000 
     28 C28         5.9993   54.1614   22.4816 C.ar      1 UNK         0.0000 
     29 C29         6.6026   55.2934   21.9291 C.ar      1 UNK         0.0000 
     30 C30         6.3052   55.6675   20.6189 C.ar      1 UNK         0.0000 
     31 C31         5.4262   54.8972   19.8544 C.ar      1 UNK         0.0000 
     32 F32         6.8781   56.7700   20.0868 F         1 UNK         0.0000 
     33 H33         7.0679   53.4752   28.4865 H         1 UNK         0.0000 
     34 H34         7.1049   53.2811   26.7387 H         1 UNK         0.0000 
     35 H35         5.7117   52.7173   27.6586 H         1 UNK         0.0000 
     36 H36         5.2111   55.1380   28.3013 H         1 UNK         0.0000 
     37 H37         6.6039   55.6380   27.4035 H         1 UNK         0.0000 
     38 H38         4.7043   56.0940   25.9829 H         1 UNK         0.0000 
     39 H39         5.6129   54.8000   25.2922 H         1 UNK         0.0000 
     40 H40         3.5332   54.5757   23.8919 H         1 UNK         0.0000 
     41 H41         1.4989   53.2415   23.6131 H         1 UNK         0.0000 
     42 H42         1.4401   52.4259   27.8256 H         1 UNK         0.0000 
     43 H43         3.4615   53.7638   28.1178 H         1 UNK         0.0000 
     44 H44        -1.4625   50.6769   22.4573 H         1 UNK         0.0000 
     45 H45        -1.2692   52.3141   23.0239 H         1 UNK         0.0000 
     46 H46        -0.4073   51.9611   20.6347 H         1 UNK         0.0000 
     47 H47         0.7142   52.6818   21.7152 H         1 UNK         0.0000 
     48 H48         2.5945   51.0238   22.8317 H         1 UNK         0.0000 
     49 H49         2.6792   49.3833   22.3137 H         1 UNK         0.0000 
     50 H50         1.5427   49.5866   24.5407 H         1 UNK         0.0000 
     51 H51         0.4313   48.9068   23.3867 H         1 UNK         0.0000 
     52 H52         1.5411   49.0660   17.9314 H         1 UNK         0.0000 
     53 H53         2.9887   48.2812   18.5707 H         1 UNK         0.0000 
     54 H54         0.7389   47.6062   19.7306 H         1 UNK         0.0000 
     55 H55         2.0157   48.0823   20.7950 H         1 UNK         0.0000 
     56 H56        -0.1580   49.1516   21.2043 H         1 UNK         0.0000 
     57 H57         2.4144   52.8519   21.0238 H         1 UNK         0.0000 
     58 H58         4.5040   52.1001   19.0996 H         1 UNK         0.0000 
     59 H59         3.4558   53.4757   18.7206 H         1 UNK         0.0000 
     60 H60         4.6741   52.5154   22.1632 H         1 UNK         0.0000 
     61 H61         6.2499   53.8441   23.4808 H         1 UNK         0.0000 
     62 H62         7.3063   55.8696   22.5125 H         1 UNK         0.0000 
     63 H63         5.2248   55.1875   18.8323 H         1 UNK         0.0000 
     64 H64         3.4283   50.6191   18.5123 H         1 UNK         0.0000 
@<TRIPOS>BOND
     1    1    2 1    
     2    1   33 1    
     3    1   34 1    
     4    1   35 1    
     5    2    3 1    
     6    2   36 1    
     7    2   37 1    
     8    3    4 1    
     9    3   38 1    
    10    3   39 1    
    11    4    9 ar   
    12    4    5 ar   
    13    5    6 ar   
    14    5   40 1    
    15    6    7 ar   
    16    6   41 1    
    17    7    8 ar   
    18    7   10 1    
    19    8    9 ar   
    20    8   42 1    
    21    9   43 1    
    22   10   11 2    
    23   10   12 2    
    24   10   13 1    
    25   13   18 1    
    26   13   14 1    
    27   14   15 1    
    28   14   44 1    
    29   14   45 1    
    30   15   16 1    
    31   15   46 1    
    32   15   47 1    
    33   16   23 1    
    34   16   17 1    
    35   16   19 1    
    36   17   18 1    
    37   17   48 1    
    38   17   49 1    
    39   18   50 1    
    40   18   51 1    
    41   19   20 2    
    42   19   24 1    
    43   20   21 1    
    44   20   64 1    
    45   21   22 1    
    46   21   52 1    
    47   21   53 1    
    48   22   23 1    
    49   22   54 1    
    50   22   55 1    
    51   23   56 1    
    52   24   25 1    
    53   24   57 1    
    54   25   26 1    
    55   25   58 1    
    56   25   59 1    
    57   26   31 ar   
    58   26   27 ar   
    59   27   28 ar   
    60   27   60 1    
    61   28   29 ar   
    62   28   61 1    
    63   29   30 ar   
    64   29   62 1    
    65   30   31 ar   
    66   30   32 1    
    67   31   63 1    
@<TRIPOS>SUBSTRUCTURE
     1 UNK         1 GROUP             0       ****    0 ROOT    
