@<TRIPOS>MOLECULE
ZINC11315352_3251
53   56    1
SMALL
USER_CHARGES


@<TRIPOS>ATOM
      1 C1          6.7169   55.8692   24.4706 C.3       1 UNK         0.0000 
      2 C2          6.1790   54.4233   24.4334 C.3       1 UNK         0.0000 
      3 H3          7.0282   53.7420   24.3424 H         1 UNK         0.0000 
      4 C4          5.4954   54.1332   25.7765 C.ar      1 UNK         0.0000 
      5 C5          4.0985   54.1445   25.9161 C.ar      1 UNK         0.0000 
      6 C6          3.5118   53.8337   27.1378 C.ar      1 UNK         0.0000 
      7 C7          4.3156   53.5155   28.2284 C.ar      1 UNK         0.0000 
      8 C8          5.7032   53.5304   28.1081 C.ar      1 UNK         0.0000 
      9 C9          6.2914   53.8306   26.8848 C.ar      1 UNK         0.0000 
     10 Br10        3.5057   53.0349   29.8828 Br        1 UNK         0.0000 
     11 N11         5.2984   54.1180   23.2942 N.am      1 UNK         0.0000 
     12 C12         5.3957   54.4966   22.0046 C.2       1 UNK         0.0000 
     13 O13         6.3046   55.2044   21.5783 O.2       1 UNK         0.0000 
     14 C14         4.3103   54.0439   21.0032 C.3       1 UNK         0.0000 
     15 N15         3.3928   53.0057   21.5175 N.am      1 UNK         0.0000 
     16 C16         2.3399   53.2308   22.3377 C.2       1 UNK         0.0000 
     17 O17         2.0000   54.2836   22.8819 O.2       1 UNK         0.0000 
     18 C18         1.6265   51.8894   22.4590 C.3       1 UNK         0.0000 
     19 N19         2.6192   51.0422   21.8486 N.am      1 UNK         0.0000 
     20 C20         3.6328   51.6973   21.2754 C.2       1 UNK         0.0000 
     21 O21         4.6888   51.2125   20.8820 O.2       1 UNK         0.0000 
     22 C22         1.4790   51.5573   23.9661 C.3       1 UNK         0.0000 
     23 C23         0.3036   51.8444   21.6465 C.ar      1 UNK         0.0000 
     24 C24        -0.9255   51.5379   22.2645 C.ar      1 UNK         0.0000 
     25 C25        -2.1090   51.4704   21.5303 C.ar      1 UNK         0.0000 
     26 C26        -2.0855   51.6969   20.1584 C.ar      1 UNK         0.0000 
     27 C27        -0.8767   52.0078   19.5201 C.ar      1 UNK         0.0000 
     28 C28         0.3048   52.0720   20.2558 C.ar      1 UNK         0.0000 
     29 O29        -0.7960   52.2073   18.1571 O.3       1 UNK         0.0000 
     30 C30        -2.0510   52.4957   17.5294 C.3       1 UNK         0.0000 
     31 C31        -3.1605   51.5586   18.0671 C.3       1 UNK         0.0000 
     32 O32        -3.2923   51.6974   19.4861 O.3       1 UNK         0.0000 
     33 H33         7.3168   56.0461   25.3604 H         1 UNK         0.0000 
     34 H34         7.3632   56.0958   23.6247 H         1 UNK         0.0000 
     35 H35         5.9052   56.5933   24.4844 H         1 UNK         0.0000 
     36 H36         3.4572   54.3909   25.0835 H         1 UNK         0.0000 
     37 H37         2.4360   53.8288   27.2378 H         1 UNK         0.0000 
     38 H38         6.3331   53.2972   28.9506 H         1 UNK         0.0000 
     39 H39         7.3683   53.8148   26.8022 H         1 UNK         0.0000 
     40 H40         4.5752   53.4491   23.5054 H         1 UNK         0.0000 
     41 H41         3.7215   54.8968   20.6860 H         1 UNK         0.0000 
     42 H42         4.8130   53.6752   20.1073 H         1 UNK         0.0000 
     43 H43         2.4008   50.0823   21.6248 H         1 UNK         0.0000 
     44 H44         0.7624   52.2156   24.4589 H         1 UNK         0.0000 
     45 H45         1.1596   50.5274   24.1273 H         1 UNK         0.0000 
     46 H46         2.4153   51.6967   24.4973 H         1 UNK         0.0000 
     47 H47        -0.9891   51.3453   23.3243 H         1 UNK         0.0000 
     48 H48        -3.0426   51.2466   22.0263 H         1 UNK         0.0000 
     49 H49         1.2222   52.3000   19.7318 H         1 UNK         0.0000 
     50 H50        -1.9468   52.3847   16.4491 H         1 UNK         0.0000 
     51 H51        -2.3262   53.5324   17.7304 H         1 UNK         0.0000 
     52 H52        -2.9032   50.5248   17.8280 H         1 UNK         0.0000 
     53 H53        -4.1158   51.7800   17.5917 H         1 UNK         0.0000 
@<TRIPOS>BOND
     1    1    2 1    
     2    1   33 1    
     3    1   34 1    
     4    1   35 1    
     5    2    3 1    
     6    2    4 1    
     7    2   11 1    
     8    4    9 ar   
     9    4    5 ar   
    10    5    6 ar   
    11    5   36 1    
    12    6    7 ar   
    13    6   37 1    
    14    7    8 ar   
    15    7   10 1    
    16    8    9 ar   
    17    8   38 1    
    18    9   39 1    
    19   11   12 am   BACKBONE|DICT|INTERRES
    20   11   40 1    
    21   12   13 2    
    22   12   14 1    
    23   14   15 1    
    24   14   41 1    
    25   14   42 1    
    26   15   20 am   BACKBONE|DICT|INTERRES
    27   15   16 am   BACKBONE|DICT|INTERRES
    28   16   17 2    
    29   16   18 1    
    30   18   19 1    
    31   18   22 1    
    32   18   23 1    
    33   19   20 am   BACKBONE|DICT|INTERRES
    34   19   43 1    
    35   20   21 2    
    36   22   44 1    
    37   22   45 1    
    38   22   46 1    
    39   23   28 ar   
    40   23   24 ar   
    41   24   25 ar   
    42   24   47 1    
    43   25   26 ar   
    44   25   48 1    
    45   26   32 1    
    46   26   27 ar   
    47   27   28 ar   
    48   27   29 1    
    49   28   49 1    
    50   29   30 1    
    51   30   31 1    
    52   30   50 1    
    53   30   51 1    
    54   31   32 1    
    55   31   52 1    
    56   31   53 1    
@<TRIPOS>SUBSTRUCTURE
     1 UNK         1 GROUP             0       ****    0 ROOT    
