@<TRIPOS>MOLECULE
ZINC13175295_1009
67   71    1
SMALL
USER_CHARGES


@<TRIPOS>ATOM
      1 C1          6.5569   55.1567   22.5620 C.3       1 UNK         0.0000 
      2 C2          6.0938   54.0254   23.5126 C.3       1 UNK         0.0000 
      3 H3          6.2361   53.0502   23.0426 H         1 UNK         0.0000 
      4 C4          6.9156   54.0425   24.8079 C.3       1 UNK         0.0000 
      5 C5          5.8986   54.0987   25.8997 C.ar      1 UNK         0.0000 
      6 C6          6.0984   54.1391   27.2813 C.ar      1 UNK         0.0000 
      7 C7          5.0027   54.2533   28.1355 C.ar      1 UNK         0.0000 
      8 C8          3.7141   54.3415   27.6083 C.ar      1 UNK         0.0000 
      9 C9          3.5173   54.3015   26.2266 C.ar      1 UNK         0.0000 
     10 C10         4.6141   54.1435   25.3642 C.ar      1 UNK         0.0000 
     11 N11         4.6780   54.0966   23.9497 N.am      1 UNK         0.0000 
     12 C12         3.6173   53.9056   23.1049 C.2       1 UNK         0.0000 
     13 O13         2.4492   53.9179   23.4981 O.2       1 UNK         0.0000 
     14 C14         3.8436   53.6663   21.5992 C.3       1 UNK         0.0000 
     15 S15         2.7901   52.3636   20.8735 S.3       1 UNK         0.0000 
     16 C16         2.7156   52.8017   19.1347 C.2       1 UNK         0.0000 
     17 C17         1.6247   52.6485   18.3520 C.2       1 UNK         0.0000 
     18 C18         1.6253   53.1832   16.9163 C.3       1 UNK         0.0000 
     19 H19         1.2913   52.3798   16.2560 H         1 UNK         0.0000 
     20 C20         3.0746   53.5336   16.4614 C.2       1 UNK         0.0000 
     21 C21         3.3890   53.7579   15.1629 C.2       1 UNK         0.0000 
     22 C22         4.7420   54.2520   14.6554 C.3       1 UNK         0.0000 
     23 C23         5.8838   53.7902   15.6056 C.3       1 UNK         0.0000 
     24 C24         5.5152   54.1179   17.0920 C.3       1 UNK         0.0000 
     25 C25         4.1094   53.6395   17.4908 C.2       1 UNK         0.0000 
     26 N26         3.8890   53.3512   18.7186 N.2       1 UNK         0.0000 
     27 C27         7.1556   54.5914   15.2508 C.3       1 UNK         0.0000 
     28 C28         6.1022   52.2641   15.4475 C.3       1 UNK         0.0000 
     29 O29         2.5277   53.7200   14.2064 O.co2     1 UNK         0.0000 
     30 C30         0.5972   54.3131   16.7310 C.ar      1 UNK         0.0000 
     31 C31         0.9622   55.6549   16.8822 C.ar      1 UNK         0.0000 
     32 C32         0.0095   56.6624   16.7560 C.ar      1 UNK         0.0000 
     33 C33        -1.3156   56.3512   16.4547 C.ar      1 UNK         0.0000 
     34 C34        -1.6813   55.0071   16.2850 C.ar      1 UNK         0.0000 
     35 C35        -0.7304   53.9986   16.4234 C.ar      1 UNK         0.0000 
     36 O36        -2.1894   57.4157   16.3456 O.3       1 UNK         0.0000 
     37 C37        -3.4985   57.1874   15.8350 C.3       1 UNK         0.0000 
     38 C38         0.4133   52.1143   18.8855 C.1       1 UNK         0.0000 
     39 N39        -0.5947   51.7187   19.2986 N.1       1 UNK         0.0000 
     40 H40         7.5508   54.9366   22.1721 H         1 UNK         0.0000 
     41 H41         5.9000   55.3310   21.7126 H         1 UNK         0.0000 
     42 H42         6.6568   56.0973   23.0986 H         1 UNK         0.0000 
     43 H43         7.5044   53.1325   24.8821 H         1 UNK         0.0000 
     44 H44         7.5477   54.9265   24.8812 H         1 UNK         0.0000 
     45 H45         7.0929   54.0990   27.7012 H         1 UNK         0.0000 
     46 H46         5.1552   54.2929   29.2039 H         1 UNK         0.0000 
     47 H47         2.8660   54.4464   28.2687 H         1 UNK         0.0000 
     48 H48         2.5077   54.3766   25.8557 H         1 UNK         0.0000 
     49 H49         4.8612   53.3749   21.3529 H         1 UNK         0.0000 
     50 H50         3.6274   54.6044   21.0898 H         1 UNK         0.0000 
     51 H51         4.6690   55.3407   14.6590 H         1 UNK         0.0000 
     52 H52         4.9465   53.9408   13.6288 H         1 UNK         0.0000 
     53 H53         5.5621   55.1911   17.2803 H         1 UNK         0.0000 
     54 H54         6.2525   53.6567   17.7521 H         1 UNK         0.0000 
     55 H55         7.4645   54.4090   14.2209 H         1 UNK         0.0000 
     56 H56         7.0048   55.6662   15.3599 H         1 UNK         0.0000 
     57 H57         7.9925   54.3119   15.8921 H         1 UNK         0.0000 
     58 H58         6.3978   52.0072   14.4302 H         1 UNK         0.0000 
     59 H59         6.8851   51.9014   16.1144 H         1 UNK         0.0000 
     60 H60         5.2001   51.6966   15.6752 H         1 UNK         0.0000 
     61 H61         1.9807   55.9191   17.1273 H         1 UNK         0.0000 
     62 H62         0.3033   57.6934   16.8934 H         1 UNK         0.0000 
     63 H63        -2.6967   54.7268   16.0503 H         1 UNK         0.0000 
     64 H64        -1.0289   52.9674   16.3002 H         1 UNK         0.0000 
     65 H65        -4.0297   58.1376   15.7717 H         1 UNK         0.0000 
     66 H66        -4.0788   56.5297   16.4807 H         1 UNK         0.0000 
     67 H67        -3.4644   56.7593   14.8324 H         1 UNK         0.0000 
@<TRIPOS>BOND
     1    1    2 1    
     2    1   40 1    
     3    1   41 1    
     4    1   42 1    
     5    2    3 1    
     6    2   11 1    
     7    2    4 1    
     8    4    5 1    
     9    4   43 1    
    10    4   44 1    
    11    5   10 ar   
    12    5    6 ar   
    13    6    7 ar   
    14    6   45 1    
    15    7    8 ar   
    16    7   46 1    
    17    8    9 ar   
    18    8   47 1    
    19    9   10 ar   
    20    9   48 1    
    21   10   11 1    
    22   11   12 am   BACKBONE|DICT|INTERRES
    23   12   13 2    
    24   12   14 1    
    25   14   15 1    
    26   14   49 1    
    27   14   50 1    
    28   15   16 1    
    29   16   26 1    
    30   16   17 2    
    31   17   18 1    
    32   17   38 1    
    33   18   19 1    
    34   18   20 1    
    35   18   30 1    
    36   20   25 1    
    37   20   21 2    
    38   21   22 1    
    39   21   29 1    
    40   22   23 1    
    41   22   51 1    
    42   22   52 1    
    43   23   24 1    
    44   23   27 1    
    45   23   28 1    
    46   24   25 1    
    47   24   53 1    
    48   24   54 1    
    49   25   26 2    
    50   27   55 1    
    51   27   56 1    
    52   27   57 1    
    53   28   58 1    
    54   28   59 1    
    55   28   60 1    
    56   30   35 ar   
    57   30   31 ar   
    58   31   32 ar   
    59   31   61 1    
    60   32   33 ar   
    61   32   62 1    
    62   33   34 ar   
    63   33   36 1    
    64   34   35 ar   
    65   34   63 1    
    66   35   64 1    
    67   36   37 1    
    68   37   65 1    
    69   37   66 1    
    70   37   67 1    
    71   38   39 3    
@<TRIPOS>SUBSTRUCTURE
     1 UNK         1 GROUP             0       ****    0 ROOT    
