@<TRIPOS>MOLECULE
ZINC40051509_4903
66   69    1
SMALL
USER_CHARGES


@<TRIPOS>ATOM
      1 C1          4.3028   51.2966   20.7014 C.3       1 UNK         0.0000 
      2 N2          3.1956   52.3644   20.8671 N.4       1 UNK         0.0000 
      3 C3          3.6263   53.5636   21.7493 C.3       1 UNK         0.0000 
      4 C4          4.9303   54.2713   21.3540 C.ar      1 UNK         0.0000 
      5 C5          5.1036   54.6358   20.0114 C.ar      1 UNK         0.0000 
      6 C6          6.2475   55.3085   19.5923 C.ar      1 UNK         0.0000 
      7 C7          7.2376   55.6348   20.5125 C.ar      1 UNK         0.0000 
      8 C8          7.0798   55.2966   21.8537 C.ar      1 UNK         0.0000 
      9 C9          5.9255   54.6126   22.2962 C.ar      1 UNK         0.0000 
     10 N10         5.7080   54.2730   23.6519 N.am      1 UNK         0.0000 
     11 C11         6.2451   54.8264   24.7579 C.2       1 UNK         0.0000 
     12 O12         7.1044   55.6968   24.7641 O.2       1 UNK         0.0000 
     13 C13         5.7250   54.3308   26.0746 C.ar      1 UNK         0.0000 
     14 C14         6.6267   54.0967   27.1180 C.ar      1 UNK         0.0000 
     15 C15         6.1724   53.6967   28.3662 C.ar      1 UNK         0.0000 
     16 C16         4.8088   53.5467   28.5990 C.ar      1 UNK         0.0000 
     17 C17         3.8820   53.8099   27.5781 C.ar      1 UNK         0.0000 
     18 C18         4.3507   54.1746   26.3104 C.ar      1 UNK         0.0000 
     19 N19         2.4864   53.7332   27.7392 N.am      1 UNK         0.0000 
     20 C20         1.7632   53.7030   28.8810 C.2       1 UNK         0.0000 
     21 O21         2.2504   53.7911   30.0115 O.2       1 UNK         0.0000 
     22 C22         0.2234   53.6109   28.7063 C.3       1 UNK         0.0000 
     23 H23        -0.0893   54.5594   28.2758 H         1 UNK         0.0000 
     24 C24        -0.2496   52.4274   27.8466 C.3       1 UNK         0.0000 
     25 C25        -0.5920   51.3318   28.8365 C.3       1 UNK         0.0000 
     26 C26        -0.4778   51.9803   30.2150 C.3       1 UNK         0.0000 
     27 O27        -0.4379   53.3830   29.9537 O.3       1 UNK         0.0000 
     28 C28         1.7991   51.8130   21.2746 C.3       1 UNK         0.0000 
     29 C29         1.1347   51.1219   20.0617 C.3       1 UNK         0.0000 
     30 C30        -0.2332   50.5098   20.4259 C.3       1 UNK         0.0000 
     31 C31        -0.1362   49.5711   21.6453 C.3       1 UNK         0.0000 
     32 C32         0.5051   50.2645   22.8656 C.3       1 UNK         0.0000 
     33 C33         1.8726   50.8899   22.5219 C.3       1 UNK         0.0000 
     34 H34         4.5890   50.9202   21.6830 H         1 UNK         0.0000 
     35 H35         3.9068   50.4953   20.0816 H         1 UNK         0.0000 
     36 H36         5.1461   51.7673   20.1960 H         1 UNK         0.0000 
     37 H37         3.6339   53.1711   22.7647 H         1 UNK         0.0000 
     38 H38         2.8015   54.2751   21.6820 H         1 UNK         0.0000 
     39 H39         4.3424   54.4025   19.2806 H         1 UNK         0.0000 
     40 H40         6.3672   55.5743   18.5516 H         1 UNK         0.0000 
     41 H41         8.1381   56.1329   20.1816 H         1 UNK         0.0000 
     42 H42         7.8995   55.5472   22.5131 H         1 UNK         0.0000 
     43 H43         5.0027   53.5755   23.8205 H         1 UNK         0.0000 
     44 H44         7.6885   54.2252   26.9748 H         1 UNK         0.0000 
     45 H45         6.8877   53.5233   29.1552 H         1 UNK         0.0000 
     46 H46         4.5023   53.2309   29.5829 H         1 UNK         0.0000 
     47 H47         3.6425   54.3866   25.5220 H         1 UNK         0.0000 
     48 H48         1.9587   53.7403   26.8814 H         1 UNK         0.0000 
     49 H49         0.4767   52.0909   27.1051 H         1 UNK         0.0000 
     50 H50        -1.1342   52.7206   27.2789 H         1 UNK         0.0000 
     51 H51         0.0973   50.4973   28.7426 H         1 UNK         0.0000 
     52 H52        -1.5981   50.9431   28.6673 H         1 UNK         0.0000 
     53 H53         0.4374   51.6976   30.7353 H         1 UNK         0.0000 
     54 H54        -1.2955   51.7128   30.8815 H         1 UNK         0.0000 
     55 H55         1.1543   52.6578   21.5315 H         1 UNK         0.0000 
     56 H56         1.0659   51.8071   19.2172 H         1 UNK         0.0000 
     57 H57         1.7695   50.3147   19.6976 H         1 UNK         0.0000 
     58 H58        -0.9449   51.3090   20.6373 H         1 UNK         0.0000 
     59 H59        -0.6355   49.9665   19.5696 H         1 UNK         0.0000 
     60 H60        -1.1271   49.1983   21.9097 H         1 UNK         0.0000 
     61 H61         0.4549   48.6936   21.3784 H         1 UNK         0.0000 
     62 H62        -0.1668   51.0390   23.2382 H         1 UNK         0.0000 
     63 H63         0.6181   49.5485   23.6806 H         1 UNK         0.0000 
     64 H64         2.5619   50.0667   22.3274 H         1 UNK         0.0000 
     65 H65         2.3043   51.4075   23.3783 H         1 UNK         0.0000 
     66 H66         3.0583   52.7543   19.9435 H         1 UNK         0.0000 
@<TRIPOS>BOND
     1    1    2 1    
     2    1   34 1    
     3    1   35 1    
     4    1   36 1    
     5    2    3 1    
     6    2   28 1    
     7    2   66 1    
     8    3    4 1    
     9    3   37 1    
    10    3   38 1    
    11    4    9 ar   
    12    4    5 ar   
    13    5    6 ar   
    14    5   39 1    
    15    6    7 ar   
    16    6   40 1    
    17    7    8 ar   
    18    7   41 1    
    19    8    9 ar   
    20    8   42 1    
    21    9   10 1    
    22   10   11 am   BACKBONE|DICT|INTERRES
    23   10   43 1    
    24   11   12 2    
    25   11   13 1    
    26   13   18 ar   
    27   13   14 ar   
    28   14   15 ar   
    29   14   44 1    
    30   15   16 ar   
    31   15   45 1    
    32   16   17 ar   
    33   16   46 1    
    34   17   18 ar   
    35   17   19 1    
    36   18   47 1    
    37   19   20 am   BACKBONE|DICT|INTERRES
    38   19   48 1    
    39   20   21 2    
    40   20   22 1    
    41   22   23 1    
    42   22   27 1    
    43   22   24 1    
    44   24   25 1    
    45   24   49 1    
    46   24   50 1    
    47   25   26 1    
    48   25   51 1    
    49   25   52 1    
    50   26   27 1    
    51   26   53 1    
    52   26   54 1    
    53   28   33 1    
    54   28   29 1    
    55   28   55 1    
    56   29   30 1    
    57   29   56 1    
    58   29   57 1    
    59   30   31 1    
    60   30   58 1    
    61   30   59 1    
    62   31   32 1    
    63   31   60 1    
    64   31   61 1    
    65   32   33 1    
    66   32   62 1    
    67   32   63 1    
    68   33   64 1    
    69   33   65 1    
@<TRIPOS>SUBSTRUCTURE
     1 UNK         1 GROUP             0       ****    0 ROOT    
