@<TRIPOS>MOLECULE
ZINC52860709_4701
40   41    1
SMALL
USER_CHARGES


@<TRIPOS>ATOM
      1 C1          1.2903   56.2242   30.3738 C.3       1 UNK         0.0000 
      2 C2          1.6333   54.9580   29.5858 C.3       1 UNK         0.0000 
      3 H3          0.6968   54.5455   29.2090 H         1 UNK         0.0000 
      4 C4          2.6112   55.2349   28.4217 C.3       1 UNK         0.0000 
      5 N5          2.9309   53.9732   27.7468 N.pl3     1 UNK         0.0000 
      6 C6          3.5606   53.0440   28.6925 C.3       1 UNK         0.0000 
      7 C7          2.6404   52.7686   29.9136 C.3       1 UNK         0.0000 
      8 O8          2.2323   54.0187   30.4763 O.3       1 UNK         0.0000 
      9 C9          1.4121   51.9298   29.4883 C.3       1 UNK         0.0000 
     10 C10         3.4635   52.0970   31.0211 C.3       1 UNK         0.0000 
     11 C11         2.9374   53.7982   26.3682 C.ar      1 UNK         0.0000 
     12 C12         1.7330   53.2955   25.8561 C.ar      1 UNK         0.0000 
     13 C13         1.5502   53.0728   24.4991 C.ar      1 UNK         0.0000 
     14 C14         2.5854   53.3454   23.6212 C.ar      1 UNK         0.0000 
     15 C15         3.7906   53.8431   24.1034 C.ar      1 UNK         0.0000 
     16 C16         4.0119   54.0971   25.4790 C.ar      1 UNK         0.0000 
     17 C17         5.3477   54.6364   25.8940 C.2       1 UNK         0.0000 
     18 N18         5.8429   54.3128   27.0220 N.2       1 UNK         0.0000 
     19 O19         7.0988   54.8956   27.2812 O.3       1 UNK         0.0000 
     20 N20         5.9036   55.4764   24.9392 N.pl3     1 UNK         0.0000 
     21 Cl21        2.3891   53.0437   21.9345 Cl        1 UNK         0.0000 
     22 H22         0.7045   56.9008   29.7566 H         1 UNK         0.0000 
     23 H23         0.7103   55.9907   31.2719 H         1 UNK         0.0000 
     24 H24         2.1863   56.7620   30.6839 H         1 UNK         0.0000 
     25 H25         3.5340   55.6959   28.7674 H         1 UNK         0.0000 
     26 H26         2.1191   55.8677   27.6873 H         1 UNK         0.0000 
     27 H27         3.8445   52.1101   28.2043 H         1 UNK         0.0000 
     28 H28         4.4798   53.5170   29.0379 H         1 UNK         0.0000 
     29 H29         1.7156   50.9648   29.0801 H         1 UNK         0.0000 
     30 H30         0.7577   51.7373   30.3400 H         1 UNK         0.0000 
     31 H31         0.8040   52.4126   28.7277 H         1 UNK         0.0000 
     32 H32         3.9048   51.1751   30.6651 H         1 UNK         0.0000 
     33 H33         4.2740   52.7355   31.3687 H         1 UNK         0.0000 
     34 H34         2.8434   51.8701   31.8898 H         1 UNK         0.0000 
     35 H35         0.9116   53.0769   26.5234 H         1 UNK         0.0000 
     36 H36         0.6133   52.6752   24.1350 H         1 UNK         0.0000 
     37 H37         4.5707   54.0114   23.3750 H         1 UNK         0.0000 
     38 H38         7.1651   54.8326   28.2438 H         1 UNK         0.0000 
     39 H39         6.8155   55.8717   25.1062 H         1 UNK         0.0000 
     40 H40         5.4055   55.7119   24.0954 H         1 UNK         0.0000 
@<TRIPOS>BOND
     1    1    2 1    
     2    1   22 1    
     3    1   23 1    
     4    1   24 1    
     5    2    3 1    
     6    2    8 1    
     7    2    4 1    
     8    4    5 1    
     9    4   25 1    
    10    4   26 1    
    11    5    6 1    
    12    5   11 1    
    13    6    7 1    
    14    6   27 1    
    15    6   28 1    
    16    7    8 1    
    17    7    9 1    
    18    7   10 1    
    19    9   29 1    
    20    9   30 1    
    21    9   31 1    
    22   10   32 1    
    23   10   33 1    
    24   10   34 1    
    25   11   16 ar   
    26   11   12 ar   
    27   12   13 ar   
    28   12   35 1    
    29   13   14 ar   
    30   13   36 1    
    31   14   15 ar   
    32   14   21 1    
    33   15   16 ar   
    34   15   37 1    
    35   16   17 1    
    36   17   18 2    
    37   17   20 1    
    38   18   19 1    
    39   19   38 1    
    40   20   39 1    
    41   20   40 1    
@<TRIPOS>SUBSTRUCTURE
     1 UNK         1 GROUP             0       ****    0 ROOT    
