ZINC40822878_2778
                    3D
 Schrodinger Suite 2024-2.
 51 53  0  0  1  0            999 V2000
    1.5923   56.6921   29.6124 C   0  0  0  0  0  0
    0.9918   55.4772   30.3299 C   0  0  0  0  0  0
    1.0829   54.1482   29.5408 C   0  0  2  0  0  0
    1.4269   54.4195   28.5492 H   0  0  0  0  0  0
   -0.2699   53.4647   29.3388 C   0  0  0  0  0  0
    1.9852   53.1947   30.1853 N   0  0  0  0  0  0
    3.2121   52.7868   29.8190 C   0  0  0  0  0  0
    3.8624   52.0259   30.5331 O   0  0  0  0  0  0
    3.7631   53.2910   28.5888 C   0  0  0  0  0  0
    3.2941   53.2971   27.2604 C   0  0  0  0  0  0
    4.3414   53.8947   26.5216 C   0  0  0  0  0  0
    5.3812   54.1313   27.4141 C   0  0  0  0  0  0
    5.0303   53.7657   28.6633 O   0  0  0  0  0  0
    6.7664   54.6470   27.1154 C   0  0  0  0  0  0
    6.9828   54.4298   25.6060 C   0  0  0  0  0  0
    5.8055   54.9589   24.7572 C   0  0  0  0  0  0
    4.4998   54.1733   25.0771 C   0  0  0  0  0  0
    3.6018   53.7593   24.2662 N   0  0  0  0  0  0
    3.8937   53.9245   22.9598 N   0  0  0  0  0  0
    3.2420   53.2959   21.9611 C   0  0  0  0  0  0
    2.2008   52.6508   22.1224 O   0  0  0  0  0  0
    3.8769   53.4230   20.5906 C   0  0  0  0  0  0
    3.2262   52.8961   19.4629 C   0  0  0  0  0  0
    3.7934   53.0378   18.1979 C   0  0  0  0  0  0
    5.0172   53.6967   18.0839 C   0  0  0  0  0  0
    5.6751   54.2149   19.1501 N   0  0  0  0  0  0
    5.1051   54.0782   20.3735 C   0  0  0  0  0  0
    2.9229   52.3367   16.6607 Br  0  0  0  0  0  0
    2.0043   52.6931   26.7255 C   0  0  0  0  0  0
    1.5044   57.5860   30.2297 H   0  0  0  0  0  0
    1.0746   56.8871   28.6755 H   0  0  0  0  0  0
    2.6494   56.5372   29.3911 H   0  0  0  0  0  0
    1.4985   55.3906   31.2818 H   0  0  0  0  0  0
   -0.0416   55.6910   30.5945 H   0  0  0  0  0  0
   -0.8933   54.0966   28.7171 H   0  0  0  0  0  0
   -0.1714   52.5047   28.8320 H   0  0  0  0  0  0
   -0.7922   53.2997   30.2811 H   0  0  0  0  0  0
    1.6293   52.7863   31.0373 H   0  0  0  0  0  0
    6.8439   55.6972   27.3866 H   0  0  0  0  0  0
    7.5132   54.0972   27.6861 H   0  0  0  0  0  0
    7.9044   54.8968   25.2801 H   0  0  0  0  0  0
    7.1064   53.3610   25.4122 H   0  0  0  0  0  0
    5.6415   56.0218   24.9344 H   0  0  0  0  0  0
    6.0873   54.8744   23.7095 H   0  0  0  0  0  0
    4.7459   54.4307   22.7781 H   0  0  0  0  0  0
    2.2794   52.3846   19.5589 H   0  0  0  0  0  0
    5.4917   53.8106   17.1217 H   0  0  0  0  0  0
    5.6749   54.5202   21.1764 H   0  0  0  0  0  0
    2.1746   52.0980   25.8294 H   0  0  0  0  0  0
    1.5289   52.0164   27.4315 H   0  0  0  0  0  0
    1.2872   53.4579   26.4316 H   0  0  0  0  0  0
  1  2  1  0  0  0
  1 30  1  0  0  0
  1 31  1  0  0  0
  1 32  1  0  0  0
  2  3  1  0  0  0
  2 33  1  0  0  0
  2 34  1  0  0  0
  3  4  1  0  0  0
  3  5  1  0  0  0
  3  6  1  0  0  0
  5 35  1  0  0  0
  5 36  1  0  0  0
  5 37  1  0  0  0
  6  7  1  0  0  0
  6 38  1  0  0  0
  7  8  2  0  0  0
  7  9  1  0  0  0
  9 13  1  0  0  0
  9 10  2  0  0  0
 10 11  1  0  0  0
 10 29  1  0  0  0
 11 17  1  0  0  0
 11 12  2  0  0  0
 12 13  1  0  0  0
 12 14  1  0  0  0
 14 15  1  0  0  0
 14 39  1  0  0  0
 14 40  1  0  0  0
 15 16  1  0  0  0
 15 41  1  0  0  0
 15 42  1  0  0  0
 16 17  1  0  0  0
 16 43  1  0  0  0
 16 44  1  0  0  0
 17 18  2  0  0  0
 18 19  1  0  0  0
 19 20  1  0  0  0
 19 45  1  0  0  0
 20 21  2  0  0  0
 20 22  1  0  0  0
 22 27  2  0  0  0
 22 23  1  0  0  0
 23 24  2  0  0  0
 23 46  1  0  0  0
 24 25  1  0  0  0
 24 28  1  0  0  0
 25 26  2  0  0  0
 25 47  1  0  0  0
 26 27  1  0  0  0
 27 48  1  0  0  0
 29 49  1  0  0  0
 29 50  1  0  0  0
 29 51  1  0  0  0
M  END
> <i_i_glide_confnum>
25

> <i_i_glide_lignum>
2779

> <i_i_glide_posenum>
231

> <i_i_glide_rotatable_bonds>
7

> <i_m_Source_File_Index>
101

> <b_m_subgroup_collapsed>
0

> <r_i_docking_score>
-4.41275

> <r_i_glide_ecoul>
-1.57964

> <r_i_glide_eff_state_penalty>
0

> <r_i_glide_einternal>
18.0964

> <r_i_glide_emodel>
-43.8367

> <r_i_glide_energy>
-45.2178

> <r_i_glide_erotb>
0.500342

> <r_i_glide_esite>
0

> <r_i_glide_evdw>
-43.6381

> <r_i_glide_gscore>
-4.41275

> <r_i_glide_hbond>
-0.220381

> <r_i_glide_ligand_efficiency>
-0.157598

> <r_i_glide_ligand_efficiency_ln>
-1.01859

> <r_i_glide_ligand_efficiency_sa>
-0.47856

> <r_i_glide_lipo>
-2.57544

> <r_i_glide_metal>
0

> <r_i_glide_rewards>
0.301583

> <s_i_glide_gridfile>
wee1_glide-grid

> <s_m_Source_File>
wee1_decoys_glide_SP.sdf

> <s_m_Source_Path>
/Users/zhangxujun/Desktop

> <s_m_entry_id>
376

> <s_m_entry_name>
wee1_decoys_glide_SP.101

> <s_m_subgroup_title>
wee1_decoys_glide_SP

> <s_m_subgroupid>
wee1_decoys_glide_SP


$$$$
