ZINC40399605_2514
                    3D
 Schrodinger Suite 2024-2.
 48 51  0  0  1  0            999 V2000
    4.8843   54.4914   27.1901 C   0  0  0  0  0  0
    5.0650   54.4941   25.6833 C   0  0  0  0  0  0
    4.0092   54.1034   24.8560 C   0  0  0  0  0  0
    4.1770   54.0966   23.4729 C   0  0  0  0  0  0
    5.3936   54.4912   22.9158 C   0  0  0  0  0  0
    6.4546   54.8746   23.7469 C   0  0  0  0  0  0
    6.2864   54.8798   25.1300 C   0  0  0  0  0  0
    5.5043   54.4450   21.5170 N   0  0  0  0  0  0
    6.1798   55.3064   20.7225 C   0  0  0  0  0  0
    6.7047   56.3355   21.1520 O   0  0  0  0  0  0
    6.2928   54.9983   19.1952 C   0  0  1  0  0  0
    7.3782   54.9708   19.0605 H   0  0  0  0  0  0
    5.6916   53.5937   18.7957 C   0  0  0  0  0  0
    4.1397   53.5956   18.6956 C   0  0  0  0  0  0
    3.4206   52.6925   19.1092 O   0  0  0  0  0  0
    3.6556   54.6974   18.0870 N   0  0  0  0  0  0
    4.3564   55.8271   17.8592 C   0  0  0  0  0  0
    5.6156   56.0567   18.3009 C   0  0  0  0  0  0
    6.2334   57.3424   18.0013 C   0  0  0  0  0  0
    7.3524   57.6958   18.3565 O   0  0  0  0  0  0
    5.4339   58.1610   17.2825 N   0  0  0  0  0  0
    5.8271   59.0725   17.1095 H   0  0  0  0  0  0
    4.1651   57.8825   16.8663 C   0  0  0  0  0  0
    3.6485   56.7384   17.1442 N   0  0  0  0  0  0
    3.4668   58.8968   16.1568 N   0  0  0  0  0  0
    2.1821   58.9466   15.5818 C   0  0  0  0  0  0
    1.7216   60.2004   15.1629 C   0  0  0  0  0  0
    0.4505   60.3464   14.6136 C   0  0  0  0  0  0
   -0.3734   59.2331   14.4738 C   0  0  0  0  0  0
    0.0733   57.9746   14.8667 C   0  0  0  0  0  0
    1.3464   57.8297   15.4148 C   0  0  0  0  0  0
   -1.6135   59.3742   13.9532 F   0  0  0  0  0  0
    4.9958   53.4800   27.5865 H   0  0  0  0  0  0
    3.8885   54.8538   27.4558 H   0  0  0  0  0  0
    5.6022   55.1511   27.6840 H   0  0  0  0  0  0
    3.0630   53.8019   25.2822 H   0  0  0  0  0  0
    3.3547   53.7884   22.8414 H   0  0  0  0  0  0
    7.4110   55.1627   23.3310 H   0  0  0  0  0  0
    7.1049   55.1742   25.7676 H   0  0  0  0  0  0
    4.9410   53.7444   21.0582 H   0  0  0  0  0  0
    6.0303   53.3373   17.7908 H   0  0  0  0  0  0
    6.0246   52.7740   19.4317 H   0  0  0  0  0  0
    2.6720   54.7023   17.8780 H   0  0  0  0  0  0
    3.9048   59.8146   16.1940 H   0  0  0  0  0  0
    2.3448   61.0773   15.2826 H   0  0  0  0  0  0
    0.1042   61.3207   14.3002 H   0  0  0  0  0  0
   -0.5690   57.1148   14.7506 H   0  0  0  0  0  0
    1.6614   56.8399   15.7082 H   0  0  0  0  0  0
  1  2  1  0  0  0
  1 33  1  0  0  0
  1 34  1  0  0  0
  1 35  1  0  0  0
  2  7  2  0  0  0
  2  3  1  0  0  0
  3  4  2  0  0  0
  3 36  1  0  0  0
  4  5  1  0  0  0
  4 37  1  0  0  0
  5  6  2  0  0  0
  5  8  1  0  0  0
  6  7  1  0  0  0
  6 38  1  0  0  0
  7 39  1  0  0  0
  8  9  1  0  0  0
  8 40  1  0  0  0
  9 10  2  0  0  0
  9 11  1  0  0  0
 11 12  1  0  0  0
 11 18  1  0  0  0
 11 13  1  0  0  0
 13 14  1  0  0  0
 13 41  1  0  0  0
 13 42  1  0  0  0
 14 15  2  0  0  0
 14 16  1  0  0  0
 16 17  1  0  0  0
 16 43  1  0  0  0
 17 24  1  0  0  0
 17 18  2  0  0  0
 18 19  1  0  0  0
 19 20  2  0  0  0
 19 21  1  0  0  0
 21 22  1  0  0  0
 21 23  1  0  0  0
 23 24  2  0  0  0
 23 25  1  0  0  0
 25 26  1  0  0  0
 25 44  1  0  0  0
 26 31  2  0  0  0
 26 27  1  0  0  0
 27 28  2  0  0  0
 27 45  1  0  0  0
 28 29  1  0  0  0
 28 46  1  0  0  0
 29 30  2  0  0  0
 29 32  1  0  0  0
 30 31  1  0  0  0
 30 47  1  0  0  0
 31 48  1  0  0  0
M  END
> <i_i_glide_confnum>
47

> <i_i_glide_lignum>
2515

> <i_i_glide_posenum>
320

> <i_i_glide_rotatable_bonds>
5

> <i_m_Source_File_Index>
350

> <b_m_subgroup_collapsed>
0

> <r_i_docking_score>
-5.82161

> <r_i_glide_ecoul>
-8.3808

> <r_i_glide_eff_state_penalty>
0

> <r_i_glide_einternal>
6.35883

> <r_i_glide_emodel>
-57.9467

> <r_i_glide_energy>
-44.2814

> <r_i_glide_erotb>
0.59261

> <r_i_glide_esite>
-0.221142

> <r_i_glide_evdw>
-35.9006

> <r_i_glide_gscore>
-5.82161

> <r_i_glide_hbond>
-0.275245

> <r_i_glide_ligand_efficiency>
-0.194054

> <r_i_glide_ligand_efficiency_ln>
-1.32273

> <r_i_glide_ligand_efficiency_sa>
-0.60297

> <r_i_glide_lipo>
-2.02528

> <r_i_glide_metal>
0

> <r_i_glide_rewards>
-0.840399

> <s_i_glide_gridfile>
wee1_glide-grid

> <s_m_Source_File>
wee1_decoys_glide_SP.sdf

> <s_m_Source_Path>
/Users/zhangxujun/Desktop

> <s_m_entry_id>
625

> <s_m_entry_name>
wee1_decoys_glide_SP.350

> <s_m_subgroup_title>
wee1_decoys_glide_SP

> <s_m_subgroupid>
wee1_decoys_glide_SP


$$$$
