ZINC08920040_4921
                    3D
 Schrodinger Suite 2024-2.
 64 68  0  0  1  0            999 V2000
    0.6046   54.4321   30.7410 C   0  0  0  0  0  0
    1.0538   53.0315   30.2499 C   0  0  0  0  0  0
    1.7991   52.3185   31.4026 C   0  0  0  0  0  0
   -0.2222   52.1964   29.9702 C   0  0  0  0  0  0
    1.9629   53.0991   28.9621 C   0  0  1  0  0  0
    2.1473   52.0575   28.6827 H   0  0  0  0  0  0
    1.2783   53.8061   27.7616 C   0  0  0  0  0  0
    2.0113   53.5294   26.4339 C   0  0  0  0  0  0
    3.4961   53.8429   26.6067 C   0  0  0  0  0  0
    4.0968   53.9207   27.8736 C   0  0  0  0  0  0
    5.8018   54.2598   27.7758 S   0  0  0  0  0  0
    5.7112   54.3205   26.0506 C   0  0  0  0  0  0
    4.4230   54.0959   25.5717 C   0  0  0  0  0  0
    4.1947   54.1441   24.1213 C   0  0  0  0  0  0
    3.0911   54.0890   23.5725 O   0  0  0  0  0  0
    5.3964   54.3008   23.4133 N   0  0  0  0  0  0
    6.6389   54.4971   24.0087 C   0  0  0  0  0  0
    6.8109   54.5439   25.2838 N   0  0  0  0  0  0
    5.3107   54.4383   21.9280 C   0  0  0  0  0  0
    4.7063   53.2197   21.1964 C   0  0  0  0  0  0
    4.7983   52.0932   21.6818 O   0  0  0  0  0  0
    4.1392   53.5145   20.0091 N   0  0  0  0  0  0
    3.3884   52.6882   19.1742 C   0  0  0  0  0  0
    3.0700   52.9562   17.8250 C   0  0  0  0  0  0
    2.2133   51.9412   17.2848 C   0  0  0  0  0  0
    1.9184   50.9374   18.2244 C   0  0  0  0  0  0
    2.7011   51.1904   19.7383 S   0  0  0  0  0  0
    1.0790   49.6976   17.9668 C   0  0  0  0  0  0
    0.1801   49.9453   16.7441 C   0  0  0  0  0  0
    0.9970   50.4884   15.5647 C   0  0  0  0  0  0
    1.6316   51.8671   15.8572 C   0  0  0  0  0  0
    3.4977   54.1820   17.1503 C   0  0  0  0  0  0
    3.8170   55.2003   17.7600 O   0  0  0  0  0  0
    3.5862   54.1419   15.8184 N   0  0  0  0  0  0
    3.3563   53.7689   29.1995 C   0  0  0  0  0  0
    0.0814   54.3693   31.6949 H   0  0  0  0  0  0
   -0.0922   54.8960   30.0454 H   0  0  0  0  0  0
    1.4347   55.1233   30.8772 H   0  0  0  0  0  0
    2.0664   51.3010   31.1305 H   0  0  0  0  0  0
    2.7225   52.8206   31.6812 H   0  0  0  0  0  0
    1.1837   52.2550   32.3029 H   0  0  0  0  0  0
    0.0198   51.2239   29.5417 H   0  0  0  0  0  0
   -0.7958   52.0134   30.8812 H   0  0  0  0  0  0
   -0.9007   52.6896   29.2786 H   0  0  0  0  0  0
    0.2703   53.4185   27.6268 H   0  0  0  0  0  0
    1.1335   54.8704   27.9566 H   0  0  0  0  0  0
    1.8946   52.4818   26.1560 H   0  0  0  0  0  0
    1.5535   54.0968   25.6275 H   0  0  0  0  0  0
    7.5032   54.6278   23.3609 H   0  0  0  0  0  0
    4.7187   55.3200   21.6845 H   0  0  0  0  0  0
    6.2961   54.6026   21.4875 H   0  0  0  0  0  0
    4.2942   54.4384   19.6263 H   0  0  0  0  0  0
    1.7384   48.8507   17.7723 H   0  0  0  0  0  0
    0.4763   49.4387   18.8360 H   0  0  0  0  0  0
   -0.3151   49.0179   16.4588 H   0  0  0  0  0  0
   -0.6144   50.6497   16.9958 H   0  0  0  0  0  0
    1.7837   49.7710   15.3191 H   0  0  0  0  0  0
    0.3735   50.5584   14.6721 H   0  0  0  0  0  0
    0.8907   52.6563   15.7219 H   0  0  0  0  0  0
    2.3937   52.0171   15.0968 H   0  0  0  0  0  0
    3.4216   53.2785   15.3230 H   0  0  0  0  0  0
    3.8947   54.9629   15.3220 H   0  0  0  0  0  0
    3.2413   54.7571   29.6446 H   0  0  0  0  0  0
    3.9645   53.1721   29.8800 H   0  0  0  0  0  0
  1  2  1  0  0  0
  1 36  1  0  0  0
  1 37  1  0  0  0
  1 38  1  0  0  0
  2  3  1  0  0  0
  2  4  1  0  0  0
  2  5  1  0  0  0
  3 39  1  0  0  0
  3 40  1  0  0  0
  3 41  1  0  0  0
  4 42  1  0  0  0
  4 43  1  0  0  0
  4 44  1  0  0  0
  5  6  1  0  0  0
  5 35  1  0  0  0
  5  7  1  0  0  0
  7  8  1  0  0  0
  7 45  1  0  0  0
  7 46  1  0  0  0
  8  9  1  0  0  0
  8 47  1  0  0  0
  8 48  1  0  0  0
  9 13  1  0  0  0
  9 10  2  0  0  0
 10 11  1  0  0  0
 10 35  1  0  0  0
 11 12  1  0  0  0
 12 18  1  0  0  0
 12 13  2  0  0  0
 13 14  1  0  0  0
 14 15  2  0  0  0
 14 16  1  0  0  0
 16 17  1  0  0  0
 16 19  1  0  0  0
 17 18  2  0  0  0
 17 49  1  0  0  0
 19 20  1  0  0  0
 19 50  1  0  0  0
 19 51  1  0  0  0
 20 21  2  0  0  0
 20 22  1  0  0  0
 22 23  1  0  0  0
 22 52  1  0  0  0
 23 27  1  0  0  0
 23 24  2  0  0  0
 24 25  1  0  0  0
 24 32  1  0  0  0
 25 31  1  0  0  0
 25 26  2  0  0  0
 26 27  1  0  0  0
 26 28  1  0  0  0
 28 29  1  0  0  0
 28 53  1  0  0  0
 28 54  1  0  0  0
 29 30  1  0  0  0
 29 55  1  0  0  0
 29 56  1  0  0  0
 30 31  1  0  0  0
 30 57  1  0  0  0
 30 58  1  0  0  0
 31 59  1  0  0  0
 31 60  1  0  0  0
 32 33  2  0  0  0
 32 34  1  0  0  0
 34 61  1  0  0  0
 34 62  1  0  0  0
 35 63  1  0  0  0
 35 64  1  0  0  0
M  END
> <i_i_glide_confnum>
33

> <i_i_glide_lignum>
4922

> <i_i_glide_posenum>
119

> <i_i_glide_rotatable_bonds>
6

> <i_m_Source_File_Index>
1899

> <b_m_subgroup_collapsed>
0

> <r_i_docking_score>
-6.95024

> <r_i_glide_ecoul>
-1.84715

> <r_i_glide_eff_state_penalty>
0

> <r_i_glide_einternal>
5.37014

> <r_i_glide_emodel>
-72.7034

> <r_i_glide_energy>
-51.543

> <r_i_glide_erotb>
0.328274

> <r_i_glide_esite>
-0.0161114

> <r_i_glide_evdw>
-49.6958

> <r_i_glide_gscore>
-6.95024

> <r_i_glide_hbond>
-0.0577146

> <r_i_glide_ligand_efficiency>
-0.204419

> <r_i_glide_ligand_efficiency_ln>
-1.5355

> <r_i_glide_ligand_efficiency_sa>
-0.662238

> <r_i_glide_lipo>
-2.69891

> <r_i_glide_metal>
0

> <r_i_glide_rewards>
-1.74392

> <s_i_glide_gridfile>
wee1_glide-grid

> <s_m_Source_File>
wee1_decoys_glide_SP.sdf

> <s_m_Source_Path>
/Users/zhangxujun/Desktop

> <s_m_entry_id>
2174

> <s_m_entry_name>
wee1_decoys_glide_SP.1899

> <s_m_subgroup_title>
wee1_decoys_glide_SP

> <s_m_subgroupid>
wee1_decoys_glide_SP


$$$$
