@<TRIPOS>MOLECULE
ZINC12489263_2950
50   51    1
SMALL
USER_CHARGES


@<TRIPOS>ATOM
      1 C1         10.0317   55.3626   17.7364 C.3       1 UNK         0.0000 
      2 C2         10.0260   53.9237   17.2452 C.ar      1 UNK         0.0000 
      3 C3         11.2309   53.3123   16.8835 C.ar      1 UNK         0.0000 
      4 C4         11.2488   51.9912   16.4457 C.ar      1 UNK         0.0000 
      5 C5         10.0558   51.2773   16.3433 C.ar      1 UNK         0.0000 
      6 C6          8.8479   51.8819   16.6923 C.ar      1 UNK         0.0000 
      7 C7          8.8225   53.2063   17.1650 C.ar      1 UNK         0.0000 
      8 O8          7.6673   53.8555   17.5662 O.3       1 UNK         0.0000 
      9 C9          6.4806   53.0993   17.8162 C.3       1 UNK         0.0000 
     10 C10         5.6384   53.8028   18.8919 C.2       1 UNK         0.0000 
     11 O11         5.8695   54.9703   19.2181 O.2       1 UNK         0.0000 
     12 N12         4.6756   53.0360   19.4489 N.am      1 UNK         0.0000 
     13 N13         3.9280   53.5189   20.5305 N.am      1 UNK         0.0000 
     14 C14         4.4033   53.4027   21.7906 C.2       1 UNK         0.0000 
     15 O15         5.4663   52.8453   22.0812 O.2       1 UNK         0.0000 
     16 C16         3.5244   53.9926   22.9005 C.3       1 UNK         0.0000 
     17 O17         4.3634   54.3796   23.9939 O.3       1 UNK         0.0000 
     18 C18         3.9789   54.1868   25.3071 C.ar      1 UNK         0.0000 
     19 C19         2.7197   53.6973   25.7027 C.ar      1 UNK         0.0000 
     20 C20         2.4173   53.5277   27.0508 C.ar      1 UNK         0.0000 
     21 C21         3.3541   53.8491   28.0387 C.ar      1 UNK         0.0000 
     22 C22         4.6097   54.3239   27.6509 C.ar      1 UNK         0.0000 
     23 C23         4.9196   54.4973   26.3000 C.ar      1 UNK         0.0000 
     24 Br24        6.6465   55.1649   25.8326 Br        1 UNK         0.0000 
     25 C25         3.0212   53.6789   29.5207 C.3       1 UNK         0.0000 
     26 C26         1.6593   54.3016   29.8967 C.3       1 UNK         0.0000 
     27 C27         3.1086   52.2028   29.9521 C.3       1 UNK         0.0000 
     28 Br28       12.8976   51.1629   15.9794 Br        1 UNK         0.0000 
     29 H29         9.6851   55.4030   18.7696 H         1 UNK         0.0000 
     30 H30        11.0228   55.8155   17.6807 H         1 UNK         0.0000 
     31 H31         9.3483   55.9662   17.1384 H         1 UNK         0.0000 
     32 H32        12.1610   53.8578   16.9589 H         1 UNK         0.0000 
     33 H33        10.0645   50.2547   15.9953 H         1 UNK         0.0000 
     34 H34         7.9467   51.3017   16.5905 H         1 UNK         0.0000 
     35 H35         5.9020   53.0189   16.8938 H         1 UNK         0.0000 
     36 H36         6.7048   52.0967   18.1885 H         1 UNK         0.0000 
     37 H37         4.4815   52.0730   19.1976 H         1 UNK         0.0000 
     38 H38         3.0721   53.9903   20.2615 H         1 UNK         0.0000 
     39 H39         2.9667   54.8596   22.5404 H         1 UNK         0.0000 
     40 H40         2.8224   53.1968   23.1399 H         1 UNK         0.0000 
     41 H41         1.9516   53.4518   24.9863 H         1 UNK         0.0000 
     42 H42         1.4416   53.1481   27.3212 H         1 UNK         0.0000 
     43 H43         5.3551   54.5773   28.3936 H         1 UNK         0.0000 
     44 H44         3.7764   54.2268   30.0835 H         1 UNK         0.0000 
     45 H45         1.6145   55.3542   29.6173 H         1 UNK         0.0000 
     46 H46         0.8273   53.7949   29.4090 H         1 UNK         0.0000 
     47 H47         1.4719   54.2422   30.9661 H         1 UNK         0.0000 
     48 H48         4.0815   51.7744   29.7042 H         1 UNK         0.0000 
     49 H49         2.9681   52.0965   31.0289 H         1 UNK         0.0000 
     50 H50         2.3501   51.5975   29.4540 H         1 UNK         0.0000 
@<TRIPOS>BOND
     1    1    2 1    
     2    1   29 1    
     3    1   30 1    
     4    1   31 1    
     5    2    7 ar   
     6    2    3 ar   
     7    3    4 ar   
     8    3   32 1    
     9    4    5 ar   
    10    4   28 1    
    11    5    6 ar   
    12    5   33 1    
    13    6    7 ar   
    14    6   34 1    
    15    7    8 1    
    16    8    9 1    
    17    9   10 1    
    18    9   35 1    
    19    9   36 1    
    20   10   11 2    
    21   10   12 am   BACKBONE|DICT|INTERRES
    22   12   13 1    
    23   12   37 1    
    24   13   14 am   BACKBONE|DICT|INTERRES
    25   13   38 1    
    26   14   15 2    
    27   14   16 1    
    28   16   17 1    
    29   16   39 1    
    30   16   40 1    
    31   17   18 1    
    32   18   23 ar   
    33   18   19 ar   
    34   19   20 ar   
    35   19   41 1    
    36   20   21 ar   
    37   20   42 1    
    38   21   22 ar   
    39   21   25 1    
    40   22   23 ar   
    41   22   43 1    
    42   23   24 1    
    43   25   26 1    
    44   25   27 1    
    45   25   44 1    
    46   26   45 1    
    47   26   46 1    
    48   26   47 1    
    49   27   48 1    
    50   27   49 1    
    51   27   50 1    
@<TRIPOS>SUBSTRUCTURE
     1 UNK         1 GROUP             0       ****    0 ROOT    
