@<TRIPOS>MOLECULE
ZINC59310652_3450
64   68    1
SMALL
USER_CHARGES


@<TRIPOS>ATOM
      1 C1         -0.8516   52.2971   30.3764 C.3       1 UNK         0.0000 
      2 C2          0.4273   52.6511   29.6769 C.ar      1 UNK         0.0000 
      3 C3          1.0365   51.6970   28.8814 C.ar      1 UNK         0.0000 
      4 C4          2.2537   51.9805   28.2880 C.ar      1 UNK         0.0000 
      5 C5          2.8612   53.2233   28.4467 C.ar      1 UNK         0.0000 
      6 C6          2.2167   54.2195   29.2080 C.ar      1 UNK         0.0000 
      7 C7          1.0055   53.9130   29.8352 C.ar      1 UNK         0.0000 
      8 C8          2.8035   55.6039   29.4016 C.3       1 UNK         0.0000 
      9 N9          4.1190   53.3743   27.8550 N.am      1 UNK         0.0000 
     10 C10         4.3961   54.1803   26.8135 C.2       1 UNK         0.0000 
     11 O11         3.5618   54.8967   26.2676 O.2       1 UNK         0.0000 
     12 C12         5.8359   54.0938   26.2940 C.3       1 UNK         0.0000 
     13 S13         6.3147   55.2704   24.9790 S.3       1 UNK         0.0000 
     14 C14         5.6598   54.4966   23.5266 C.ar      1 UNK         0.0000 
     15 N15         6.1864   54.7477   22.3327 N.2       1 UNK         0.0000 
     16 C16         5.3933   54.0966   21.5241 C.ar      1 UNK         0.0000 
     17 N17         4.4147   53.4758   22.2354 N.pl3     1 UNK         0.0000 
     18 N18         4.5980   53.7075   23.5339 N.2       1 UNK         0.0000 
     19 N19         5.5043   53.9508   20.1639 N.pl3     1 UNK         0.0000 
     20 N20         5.0485   54.8878   19.2296 N.2       1 UNK         0.0000 
     21 C21         5.1478   54.6486   17.9746 C.2       1 UNK         0.0000 
     22 C22         5.7072   53.3410   17.3734 C.3       1 UNK         0.0000 
     23 C23         4.6698   55.7348   16.9593 C.3       1 UNK         0.0000 
     24 C24         5.0292   55.4077   15.4644 C.3       1 UNK         0.0000 
     25 C25         4.5171   56.5196   14.5136 C.3       1 UNK         0.0000 
     26 C26         2.9767   56.6452   14.6451 C.3       1 UNK         0.0000 
     27 C27         2.6082   57.0031   16.1086 C.3       1 UNK         0.0000 
     28 C28         3.1150   55.8807   17.0548 C.3       1 UNK         0.0000 
     29 C29         3.2759   58.3512   16.4874 C.3       1 UNK         0.0000 
     30 C30         4.8149   58.2302   16.3569 C.3       1 UNK         0.0000 
     31 C31         5.1786   57.8676   14.8945 C.3       1 UNK         0.0000 
     32 C32         5.3209   57.1177   17.3107 C.3       1 UNK         0.0000 
     33 H33        -0.8806   51.2545   30.6942 H         1 UNK         0.0000 
     34 H34        -0.9107   52.8961   31.2816 H         1 UNK         0.0000 
     35 H35        -1.6778   52.4544   29.6820 H         1 UNK         0.0000 
     36 H36         0.5649   50.7373   28.7299 H         1 UNK         0.0000 
     37 H37         2.7044   51.2204   27.6854 H         1 UNK         0.0000 
     38 H38         0.5128   54.6521   30.4488 H         1 UNK         0.0000 
     39 H39         2.3047   56.1519   30.2022 H         1 UNK         0.0000 
     40 H40         3.8631   55.5349   29.6396 H         1 UNK         0.0000 
     41 H41         2.7035   56.1722   28.4817 H         1 UNK         0.0000 
     42 H42         4.8098   52.6802   28.0955 H         1 UNK         0.0000 
     43 H43         6.0373   53.0784   25.9624 H         1 UNK         0.0000 
     44 H44         6.5015   54.2856   27.1354 H         1 UNK         0.0000 
     45 H45         5.9012   53.1233   19.7437 H         1 UNK         0.0000 
     46 H46         6.5704   53.5368   16.7385 H         1 UNK         0.0000 
     47 H47         6.0392   52.6155   18.1127 H         1 UNK         0.0000 
     48 H48         4.9509   52.8330   16.7735 H         1 UNK         0.0000 
     49 H49         4.5937   54.4571   15.1515 H         1 UNK         0.0000 
     50 H50         6.1084   55.3094   15.3389 H         1 UNK         0.0000 
     51 H51         4.7759   56.2654   13.4851 H         1 UNK         0.0000 
     52 H52         2.6019   57.4108   13.9643 H         1 UNK         0.0000 
     53 H53         2.4936   55.7134   14.3487 H         1 UNK         0.0000 
     54 H54         1.5240   57.0954   16.2025 H         1 UNK         0.0000 
     55 H55         2.8080   56.0966   18.0780 H         1 UNK         0.0000 
     56 H56         2.6271   54.9375   16.8007 H         1 UNK         0.0000 
     57 H57         3.0160   58.6376   17.5050 H         1 UNK         0.0000 
     58 H58         2.9045   59.1550   15.8498 H         1 UNK         0.0000 
     59 H59         5.2774   59.1834   16.6214 H         1 UNK         0.0000 
     60 H60         4.8473   58.6569   14.2169 H         1 UNK         0.0000 
     61 H61         6.2615   57.8077   14.7775 H         1 UNK         0.0000 
     62 H62         6.4087   57.0521   17.2526 H         1 UNK         0.0000 
     63 H63         5.0950   57.4092   18.3382 H         1 UNK         0.0000 
     64 H64         3.6684   52.9111   21.8587 H         1 UNK         0.0000 
@<TRIPOS>BOND
     1    1    2 1    
     2    1   33 1    
     3    1   34 1    
     4    1   35 1    
     5    2    7 ar   
     6    2    3 ar   
     7    3    4 ar   
     8    3   36 1    
     9    4    5 ar   
    10    4   37 1    
    11    5    6 ar   
    12    5    9 1    
    13    6    7 ar   
    14    6    8 1    
    15    7   38 1    
    16    8   39 1    
    17    8   40 1    
    18    8   41 1    
    19    9   10 am   BACKBONE|DICT|INTERRES
    20    9   42 1    
    21   10   11 2    
    22   10   12 1    
    23   12   13 1    
    24   12   43 1    
    25   12   44 1    
    26   13   14 1    
    27   14   18 ar   
    28   14   15 ar   
    29   15   16 ar   
    30   16   17 ar   
    31   16   19 1    
    32   17   18 ar   
    33   17   64 1    
    34   19   20 1    
    35   19   45 1    
    36   20   21 2    
    37   21   22 1    
    38   21   23 1    
    39   22   46 1    
    40   22   47 1    
    41   22   48 1    
    42   23   28 1    
    43   23   32 1    
    44   23   24 1    
    45   24   25 1    
    46   24   49 1    
    47   24   50 1    
    48   25   31 1    
    49   25   26 1    
    50   25   51 1    
    51   26   27 1    
    52   26   52 1    
    53   26   53 1    
    54   27   28 1    
    55   27   29 1    
    56   27   54 1    
    57   28   55 1    
    58   28   56 1    
    59   29   30 1    
    60   29   57 1    
    61   29   58 1    
    62   30   31 1    
    63   30   32 1    
    64   30   59 1    
    65   31   60 1    
    66   31   61 1    
    67   32   62 1    
    68   32   63 1    
@<TRIPOS>SUBSTRUCTURE
     1 UNK         1 GROUP             0       ****    0 ROOT    
