@<TRIPOS>MOLECULE
ZINC01628535_4467
59   61    1
SMALL
USER_CHARGES


@<TRIPOS>ATOM
      1 C1          5.5378   51.7676   14.4144 C.3       1 UNK         0.0000 
      2 C2          4.1511   52.4500   14.4280 C.3       1 UNK         0.0000 
      3 C3          3.9413   53.1921   13.0928 C.3       1 UNK         0.0000 
      4 C4          3.0129   51.4241   14.6323 C.3       1 UNK         0.0000 
      5 N5          4.1088   53.4865   15.4647 N.3       1 UNK         0.0000 
      6 N6          4.2591   53.0158   16.7917 N.am      1 UNK         0.0000 
      7 C7          3.2660   53.1894   17.6921 C.2       1 UNK         0.0000 
      8 O8          2.0812   53.3160   17.3617 O.2       1 UNK         0.0000 
      9 C9          3.6754   53.3063   19.0968 C.2       1 UNK         0.0000 
     10 C10         4.8571   53.8986   19.4364 C.2       1 UNK         0.0000 
     11 C11         5.4059   54.1526   20.7981 C.ar      1 UNK         0.0000 
     12 C12         6.2407   55.2594   20.9894 C.ar      1 UNK         0.0000 
     13 C13         6.7057   55.5813   22.2647 C.ar      1 UNK         0.0000 
     14 C14         6.3041   54.8419   23.3785 C.ar      1 UNK         0.0000 
     15 C15         5.5346   53.6971   23.1753 C.ar      1 UNK         0.0000 
     16 C16         5.1041   53.3442   21.9025 C.ar      1 UNK         0.0000 
     17 O17         6.7046   55.2629   24.6355 O.3       1 UNK         0.0000 
     18 C18         6.0526   54.8674   25.7903 C.ar      1 UNK         0.0000 
     19 C19         6.8270   54.4705   26.8795 C.ar      1 UNK         0.0000 
     20 C20         6.2362   54.0658   28.0725 C.ar      1 UNK         0.0000 
     21 C21         4.8496   54.0651   28.2015 C.ar      1 UNK         0.0000 
     22 C22         4.0540   54.4808   27.1275 C.ar      1 UNK         0.0000 
     23 C23         4.6560   54.8885   25.9308 C.ar      1 UNK         0.0000 
     24 Cl24        2.3302   54.4958   27.2688 Cl        1 UNK         0.0000 
     25 Cl25        4.1467   53.5502   29.6950 Cl        1 UNK         0.0000 
     26 N26         2.8131   52.8932   20.0794 N.am      1 UNK         0.0000 
     27 C27         2.2341   51.6813   20.2348 C.2       1 UNK         0.0000 
     28 O28         2.2313   50.7896   19.3851 O.2       1 UNK         0.0000 
     29 C29         1.6382   51.4423   21.6041 C.ar      1 UNK         0.0000 
     30 C30         1.6140   50.1421   22.1283 C.ar      1 UNK         0.0000 
     31 C31         1.1036   49.9061   23.4020 C.ar      1 UNK         0.0000 
     32 C32         0.6119   50.9661   24.1584 C.ar      1 UNK         0.0000 
     33 C33         0.6203   52.2620   23.6506 C.ar      1 UNK         0.0000 
     34 C34         1.1278   52.5004   22.3761 C.ar      1 UNK         0.0000 
     35 H35         5.7700   51.3015   15.3702 H         1 UNK         0.0000 
     36 H36         5.5907   50.9881   13.6533 H         1 UNK         0.0000 
     37 H37         6.3376   52.4827   14.2164 H         1 UNK         0.0000 
     38 H38         2.9836   53.7158   13.0724 H         1 UNK         0.0000 
     39 H39         4.7149   53.9414   12.9164 H         1 UNK         0.0000 
     40 H40         3.9554   52.5024   12.2483 H         1 UNK         0.0000 
     41 H41         2.0365   51.9105   14.6432 H         1 UNK         0.0000 
     42 H42         3.0029   50.6706   13.8448 H         1 UNK         0.0000 
     43 H43         3.1041   50.8982   15.5826 H         1 UNK         0.0000 
     44 H44         4.7721   54.2301   15.3019 H         1 UNK         0.0000 
     45 H45         5.2014   52.7524   17.0452 H         1 UNK         0.0000 
     46 H46         5.5088   54.2443   18.6446 H         1 UNK         0.0000 
     47 H47         6.5197   55.8830   20.1521 H         1 UNK         0.0000 
     48 H48         7.3537   56.4332   22.3962 H         1 UNK         0.0000 
     49 H49         5.2622   53.0724   24.0093 H         1 UNK         0.0000 
     50 H50         4.5367   52.4333   21.8022 H         1 UNK         0.0000 
     51 H51         7.9010   54.4669   26.8071 H         1 UNK         0.0000 
     52 H52         6.8623   53.7575   28.8960 H         1 UNK         0.0000 
     53 H53         4.0386   55.2144   25.1070 H         1 UNK         0.0000 
     54 H54         2.8707   53.4347   20.9275 H         1 UNK         0.0000 
     55 H55         2.0034   49.3094   21.5577 H         1 UNK         0.0000 
     56 H56         1.0952   48.9041   23.8072 H         1 UNK         0.0000 
     57 H57         0.2186   50.7784   25.1476 H         1 UNK         0.0000 
     58 H58         0.2355   53.0790   24.2432 H         1 UNK         0.0000 
     59 H59         1.1178   53.5146   22.0003 H         1 UNK         0.0000 
@<TRIPOS>BOND
     1    1    2 1    
     2    1   35 1    
     3    1   36 1    
     4    1   37 1    
     5    2    3 1    
     6    2    4 1    
     7    2    5 1    
     8    3   38 1    
     9    3   39 1    
    10    3   40 1    
    11    4   41 1    
    12    4   42 1    
    13    4   43 1    
    14    5    6 1    
    15    5   44 1    
    16    6    7 am   BACKBONE|DICT|INTERRES
    17    6   45 1    
    18    7    8 2    
    19    7    9 1    
    20    9   10 2    
    21    9   26 1    
    22   10   11 1    
    23   10   46 1    
    24   11   16 ar   
    25   11   12 ar   
    26   12   13 ar   
    27   12   47 1    
    28   13   14 ar   
    29   13   48 1    
    30   14   15 ar   
    31   14   17 1    
    32   15   16 ar   
    33   15   49 1    
    34   16   50 1    
    35   17   18 1    
    36   18   23 ar   
    37   18   19 ar   
    38   19   20 ar   
    39   19   51 1    
    40   20   21 ar   
    41   20   52 1    
    42   21   22 ar   
    43   21   25 1    
    44   22   23 ar   
    45   22   24 1    
    46   23   53 1    
    47   26   27 am   BACKBONE|DICT|INTERRES
    48   26   54 1    
    49   27   28 2    
    50   27   29 1    
    51   29   34 ar   
    52   29   30 ar   
    53   30   31 ar   
    54   30   55 1    
    55   31   32 ar   
    56   31   56 1    
    57   32   33 ar   
    58   32   57 1    
    59   33   34 ar   
    60   33   58 1    
    61   34   59 1    
@<TRIPOS>SUBSTRUCTURE
     1 UNK         1 GROUP             0       ****    0 ROOT    
