ZINC20837404_2870
                    3D
 Schrodinger Suite 2024-2.
 63 68  0  0  1  0            999 V2000
   -1.1609   51.2009   26.8714 C   0  0  0  0  0  0
    0.1772   51.8783   26.5185 C   0  0  0  0  0  0
    0.7039   51.8658   25.3498 N   0  0  0  0  0  0
    0.0505   51.2475   24.2744 N   0  0  0  0  0  0
    0.7238   50.8098   23.1598 C   0  0  0  0  0  0
    0.6918   51.3117   21.9527 N   0  0  0  0  0  0
    1.4909   50.4884   21.2757 C   0  0  0  0  0  0
    2.0064   49.4896   21.9645 N   0  0  0  0  0  0
    1.5044   49.6970   23.1789 N   0  0  0  0  0  0
    1.8967   50.6744   19.5646 S   0  0  0  0  0  0
    0.9856   52.1750   19.0851 C   0  0  0  0  0  0
   -0.4817   51.9226   18.6592 C   0  0  0  0  0  0
   -1.2650   53.1171   18.0830 C   0  0  0  0  0  0
   -2.4951   53.0929   18.1597 O   0  0  0  0  0  0
   -0.5522   54.1393   17.5623 N   0  0  0  0  0  0
   -1.0482   55.3277   17.0553 C   0  0  0  0  0  0
   -2.2883   55.6040   16.7487 N   0  0  0  0  0  0
   -2.3996   56.8574   16.2373 C   0  0  0  0  0  0
   -3.5951   57.4397   15.7876 C   0  0  0  0  0  0
   -3.5505   58.7414   15.2821 C   0  0  0  0  0  0
   -2.3556   59.4610   15.2388 C   0  0  0  0  0  0
   -1.1534   58.9042   15.6807 C   0  0  0  0  0  0
   -1.1868   57.5944   16.1747 C   0  0  0  0  0  0
    0.1220   56.5916   16.7782 S   0  0  0  0  0  0
    0.9052   52.5784   27.7105 C   0  0  0  0  0  0
    1.6282   51.4994   28.5728 C   0  0  0  0  0  0
    2.3944   52.1539   29.7514 C   0  0  2  0  0  0
    1.3702   52.8837   30.6535 C   0  0  0  0  0  0
    0.6568   53.9973   29.8397 C   0  0  2  0  0  0
   -0.0921   53.3437   28.6483 C   0  0  0  0  0  0
    1.7025   55.0079   29.3009 C   0  0  0  0  0  0
    2.7233   54.2686   28.4012 C   0  0  1  0  0  0
    3.4390   53.1649   29.2187 C   0  0  0  0  0  0
    1.9806   53.6076   27.2110 C   0  0  0  0  0  0
   -1.0354   50.5005   27.6958 H   0  0  0  0  0  0
   -1.9133   51.9327   27.1627 H   0  0  0  0  0  0
   -1.5951   50.6198   26.0610 H   0  0  0  0  0  0
   -0.8275   50.8227   24.5364 H   0  0  0  0  0  0
    1.0354   52.8968   19.9030 H   0  0  0  0  0  0
    1.5546   52.6147   18.2634 H   0  0  0  0  0  0
   -0.4852   51.1282   17.9094 H   0  0  0  0  0  0
   -1.0232   51.4600   19.4855 H   0  0  0  0  0  0
    0.4511   54.0926   17.6408 H   0  0  0  0  0  0
   -4.5266   56.8944   15.8299 H   0  0  0  0  0  0
   -4.4581   59.2059   14.9239 H   0  0  0  0  0  0
   -2.3584   60.4677   14.8459 H   0  0  0  0  0  0
   -0.2271   59.4634   15.6446 H   0  0  0  0  0  0
    2.3050   50.8973   27.9694 H   0  0  0  0  0  0
    0.8912   50.8136   28.9825 H   0  0  0  0  0  0
    2.9144   51.3894   30.3243 H   0  0  0  0  0  0
    0.6367   52.1769   31.0496 H   0  0  0  0  0  0
    1.8745   53.2948   31.5234 H   0  0  0  0  0  0
   -0.0559   54.5164   30.4829 H   0  0  0  0  0  0
   -0.8496   52.6726   29.0575 H   0  0  0  0  0  0
   -0.6286   54.1007   28.0820 H   0  0  0  0  0  0
    2.2155   55.5043   30.1257 H   0  0  0  0  0  0
    1.2079   55.8019   28.7379 H   0  0  0  0  0  0
    3.4604   54.9779   28.0247 H   0  0  0  0  0  0
    4.1786   52.6541   28.5991 H   0  0  0  0  0  0
    3.9943   53.6078   30.0469 H   0  0  0  0  0  0
    1.5057   54.3734   26.5982 H   0  0  0  0  0  0
    2.7161   53.1172   26.5658 H   0  0  0  0  0  0
    1.7115   49.1110   23.9776 H   0  0  0  0  0  0
  1  2  1  0  0  0
  1 35  1  0  0  0
  1 36  1  0  0  0
  1 37  1  0  0  0
  2  3  2  0  0  0
  2 25  1  0  0  0
  3  4  1  0  0  0
  4  5  1  0  0  0
  4 38  1  0  0  0
  5  9  1  0  0  0
  5  6  2  0  0  0
  6  7  1  0  0  0
  7  8  2  0  0  0
  7 10  1  0  0  0
  8  9  1  0  0  0
  9 63  1  0  0  0
 10 11  1  0  0  0
 11 12  1  0  0  0
 11 39  1  0  0  0
 11 40  1  0  0  0
 12 13  1  0  0  0
 12 41  1  0  0  0
 12 42  1  0  0  0
 13 14  2  0  0  0
 13 15  1  0  0  0
 15 16  1  0  0  0
 15 43  1  0  0  0
 16 24  1  0  0  0
 16 17  2  0  0  0
 17 18  1  0  0  0
 18 23  2  0  0  0
 18 19  1  0  0  0
 19 20  2  0  0  0
 19 44  1  0  0  0
 20 21  1  0  0  0
 20 45  1  0  0  0
 21 22  2  0  0  0
 21 46  1  0  0  0
 22 23  1  0  0  0
 22 47  1  0  0  0
 23 24  1  0  0  0
 25 30  1  0  0  0
 25 34  1  0  0  0
 25 26  1  0  0  0
 26 27  1  0  0  0
 26 48  1  0  0  0
 26 49  1  0  0  0
 27 33  1  0  0  0
 27 28  1  0  0  0
 27 50  1  0  0  0
 28 29  1  0  0  0
 28 51  1  0  0  0
 28 52  1  0  0  0
 29 30  1  0  0  0
 29 31  1  0  0  0
 29 53  1  0  0  0
 30 54  1  0  0  0
 30 55  1  0  0  0
 31 32  1  0  0  0
 31 56  1  0  0  0
 31 57  1  0  0  0
 32 33  1  0  0  0
 32 34  1  0  0  0
 32 58  1  0  0  0
 33 59  1  0  0  0
 33 60  1  0  0  0
 34 61  1  0  0  0
 34 62  1  0  0  0
M  END
> <i_i_glide_confnum>
159

> <i_i_glide_lignum>
2871

> <i_i_glide_posenum>
330

> <i_i_glide_rotatable_bonds>
9

> <i_m_Source_File_Index>
2875

> <b_m_subgroup_collapsed>
0

> <r_i_docking_score>
-4.57389

> <r_i_glide_ecoul>
-6.50229

> <r_i_glide_eff_state_penalty>
0

> <r_i_glide_einternal>
9.18058

> <r_i_glide_emodel>
-55.5153

> <r_i_glide_energy>
-45.3915

> <r_i_glide_erotb>
0.580862

> <r_i_glide_esite>
-0.0441885

> <r_i_glide_evdw>
-38.8892

> <r_i_glide_gscore>
-4.57389

> <r_i_glide_hbond>
-0.313536

> <r_i_glide_ligand_efficiency>
-0.134526

> <r_i_glide_ligand_efficiency_ln>
-1.0105

> <r_i_glide_ligand_efficiency_sa>
-0.435812

> <r_i_glide_lipo>
-1.65402

> <r_i_glide_metal>
0

> <r_i_glide_rewards>
-0.223197

> <s_i_glide_gridfile>
wee1_glide-grid

> <s_m_Source_File>
wee1_decoys_glide_SP.sdf

> <s_m_Source_Path>
/Users/zhangxujun/Desktop

> <s_m_entry_id>
3150

> <s_m_entry_name>
wee1_decoys_glide_SP.2875

> <s_m_subgroup_title>
wee1_decoys_glide_SP

> <s_m_subgroupid>
wee1_decoys_glide_SP


$$$$
