@<TRIPOS>MOLECULE
ZINC38965547_1158
44   47    1
SMALL
USER_CHARGES


@<TRIPOS>ATOM
      1 C1         -4.5179   51.7574   26.6139 C.2       1 UNK         0.0000 
      2 C2         -4.4017   52.6975   25.4966 C.2       1 UNK         0.0000 
      3 C3         -3.2020   52.8968   24.9002 C.2       1 UNK         0.0000 
      4 C4         -1.9975   52.2095   25.3174 C.2       1 UNK         0.0000 
      5 N5         -0.8462   52.4232   24.7759 N.2       1 UNK         0.0000 
      6 C6          0.3161   51.7510   25.1761 C.2       1 UNK         0.0000 
      7 N7          1.5043   51.9946   24.7851 N.2       1 UNK         0.0000 
      8 S8          1.8627   53.2762   23.6301 S.o2      1 UNK         0.0000 
      9 O9          2.2594   52.8296   22.2902 O.2       1 UNK         0.0000 
     10 O10         1.0607   54.4966   23.6820 O.2       1 UNK         0.0000 
     11 C11         3.4116   53.8414   24.3643 C.ar      1 UNK         0.0000 
     12 C12         3.4891   54.0825   25.7405 C.ar      1 UNK         0.0000 
     13 C13         4.6907   54.4995   26.3089 C.ar      1 UNK         0.0000 
     14 C14         5.8056   54.7021   25.4992 C.ar      1 UNK         0.0000 
     15 C15         5.7295   54.4971   24.1242 C.ar      1 UNK         0.0000 
     16 C16         4.5305   54.0747   23.5540 C.ar      1 UNK         0.0000 
     17 F17         6.9699   55.1097   26.0519 F         1 UNK         0.0000 
     18 C18         0.1616   50.5391   26.1660 C.3       1 UNK         0.0000 
     19 H19         0.8610   50.7073   26.9855 H         1 UNK         0.0000 
     20 N20        -1.1688   50.4967   26.8630 N.pl3     1 UNK         0.0000 
     21 C21        -2.2107   51.2149   26.4703 C.2       1 UNK         0.0000 
     22 C22        -3.4552   51.0489   27.0783 C.2       1 UNK         0.0000 
     23 N23         0.5399   49.2346   25.5974 N.pl3     1 UNK         0.0000 
     24 C24        -0.3260   48.6901   24.6284 C.ar      1 UNK         0.0000 
     25 C25        -1.2926   47.7629   25.0373 C.ar      1 UNK         0.0000 
     26 C26        -2.1707   47.1996   24.1127 C.ar      1 UNK         0.0000 
     27 C27        -2.0773   47.5436   22.7654 C.ar      1 UNK         0.0000 
     28 C28        -1.1038   48.4475   22.3436 C.ar      1 UNK         0.0000 
     29 C29        -0.2221   49.0132   23.2655 C.ar      1 UNK         0.0000 
     30 F30         0.7374   49.8532   22.8151 F         1 UNK         0.0000 
     31 Br31       -3.2725   46.7693   21.5023 Br        1 UNK         0.0000 
     32 H32        -5.4825   51.6216   27.0833 H         1 UNK         0.0000 
     33 H33        -5.2764   53.2280   25.1450 H         1 UNK         0.0000 
     34 H34        -3.1536   53.5985   24.0797 H         1 UNK         0.0000 
     35 H35         2.6258   53.9330   26.3726 H         1 UNK         0.0000 
     36 H36         4.7628   54.6705   27.3737 H         1 UNK         0.0000 
     37 H37         6.5992   54.6653   23.5064 H         1 UNK         0.0000 
     38 H38         4.4775   53.9197   22.4850 H         1 UNK         0.0000 
     39 H39        -3.5629   50.3524   27.9012 H         1 UNK         0.0000 
     40 H40         0.6701   48.5648   26.3473 H         1 UNK         0.0000 
     41 H41        -1.3769   47.4892   26.0815 H         1 UNK         0.0000 
     42 H42        -2.9243   46.5018   24.4440 H         1 UNK         0.0000 
     43 H43        -1.0182   48.7039   21.2980 H         1 UNK         0.0000 
     44 H44        -1.2956   49.7926   27.6019 H         1 UNK         0.0000 
@<TRIPOS>BOND
     1    1   22 2    
     2    1    2 1    
     3    1   32 1    
     4    2    3 2    
     5    2   33 1    
     6    3    4 1    
     7    3   34 1    
     8    4   21 1    
     9    4    5 2    
    10    5    6 1    
    11    6    7 2    
    12    6   18 1    
    13    7    8 1    
    14    8    9 2    
    15    8   10 2    
    16    8   11 1    
    17   11   16 ar   
    18   11   12 ar   
    19   12   13 ar   
    20   12   35 1    
    21   13   14 ar   
    22   13   36 1    
    23   14   15 ar   
    24   14   17 1    
    25   15   16 ar   
    26   15   37 1    
    27   16   38 1    
    28   18   19 1    
    29   18   20 1    
    30   18   23 1    
    31   20   21 2    
    32   20   44 1    
    33   21   22 1    
    34   22   39 1    
    35   23   24 1    
    36   23   40 1    
    37   24   29 ar   
    38   24   25 ar   
    39   25   26 ar   
    40   25   41 1    
    41   26   27 ar   
    42   26   42 1    
    43   27   28 ar   
    44   27   31 1    
    45   28   29 ar   
    46   28   43 1    
    47   29   30 1    
@<TRIPOS>SUBSTRUCTURE
     1 UNK         1 GROUP             0       ****    0 ROOT    
