ZINC38683349_846
                    3D
 Schrodinger Suite 2024-2.
 57 60  0  0  1  0            999 V2000
    9.2802   52.2011   13.7664 C   0  0  0  0  0  0
    8.6028   52.6662   15.0427 C   0  0  0  0  0  0
    7.2338   52.4688   15.2168 C   0  0  0  0  0  0
    6.6126   52.8941   16.3872 C   0  0  0  0  0  0
    7.3518   53.5232   17.3909 C   0  0  0  0  0  0
    8.7255   53.7334   17.2052 C   0  0  0  0  0  0
    9.3491   53.3040   16.0357 C   0  0  0  0  0  0
    6.6619   53.9376   18.6272 C   0  0  0  0  0  0
    7.0624   54.9384   19.4418 C   0  0  0  0  0  0
    6.4092   55.2970   20.6968 C   0  0  0  0  0  0
    6.7034   56.3403   21.2810 O   0  0  0  0  0  0
    5.5039   54.3630   21.1433 O   0  0  0  0  0  0
    5.0156   54.3953   22.4325 C   0  0  0  0  0  0
    3.6396   54.4960   22.6298 C   0  0  0  0  0  0
    3.1051   54.4835   23.9203 C   0  0  0  0  0  0
    3.9212   54.3211   25.0529 C   0  0  0  0  0  0
    5.3125   54.2348   24.8303 C   0  0  0  0  0  0
    5.8543   54.2635   23.5460 C   0  0  0  0  0  0
    6.2242   54.0996   25.8568 O   0  0  0  0  0  0
    5.7718   53.8995   27.1139 C   0  0  0  0  0  0
    4.4765   53.8931   27.4900 C   0  0  0  0  0  0
    3.3555   54.2394   26.4977 C   0  0  2  0  0  0
    3.1006   55.2677   26.7541 H   0  0  0  0  0  0
    2.0392   53.4479   26.7109 C   0  0  0  0  0  0
    1.5747   52.4984   25.7882 C   0  0  0  0  0  0
    0.3733   51.8277   25.9957 C   0  0  0  0  0  0
   -0.3839   52.0704   27.1442 C   0  0  0  0  0  0
    0.0797   53.0037   28.0817 C   0  0  0  0  0  0
    1.2674   53.6971   27.8512 C   0  0  0  0  0  0
   -1.6875   51.3537   27.3187 C   0  0  0  0  0  0
   -2.3026   50.8345   26.3840 O   0  0  0  0  0  0
   -2.0865   51.2977   28.6135 O   0  0  0  0  0  0
   -3.2853   50.6296   28.9822 C   0  0  0  0  0  0
    4.1540   53.6561   28.8610 C   0  0  0  0  0  0
    3.9031   53.4920   29.9795 N   0  0  0  0  0  0
    6.8535   53.6934   27.9209 N   0  0  0  0  0  0
    8.5890   52.2284   12.9232 H   0  0  0  0  0  0
   10.1126   52.8538   13.5047 H   0  0  0  0  0  0
    9.6553   51.1841   13.8786 H   0  0  0  0  0  0
    6.6497   51.9717   14.4554 H   0  0  0  0  0  0
    5.5543   52.7110   16.5164 H   0  0  0  0  0  0
    9.3231   54.2058   17.9699 H   0  0  0  0  0  0
   10.4094   53.4616   15.9068 H   0  0  0  0  0  0
    5.7888   53.3517   18.8822 H   0  0  0  0  0  0
    7.9250   55.5393   19.1904 H   0  0  0  0  0  0
    2.9837   54.5940   21.7750 H   0  0  0  0  0  0
    2.0358   54.5787   24.0359 H   0  0  0  0  0  0
    6.9227   54.1762   23.4146 H   0  0  0  0  0  0
    2.1482   52.2554   24.9100 H   0  0  0  0  0  0
    0.0455   51.1101   25.2547 H   0  0  0  0  0  0
   -0.4875   53.2226   28.9772 H   0  0  0  0  0  0
    1.5884   54.4357   28.5724 H   0  0  0  0  0  0
   -3.3569   50.5722   30.0681 H   0  0  0  0  0  0
   -4.1629   51.1579   28.6035 H   0  0  0  0  0  0
   -3.2982   49.6118   28.5907 H   0  0  0  0  0  0
    6.7680   53.7537   28.9258 H   0  0  0  0  0  0
    7.7164   53.3333   27.5406 H   0  0  0  0  0  0
  1  2  1  0  0  0
  1 37  1  0  0  0
  1 38  1  0  0  0
  1 39  1  0  0  0
  2  7  2  0  0  0
  2  3  1  0  0  0
  3  4  2  0  0  0
  3 40  1  0  0  0
  4  5  1  0  0  0
  4 41  1  0  0  0
  5  6  2  0  0  0
  5  8  1  0  0  0
  6  7  1  0  0  0
  6 42  1  0  0  0
  7 43  1  0  0  0
  8  9  2  0  0  0
  8 44  1  0  0  0
  9 10  1  0  0  0
  9 45  1  0  0  0
 10 11  2  0  0  0
 10 12  1  0  0  0
 12 13  1  0  0  0
 13 18  2  0  0  0
 13 14  1  0  0  0
 14 15  2  0  0  0
 14 46  1  0  0  0
 15 16  1  0  0  0
 15 47  1  0  0  0
 16 22  1  0  0  0
 16 17  2  0  0  0
 17 18  1  0  0  0
 17 19  1  0  0  0
 18 48  1  0  0  0
 19 20  1  0  0  0
 20 21  2  0  0  0
 20 36  1  0  0  0
 21 22  1  0  0  0
 21 34  1  0  0  0
 22 23  1  0  0  0
 22 24  1  0  0  0
 24 29  2  0  0  0
 24 25  1  0  0  0
 25 26  2  0  0  0
 25 49  1  0  0  0
 26 27  1  0  0  0
 26 50  1  0  0  0
 27 28  2  0  0  0
 27 30  1  0  0  0
 28 29  1  0  0  0
 28 51  1  0  0  0
 29 52  1  0  0  0
 30 31  2  0  0  0
 30 32  1  0  0  0
 32 33  1  0  0  0
 33 53  1  0  0  0
 33 54  1  0  0  0
 33 55  1  0  0  0
 34 35  3  0  0  0
 36 56  1  0  0  0
 36 57  1  0  0  0
M  END
> <i_i_glide_confnum>
9

> <i_i_glide_lignum>
847

> <i_i_glide_posenum>
378

> <i_i_glide_rotatable_bonds>
8

> <i_m_Source_File_Index>
2433

> <b_m_subgroup_collapsed>
0

> <r_i_docking_score>
-5.44772

> <r_i_glide_ecoul>
-6.5788

> <r_i_glide_eff_state_penalty>
0

> <r_i_glide_einternal>
8.82103

> <r_i_glide_emodel>
-57.7235

> <r_i_glide_energy>
-49.7244

> <r_i_glide_erotb>
0.556278

> <r_i_glide_esite>
-0.0815333

> <r_i_glide_evdw>
-43.1456

> <r_i_glide_gscore>
-5.44772

> <r_i_glide_hbond>
-0.262038

> <r_i_glide_ligand_efficiency>
-0.155649

> <r_i_glide_ligand_efficiency_ln>
-1.1959

> <r_i_glide_ligand_efficiency_sa>
-0.509139

> <r_i_glide_lipo>
-2.80012

> <r_i_glide_metal>
0

> <r_i_glide_rewards>
0.283785

> <s_i_glide_gridfile>
wee1_glide-grid

> <s_m_Source_File>
wee1_decoys_glide_SP.sdf

> <s_m_Source_Path>
/Users/zhangxujun/Desktop

> <s_m_entry_id>
2708

> <s_m_entry_name>
wee1_decoys_glide_SP.2433

> <s_m_subgroup_title>
wee1_decoys_glide_SP

> <s_m_subgroupid>
wee1_decoys_glide_SP


$$$$
