@<TRIPOS>MOLECULE
ZINC50987589_4697
36   38    1
SMALL
USER_CHARGES


@<TRIPOS>ATOM
      1 C1          1.3877   48.4723   17.3217 C.2       1 UNK         0.0000 
      2 C2          1.3766   49.0475   18.5365 C.2       1 UNK         0.0000 
      3 C3          2.6088   49.2209   19.4007 C.3       1 UNK         0.0000 
      4 N4          2.7610   50.6533   19.6862 N.pl3     1 UNK         0.0000 
      5 C5          3.1897   51.5176   18.7669 C.2       1 UNK         0.0000 
      6 N6          3.1823   52.7416   19.2784 N.pl3     1 UNK         0.0000 
      7 C7          2.7537   52.7172   20.6698 C.3       1 UNK         0.0000 
      8 C8          2.5051   51.2523   20.8564 C.2       1 UNK         0.0000 
      9 N9          2.0874   50.6618   21.9784 N.pl3     1 UNK         0.0000 
     10 C10         3.7120   53.3719   21.6738 C.ar      1 UNK         0.0000 
     11 C11         3.3208   53.4421   23.0149 C.ar      1 UNK         0.0000 
     12 C12         4.1785   53.9767   23.9722 C.ar      1 UNK         0.0000 
     13 C13         5.4290   54.4958   23.6005 C.ar      1 UNK         0.0000 
     14 C14         5.8008   54.4971   22.2525 C.ar      1 UNK         0.0000 
     15 C15         4.9507   53.9242   21.3011 C.ar      1 UNK         0.0000 
     16 Br16        7.4422   55.2967   21.6953 Br        1 UNK         0.0000 
     17 O17         6.2997   55.0312   24.5329 O.3       1 UNK         0.0000 
     18 C18         6.0453   54.6107   25.8793 C.3       1 UNK         0.0000 
     19 C19         4.5323   54.6749   26.1931 C.3       1 UNK         0.0000 
     20 O20         3.7791   53.8689   25.2893 O.3       1 UNK         0.0000 
     21 H21         2.3028   48.0975   16.8801 H         1 UNK         0.0000 
     22 H22         0.4796   48.3685   16.7443 H         1 UNK         0.0000 
     23 H23         0.4385   49.4024   18.9401 H         1 UNK         0.0000 
     24 H24         2.5262   48.6610   20.3311 H         1 UNK         0.0000 
     25 H25         3.5046   48.8871   18.8824 H         1 UNK         0.0000 
     26 H26         3.5042   51.2578   17.7609 H         1 UNK         0.0000 
     27 H27         1.9172   51.2098   22.8087 H         1 UNK         0.0000 
     28 H28         1.8025   53.2512   20.7125 H         1 UNK         0.0000 
     29 H29         2.3658   53.0580   23.3356 H         1 UNK         0.0000 
     30 H30         5.2727   53.9207   20.2689 H         1 UNK         0.0000 
     31 H31         6.6055   55.2387   26.5717 H         1 UNK         0.0000 
     32 H32         6.3918   53.5827   26.0091 H         1 UNK         0.0000 
     33 H33         4.1868   55.6994   26.0816 H         1 UNK         0.0000 
     34 H34         4.3328   54.3604   27.2181 H         1 UNK         0.0000 
     35 H35         1.9537   49.6625   22.0153 H         1 UNK         0.0000 
     36 H36         3.4513   53.5875   18.7936 H         1 UNK         0.0000 
@<TRIPOS>BOND
     1    1    2 2    
     2    1   21 1    
     3    1   22 1    
     4    2    3 1    
     5    2   23 1    
     6    3   24 1    
     7    3   25 1    
     8    3    4 1    
     9    4    5 1    
    10    4    8 1    
    11    5    6 2    
    12    5   26 1    
    13    6    7 1    
    14    6   36 1    
    15    7   10 1    
    16    7   28 1    
    17    7    8 1    
    18    8    9 2    
    19    9   27 1    
    20    9   35 1    
    21   10   15 ar   
    22   10   11 ar   
    23   11   12 ar   
    24   11   29 1    
    25   12   20 1    
    26   12   13 ar   
    27   13   14 ar   
    28   13   17 1    
    29   14   15 ar   
    30   14   16 1    
    31   15   30 1    
    32   17   18 1    
    33   18   19 1    
    34   18   31 1    
    35   18   32 1    
    36   19   20 1    
    37   19   33 1    
    38   19   34 1    
@<TRIPOS>SUBSTRUCTURE
     1 UNK         1 GROUP             0       ****    0 ROOT    
