@<TRIPOS>MOLECULE
ZINC04002382_103
52   56    1
SMALL
USER_CHARGES


@<TRIPOS>ATOM
      1 C1          2.8462   56.6800   15.5399 C.ar      1 UNK         0.0000 
      2 C2          2.1480   56.0923   16.5872 C.ar      1 UNK         0.0000 
      3 C3          2.7046   55.0119   17.2659 C.ar      1 UNK         0.0000 
      4 C4          3.9653   54.5019   16.9299 C.ar      1 UNK         0.0000 
      5 C5          4.6664   55.0964   15.8546 C.ar      1 UNK         0.0000 
      6 C6          4.0915   56.1779   15.1755 C.ar      1 UNK         0.0000 
      7 C7          6.0389   54.5812   15.4422 C.3       1 UNK         0.0000 
      8 C8          6.1923   53.0852   15.7450 C.3       1 UNK         0.0000 
      9 C9          4.5200   53.2953   17.7177 C.3       1 UNK         0.0000 
     10 H10         3.9338   52.4279   17.4059 H         1 UNK         0.0000 
     11 C11         4.5805   53.4516   19.2514 C.2       1 UNK         0.0000 
     12 H12         4.0464   51.0125   18.9525 H         1 UNK         0.0000 
     13 C13         5.3452   54.6114   19.7531 C.2       1 UNK         0.0000 
     14 O14         5.9788   55.3563   19.0069 O.2       1 UNK         0.0000 
     15 C15         5.5105   54.7670   21.2629 C.3       1 UNK         0.0000 
     16 C16         4.4433   54.0724   22.1453 C.3       1 UNK         0.0000 
     17 H17         3.5836   54.7419   22.0868 H         1 UNK         0.0000 
     18 C18         3.9694   52.6611   21.6359 C.3       1 UNK         0.0000 
     19 H19         4.6850   51.9250   22.0053 H         1 UNK         0.0000 
     20 C20         4.0280   52.5529   20.0999 C.2       1 UNK         0.0000 
     21 O21         3.5044   51.3644   19.6816 O.3       1 UNK         0.0000 
     22 N22         2.6350   52.2916   22.1587 N.pl3     1 UNK         0.0000 
     23 C23         1.5044   53.0460   22.3286 C.ar      1 UNK         0.0000 
     24 N24         0.5247   52.3157   22.7930 N.2       1 UNK         0.0000 
     25 C25         1.0909   51.1226   22.8655 C.ar      1 UNK         0.0000 
     26 N26         2.3445   51.0247   22.4817 N.2       1 UNK         0.0000 
     27 C27         4.8084   54.0968   23.6476 C.ar      1 UNK         0.0000 
     28 C28         3.7948   54.2036   24.6096 C.ar      1 UNK         0.0000 
     29 C29         4.1060   54.2977   25.9644 C.ar      1 UNK         0.0000 
     30 C30         5.4379   54.2962   26.3712 C.ar      1 UNK         0.0000 
     31 C31         6.4597   54.1996   25.4319 C.ar      1 UNK         0.0000 
     32 C32         6.1465   54.0973   24.0791 C.ar      1 UNK         0.0000 
     33 Cl33        5.8255   54.4169   28.0488 Cl        1 UNK         0.0000 
     34 H34         2.4253   57.5237   15.0129 H         1 UNK         0.0000 
     35 H35         1.1796   56.4733   16.8756 H         1 UNK         0.0000 
     36 H36         2.1504   54.5611   18.0766 H         1 UNK         0.0000 
     37 H37         4.6235   56.6472   14.3605 H         1 UNK         0.0000 
     38 H38         6.8043   55.1488   15.9749 H         1 UNK         0.0000 
     39 H39         6.2120   54.7613   14.3801 H         1 UNK         0.0000 
     40 H40         7.2030   52.7183   15.5574 H         1 UNK         0.0000 
     41 H41         5.4775   52.4558   15.2096 H         1 UNK         0.0000 
     42 H42         5.5967   55.8299   21.4828 H         1 UNK         0.0000 
     43 H43         6.4839   54.3342   21.4631 H         1 UNK         0.0000 
     44 H44         1.4852   54.0962   22.0829 H         1 UNK         0.0000 
     45 H45         0.5446   50.2598   23.2184 H         1 UNK         0.0000 
     46 H46         2.7570   54.2325   24.3177 H         1 UNK         0.0000 
     47 H47         3.3148   54.3768   26.6957 H         1 UNK         0.0000 
     48 H48         7.4944   54.1963   25.7476 H         1 UNK         0.0000 
     49 H49         6.9709   54.0167   23.3895 H         1 UNK         0.0000 
     50 N50         5.9313   52.8967   17.2447 N.4       1 UNK         0.0000 
     51 H51         6.5965   53.4413   17.7751 H         1 UNK         0.0000 
     52 H52         6.0484   51.9174   17.5062 H         1 UNK         0.0000 
@<TRIPOS>BOND
     1    1    6 ar   
     2    1    2 ar   
     3    1   34 1    
     4    2    3 ar   
     5    2   35 1    
     6    3    4 ar   
     7    3   36 1    
     8    4    9 1    
     9    4    5 ar   
    10    5    6 ar   
    11    5    7 1    
    12    6   37 1    
    13    7    8 1    
    14    7   38 1    
    15    7   39 1    
    16    8   40 1    
    17    8   41 1    
    18    8   50 1    
    19    9   10 1    
    20    9   50 1    
    21    9   11 1    
    22   11   20 2    
    23   11   13 1    
    24   12   21 1    
    25   13   15 1    
    26   13   14 2    
    27   15   16 1    
    28   15   42 1    
    29   15   43 1    
    30   16   17 1    
    31   16   18 1    
    32   16   27 1    
    33   18   19 1    
    34   18   20 1    
    35   18   22 1    
    36   20   21 1    
    37   22   26 ar   
    38   22   23 ar   
    39   23   24 ar   
    40   23   44 1    
    41   24   25 ar   
    42   25   26 ar   
    43   25   45 1    
    44   27   32 ar   
    45   27   28 ar   
    46   28   29 ar   
    47   28   46 1    
    48   29   30 ar   
    49   29   47 1    
    50   30   31 ar   
    51   30   33 1    
    52   31   32 ar   
    53   31   48 1    
    54   32   49 1    
    55   50   51 1    
    56   50   52 1    
@<TRIPOS>SUBSTRUCTURE
     1 UNK         1 GROUP             0       ****    0 ROOT    
