@<TRIPOS>MOLECULE
ZINC63480056_5569
63   69    1
SMALL
USER_CHARGES


@<TRIPOS>ATOM
      1 C1          7.7222   55.8060   18.6429 C.3       1 UNK         0.0000 
      2 C2          7.6295   55.4807   20.1340 C.2       1 UNK         0.0000 
      3 O3          8.6118   55.6988   20.8408 O.2       1 UNK         0.0000 
      4 C4          6.3503   54.9079   20.6662 C.ar      1 UNK         0.0000 
      5 C5          6.2372   54.6536   22.0416 C.ar      1 UNK         0.0000 
      6 C6          5.0725   54.0962   22.5570 C.ar      1 UNK         0.0000 
      7 C7          3.9792   53.8205   21.7215 C.ar      1 UNK         0.0000 
      8 C8          4.1172   54.0366   20.3448 C.ar      1 UNK         0.0000 
      9 C9          5.2873   54.5711   19.8196 C.ar      1 UNK         0.0000 
     10 N10         2.7260   53.4068   22.2719 N.am      1 UNK         0.0000 
     11 C11         2.1995   53.9684   23.3940 C.2       1 UNK         0.0000 
     12 O12         2.7004   54.8615   24.0821 O.2       1 UNK         0.0000 
     13 C13         0.8177   53.3809   23.6639 C.3       1 UNK         0.0000 
     14 H14         0.1064   54.2082   23.6759 H         1 UNK         0.0000 
     15 C15         0.6654   52.5612   24.9663 C.3       1 UNK         0.0000 
     16 H16        -0.3698   52.6933   25.2874 H         1 UNK         0.0000 
     17 N17         0.8141   51.1749   24.5685 N.3       1 UNK         0.0000 
     18 C18         0.2217   51.0467   23.2401 C.3       1 UNK         0.0000 
     19 C19         0.5935   52.4091   22.5396 C.3       1 UNK         0.0000 
     20 H20        -0.2202   52.7502   21.8978 H         1 UNK         0.0000 
     21 C21         1.8820   52.4955   21.7078 C.2       1 UNK         0.0000 
     22 O22         2.0556   51.8645   20.6651 O.2       1 UNK         0.0000 
     23 C23        -1.2591   50.7449   23.2364 C.ar      1 UNK         0.0000 
     24 C24        -2.3607   51.4865   23.6772 C.ar      1 UNK         0.0000 
     25 C25        -3.6479   50.9569   23.5428 C.ar      1 UNK         0.0000 
     26 C26        -3.8357   49.6998   22.9640 C.ar      1 UNK         0.0000 
     27 C27        -2.7373   48.9637   22.5106 C.ar      1 UNK         0.0000 
     28 C28        -1.4588   49.5069   22.6548 C.ar      1 UNK         0.0000 
     29 N29        -0.2396   48.9652   22.2922 N.am      1 UNK         0.0000 
     30 C30         0.8077   49.7468   22.6096 C.2       1 UNK         0.0000 
     31 O31         1.9935   49.4670   22.4438 O.2       1 UNK         0.0000 
     32 C32         1.5590   52.9509   26.1603 C.3       1 UNK         0.0000 
     33 C33         0.9831   52.6843   27.5327 C.2       1 UNK         0.0000 
     34 C34         0.9731   53.4910   28.6049 C.2       1 UNK         0.0000 
     35 C35         1.5337   54.8416   28.7880 C.2       1 UNK         0.0000 
     36 C36         1.4014   55.4852   29.9591 C.2       1 UNK         0.0000 
     37 C37         0.6984   54.7965   31.0288 C.2       1 UNK         0.0000 
     38 C38         0.1896   53.5448   30.8849 C.2       1 UNK         0.0000 
     39 C39         0.2999   52.8764   29.6605 C.2       1 UNK         0.0000 
     40 N40        -0.1486   51.6971   29.3000 N.pl3     1 UNK         0.0000 
     41 C41         0.2342   51.4180   27.9030 C.3       1 UNK         0.0000 
     42 H42         6.9494   56.5217   18.3622 H         1 UNK         0.0000 
     43 H43         7.5760   54.9013   18.0512 H         1 UNK         0.0000 
     44 H44         8.6968   56.2283   18.4003 H         1 UNK         0.0000 
     45 H45         7.0533   54.8741   22.7182 H         1 UNK         0.0000 
     46 H46         5.0158   53.9223   23.6226 H         1 UNK         0.0000 
     47 H47         3.2982   53.8364   19.6671 H         1 UNK         0.0000 
     48 H48         5.3397   54.7243   18.7499 H         1 UNK         0.0000 
     49 H49         0.3511   50.5464   25.2121 H         1 UNK         0.0000 
     50 H50        -2.2408   52.4651   24.1213 H         1 UNK         0.0000 
     51 H51        -4.5017   51.5227   23.8875 H         1 UNK         0.0000 
     52 H52        -4.8335   49.2932   22.8652 H         1 UNK         0.0000 
     53 H53        -2.8887   47.9917   22.0649 H         1 UNK         0.0000 
     54 H54        -0.1223   48.0681   21.8529 H         1 UNK         0.0000 
     55 H55         2.5444   52.4969   26.0755 H         1 UNK         0.0000 
     56 H56         1.7322   54.0236   26.1354 H         1 UNK         0.0000 
     57 H57         2.0636   55.3533   27.9981 H         1 UNK         0.0000 
     58 H58         1.8044   56.4773   30.1088 H         1 UNK         0.0000 
     59 H59         0.6305   55.2866   31.9904 H         1 UNK         0.0000 
     60 H60        -0.3031   53.0718   31.7227 H         1 UNK         0.0000 
     61 H61        -0.6827   51.2487   27.3311 H         1 UNK         0.0000 
     62 H62         0.8481   50.5172   27.8872 H         1 UNK         0.0000 
     63 H63        -0.6829   51.0553   29.8848 H         1 UNK         0.0000 
@<TRIPOS>BOND
     1    1    2 1    
     2    1   42 1    
     3    1   43 1    
     4    1   44 1    
     5    2    3 2    
     6    2    4 1    
     7    4    9 ar   
     8    4    5 ar   
     9    5    6 ar   
    10    5   45 1    
    11    6    7 ar   
    12    6   46 1    
    13    7    8 ar   
    14    7   10 1    
    15    8    9 ar   
    16    8   47 1    
    17    9   48 1    
    18   10   21 am   BACKBONE|DICT|INTERRES
    19   10   11 am   BACKBONE|DICT|INTERRES
    20   11   12 2    
    21   11   13 1    
    22   13   14 1    
    23   13   19 1    
    24   13   15 1    
    25   15   16 1    
    26   15   17 1    
    27   15   32 1    
    28   17   18 1    
    29   17   49 1    
    30   18   30 1    
    31   18   19 1    
    32   18   23 1    
    33   19   20 1    
    34   19   21 1    
    35   21   22 2    
    36   23   28 ar   
    37   23   24 ar   
    38   24   25 ar   
    39   24   50 1    
    40   25   26 ar   
    41   25   51 1    
    42   26   27 ar   
    43   26   52 1    
    44   27   28 ar   
    45   27   53 1    
    46   28   29 1    
    47   29   30 am   BACKBONE|DICT|INTERRES
    48   29   54 1    
    49   30   31 2    
    50   32   33 1    
    51   32   55 1    
    52   32   56 1    
    53   33   41 1    
    54   33   34 2    
    55   34   39 1    
    56   34   35 1    
    57   35   36 2    
    58   35   57 1    
    59   36   37 1    
    60   36   58 1    
    61   37   38 2    
    62   37   59 1    
    63   38   39 1    
    64   38   60 1    
    65   39   40 2    
    66   40   41 1    
    67   40   63 1    
    68   41   61 1    
    69   41   62 1    
@<TRIPOS>SUBSTRUCTURE
     1 UNK         1 GROUP             0       ****    0 ROOT    
