@<TRIPOS>MOLECULE
ZINC14962356_2190
60   63    1
SMALL
USER_CHARGES


@<TRIPOS>ATOM
      1 C1          3.0320   50.2261   20.8010 C.3       1 UNK         0.0000 
      2 C2          1.9912   51.3644   20.9319 C.3       1 UNK         0.0000 
      3 C3          2.4599   52.4310   21.9699 C.3       1 UNK         0.0000 
      4 C4          3.6131   53.2432   21.3735 C.ar      1 UNK         0.0000 
      5 C5          3.9400   53.2964   20.0154 C.ar      1 UNK         0.0000 
      6 C6          5.1207   54.0458   19.9939 C.ar      1 UNK         0.0000 
      7 N7          5.5028   54.4469   21.1804 N.2       1 UNK         0.0000 
      8 N8          4.6137   53.9230   22.0441 N.pl3     1 UNK         0.0000 
      9 C9          4.8058   54.0963   23.4383 C.ar      1 UNK         0.0000 
     10 C10         3.7105   54.2715   24.2906 C.ar      1 UNK         0.0000 
     11 C11         3.9075   54.3936   25.6632 C.ar      1 UNK         0.0000 
     12 C12         5.1916   54.3413   26.2050 C.ar      1 UNK         0.0000 
     13 C13         6.2909   54.2104   25.3467 C.ar      1 UNK         0.0000 
     14 C14         6.1020   54.0966   23.9723 C.ar      1 UNK         0.0000 
     15 O15         5.2877   54.4200   27.5798 O.3       1 UNK         0.0000 
     16 C16         6.5282   54.0967   28.1995 C.3       1 UNK         0.0000 
     17 C17         3.1084   52.6044   18.9315 C.3       1 UNK         0.0000 
     18 H18         3.6377   51.7901   18.4274 H         1 UNK         0.0000 
     19 C19         1.7866   52.0964   19.5718 C.3       1 UNK         0.0000 
     20 C20         3.7530   53.9111   16.7796 C.3       1 UNK         0.0000 
     21 C21         3.7395   55.3473   16.2843 C.ar      1 UNK         0.0000 
     22 C22         4.4277   56.3267   17.0018 C.ar      1 UNK         0.0000 
     23 C23         4.4874   57.6393   16.5359 C.ar      1 UNK         0.0000 
     24 C24         3.8385   57.9980   15.3459 C.ar      1 UNK         0.0000 
     25 C25         3.1397   57.0165   14.6265 C.ar      1 UNK         0.0000 
     26 C26         3.0955   55.6991   15.0942 C.ar      1 UNK         0.0000 
     27 Cl27        2.3277   57.4018   13.1479 Cl        1 UNK         0.0000 
     28 O28         3.8889   59.2968   14.8888 O.3       1 UNK         0.0000 
     29 O29         5.1776   58.5573   17.2816 O.3       1 UNK         0.0000 
     30 C30         6.5304   58.7377   16.8854 C.3       1 UNK         0.0000 
     31 C31         0.6215   50.8197   21.3868 C.3       1 UNK         0.0000 
     32 H32         3.0976   49.6534   21.7242 H         1 UNK         0.0000 
     33 H33         2.7582   49.5260   20.0096 H         1 UNK         0.0000 
     34 H34         4.0352   50.5878   20.5777 H         1 UNK         0.0000 
     35 H35         2.7058   51.9715   22.9265 H         1 UNK         0.0000 
     36 H36         1.6486   53.1354   22.1583 H         1 UNK         0.0000 
     37 H37         5.7063   54.2900   19.1212 H         1 UNK         0.0000 
     38 H38         2.7027   54.3147   23.9054 H         1 UNK         0.0000 
     39 H39         3.0584   54.5077   26.3196 H         1 UNK         0.0000 
     40 H40         7.2967   54.1723   25.7262 H         1 UNK         0.0000 
     41 H41         6.9692   53.9759   23.3385 H         1 UNK         0.0000 
     42 H42         7.3205   54.7782   27.8867 H         1 UNK         0.0000 
     43 H43         6.4244   54.1826   29.2814 H         1 UNK         0.0000 
     44 H44         6.8339   53.0735   27.9738 H         1 UNK         0.0000 
     45 H45         1.0588   52.8970   19.6994 H         1 UNK         0.0000 
     46 H46         1.3340   51.4042   18.8576 H         1 UNK         0.0000 
     47 H47         3.5383   53.1808   15.9963 H         1 UNK         0.0000 
     48 H48         4.7245   53.6600   17.2056 H         1 UNK         0.0000 
     49 H49         4.9348   56.0788   17.9216 H         1 UNK         0.0000 
     50 H50         2.5664   54.9505   14.5229 H         1 UNK         0.0000 
     51 H51         4.2059   59.9322   15.5486 H         1 UNK         0.0000 
     52 H52         7.0554   57.7903   16.7561 H         1 UNK         0.0000 
     53 H53         6.5942   59.3043   15.9563 H         1 UNK         0.0000 
     54 H54         7.0575   59.2966   17.6568 H         1 UNK         0.0000 
     55 H55        -0.1278   51.6088   21.4685 H         1 UNK         0.0000 
     56 H56         0.2362   50.0774   20.6879 H         1 UNK         0.0000 
     57 H57         0.6919   50.3371   22.3613 H         1 UNK         0.0000 
     58 N58         2.7042   53.6472   17.8752 N.4       1 UNK         0.0000 
     59 H59         2.5035   54.5048   18.3744 H         1 UNK         0.0000 
     60 H60         1.8530   53.3478   17.4262 H         1 UNK         0.0000 
@<TRIPOS>BOND
     1    1    2 1    
     2    1   32 1    
     3    1   33 1    
     4    1   34 1    
     5    2   19 1    
     6    2    3 1    
     7    2   31 1    
     8    3    4 1    
     9    3   35 1    
    10    3   36 1    
    11    4    8 ar   
    12    4    5 ar   
    13    5    6 ar   
    14    5   17 1    
    15    6    7 ar   
    16    6   37 1    
    17    7    8 ar   
    18    8    9 1    
    19    9   14 ar   
    20    9   10 ar   
    21   10   11 ar   
    22   10   38 1    
    23   11   12 ar   
    24   11   39 1    
    25   12   13 ar   
    26   12   15 1    
    27   13   14 ar   
    28   13   40 1    
    29   14   41 1    
    30   15   16 1    
    31   16   42 1    
    32   16   43 1    
    33   16   44 1    
    34   17   18 1    
    35   17   19 1    
    36   17   58 1    
    37   19   45 1    
    38   19   46 1    
    39   20   21 1    
    40   20   47 1    
    41   20   48 1    
    42   20   58 1    
    43   21   26 ar   
    44   21   22 ar   
    45   22   23 ar   
    46   22   49 1    
    47   23   24 ar   
    48   23   29 1    
    49   24   25 ar   
    50   24   28 1    
    51   25   26 ar   
    52   25   27 1    
    53   26   50 1    
    54   28   51 1    
    55   29   30 1    
    56   30   52 1    
    57   30   53 1    
    58   30   54 1    
    59   31   55 1    
    60   31   56 1    
    61   31   57 1    
    62   58   59 1    
    63   58   60 1    
@<TRIPOS>SUBSTRUCTURE
     1 UNK         1 GROUP             0       ****    0 ROOT    
