@<TRIPOS>MOLECULE
ZINC12503297_3001
46   48    1
SMALL
USER_CHARGES


@<TRIPOS>ATOM
      1 C1          6.0337   54.8842   20.8466 C.ar      1 UNK         0.0000 
      2 C2          4.7044   54.4965   20.7289 C.ar      1 UNK         0.0000 
      3 C3          3.9529   54.1904   21.8600 C.ar      1 UNK         0.0000 
      4 C4          4.5328   54.2582   23.1567 C.ar      1 UNK         0.0000 
      5 C5          5.9218   54.5790   23.2628 C.ar      1 UNK         0.0000 
      6 C6          6.6546   54.8997   22.0926 C.ar      1 UNK         0.0000 
      7 C7          6.5233   54.6202   24.5389 C.ar      1 UNK         0.0000 
      8 C8          5.7756   54.3730   25.6826 C.ar      1 UNK         0.0000 
      9 C9          4.4060   54.0968   25.6016 C.ar      1 UNK         0.0000 
     10 C10         3.7804   54.0608   24.3509 C.ar      1 UNK         0.0000 
     11 Br11        1.8935   53.7748   24.2734 Br        1 UNK         0.0000 
     12 O12         3.6158   53.8391   26.7052 O.3       1 UNK         0.0000 
     13 C13         4.2299   53.6150   27.9764 C.3       1 UNK         0.0000 
     14 C14         3.1881   53.0985   28.9785 C.2       1 UNK         0.0000 
     15 O15         3.4996   53.0717   30.1716 O.2       1 UNK         0.0000 
     16 N16         2.0031   52.6635   28.4735 N.am      1 UNK         0.0000 
     17 C17         0.7902   52.4042   29.0739 C.2       1 UNK         0.0000 
     18 S18         0.3047   52.8973   30.5918 S.2       1 UNK         0.0000 
     19 N19        -0.1332   51.6961   28.3574 N.pl3     1 UNK         0.0000 
     20 N20         0.1332   51.2067   27.0769 N.am      1 UNK         0.0000 
     21 C21        -0.6261   51.6613   26.0543 C.2       1 UNK         0.0000 
     22 O22        -1.5280   52.4964   26.1882 O.2       1 UNK         0.0000 
     23 C23        -0.2787   51.1326   24.6747 C.ar      1 UNK         0.0000 
     24 C24         0.6448   50.0912   24.4859 C.ar      1 UNK         0.0000 
     25 C25         1.0071   49.6888   23.2053 C.ar      1 UNK         0.0000 
     26 C26         0.4410   50.2938   22.0778 C.ar      1 UNK         0.0000 
     27 C27        -0.4982   51.3160   22.2619 C.ar      1 UNK         0.0000 
     28 C28        -0.8545   51.7276   23.5432 C.ar      1 UNK         0.0000 
     29 N29         0.8263   49.8552   20.7141 N.pl3     1 UNK         0.0000 
     30 O30         1.5866   48.8972   20.6005 O.co2     1 UNK         0.0000 
     31 O31         0.3595   50.4603   19.7525 O.co2     1 UNK         0.0000 
     32 H32         6.5973   55.1361   19.9599 H         1 UNK         0.0000 
     33 H33         4.2388   54.4604   19.7539 H         1 UNK         0.0000 
     34 H34         2.9103   53.9338   21.7406 H         1 UNK         0.0000 
     35 H35         7.6981   55.1717   22.1738 H         1 UNK         0.0000 
     36 H36         7.5701   54.8608   24.6205 H         1 UNK         0.0000 
     37 H37         6.2786   54.4149   26.6364 H         1 UNK         0.0000 
     38 H38         5.0236   52.8691   27.9011 H         1 UNK         0.0000 
     39 H39         4.6495   54.5490   28.3543 H         1 UNK         0.0000 
     40 H40         1.9766   52.6662   27.4641 H         1 UNK         0.0000 
     41 H41        -0.7563   51.0718   28.8541 H         1 UNK         0.0000 
     42 H42         0.4813   50.2589   27.0967 H         1 UNK         0.0000 
     43 H43         1.1042   49.5799   25.3189 H         1 UNK         0.0000 
     44 H44         1.7348   48.8967   23.0980 H         1 UNK         0.0000 
     45 H45        -0.9525   51.8028   21.4109 H         1 UNK         0.0000 
     46 H46        -1.5685   52.5328   23.6481 H         1 UNK         0.0000 
@<TRIPOS>BOND
     1    1    6 ar   
     2    1    2 ar   
     3    1   32 1    
     4    2    3 ar   
     5    2   33 1    
     6    3    4 ar   
     7    3   34 1    
     8    4   10 ar   
     9    4    5 ar   
    10    5    6 ar   
    11    5    7 ar   
    12    6   35 1    
    13    7    8 ar   
    14    7   36 1    
    15    8    9 ar   
    16    8   37 1    
    17    9   10 ar   
    18    9   12 1    
    19   10   11 1    
    20   12   13 1    
    21   13   14 1    
    22   13   38 1    
    23   13   39 1    
    24   14   15 2    
    25   14   16 am   BACKBONE|DICT|INTERRES
    26   16   17 am   BACKBONE|DICT|INTERRES
    27   16   40 1    
    28   17   18 2    
    29   17   19 1    
    30   19   20 1    
    31   19   41 1    
    32   20   21 am   BACKBONE|DICT|INTERRES
    33   20   42 1    
    34   21   22 2    
    35   21   23 1    
    36   23   28 ar   
    37   23   24 ar   
    38   24   25 ar   
    39   24   43 1    
    40   25   26 ar   
    41   25   44 1    
    42   26   27 ar   
    43   26   29 1    
    44   27   28 ar   
    45   27   45 1    
    46   28   46 1    
    47   29   30 2    
    48   29   31 1    
@<TRIPOS>SUBSTRUCTURE
     1 UNK         1 GROUP             0       ****    0 ROOT    
