@<TRIPOS>MOLECULE
ZINC66187597_250
60   62    1
SMALL
USER_CHARGES


@<TRIPOS>ATOM
      1 C1          1.5045   56.7509   29.2693 C.3       1 UNK         0.0000 
      2 C2          1.3546   55.6199   30.2944 C.3       1 UNK         0.0000 
      3 C3          0.9264   54.2410   29.7342 C.3       1 UNK         0.0000 
      4 C4          1.7237   53.7255   28.5012 C.3       1 UNK         0.0000 
      5 H5          1.4801   54.4512   27.7289 H         1 UNK         0.0000 
      6 C6          3.2623   53.6945   28.7450 C.2       1 UNK         0.0000 
      7 O7          3.6523   53.2785   29.8416 O.2       1 UNK         0.0000 
      8 N8          4.1073   54.1979   27.7987 N.am      1 UNK         0.0000 
      9 C9          5.5122   54.5287   28.1479 C.3       1 UNK         0.0000 
     10 C10         6.4813   53.8637   27.1386 C.3       1 UNK         0.0000 
     11 C11         6.0181   54.1538   25.7213 C.2       1 UNK         0.0000 
     12 C12         4.6956   54.4124   25.3965 C.2       1 UNK         0.0000 
     13 C13         4.4865   54.4781   24.0156 C.2       1 UNK         0.0000 
     14 C14         5.6537   54.3304   23.2831 C.2       1 UNK         0.0000 
     15 S15         7.0231   54.0964   24.3083 S.3       1 UNK         0.0000 
     16 C16         3.6340   54.5974   26.4545 C.3       1 UNK         0.0000 
     17 N17         1.2455   52.3989   28.0816 N.am      1 UNK         0.0000 
     18 C18         0.7492   52.1034   26.8665 C.2       1 UNK         0.0000 
     19 O19         0.7065   52.8966   25.9278 O.2       1 UNK         0.0000 
     20 N20         0.3044   50.8428   26.7700 N.am      1 UNK         0.0000 
     21 C21        -0.2607   50.2514   25.5487 C.3       1 UNK         0.0000 
     22 H22        -0.9118   51.0124   25.1069 H         1 UNK         0.0000 
     23 C23         0.7985   49.8906   24.4815 C.3       1 UNK         0.0000 
     24 C24         0.1948   49.2203   23.2341 C.3       1 UNK         0.0000 
     25 C25        -0.6810   48.0092   23.5917 C.3       1 UNK         0.0000 
     26 N26        -1.7943   48.4730   24.5617 N.4       1 UNK         0.0000 
     27 C27        -1.1617   49.0399   25.8571 C.3       1 UNK         0.0000 
     28 C28        -2.7462   47.3121   24.9474 C.3       1 UNK         0.0000 
     29 C29        -3.6329   46.9036   23.7594 C.3       1 UNK         0.0000 
     30 H30         1.7064   57.6908   29.7756 H         1 UNK         0.0000 
     31 H31         2.3059   56.5590   28.5631 H         1 UNK         0.0000 
     32 H32         0.6151   56.8961   28.6728 H         1 UNK         0.0000 
     33 H33         0.6459   55.9213   31.0649 H         1 UNK         0.0000 
     34 H34         2.3038   55.5312   30.8084 H         1 UNK         0.0000 
     35 H35        -0.1290   54.2914   29.4675 H         1 UNK         0.0000 
     36 H36         0.9726   53.5039   30.5406 H         1 UNK         0.0000 
     37 H37         5.7792   54.2297   29.1630 H         1 UNK         0.0000 
     38 H38         5.6429   55.6085   28.0931 H         1 UNK         0.0000 
     39 H39         6.5117   52.7909   27.3184 H         1 UNK         0.0000 
     40 H40         7.4985   54.2150   27.3073 H         1 UNK         0.0000 
     41 H41         3.5172   54.6419   23.5651 H         1 UNK         0.0000 
     42 H42         5.7706   54.3529   22.2085 H         1 UNK         0.0000 
     43 H43         3.3354   55.6459   26.4821 H         1 UNK         0.0000 
     44 H44         2.7407   54.0668   26.1395 H         1 UNK         0.0000 
     45 H45         1.3399   51.6693   28.7707 H         1 UNK         0.0000 
     46 H46         0.3219   50.2501   27.5871 H         1 UNK         0.0000 
     47 H47         1.3669   50.7744   24.1849 H         1 UNK         0.0000 
     48 H48         1.5045   49.1949   24.9281 H         1 UNK         0.0000 
     49 H49        -0.3930   49.9473   22.6718 H         1 UNK         0.0000 
     50 H50         0.9977   48.8977   22.5700 H         1 UNK         0.0000 
     51 H51        -1.1590   47.6180   22.6939 H         1 UNK         0.0000 
     52 H52        -0.1140   47.2257   24.0949 H         1 UNK         0.0000 
     53 H53        -0.6100   48.2279   26.3412 H         1 UNK         0.0000 
     54 H54        -2.0006   49.3521   26.4817 H         1 UNK         0.0000 
     55 H55        -2.1236   46.5014   25.3344 H         1 UNK         0.0000 
     56 H56        -3.3637   47.6926   25.7645 H         1 UNK         0.0000 
     57 H57        -4.3971   46.1960   24.0805 H         1 UNK         0.0000 
     58 H58        -4.1525   47.7623   23.3355 H         1 UNK         0.0000 
     59 H59        -3.0666   46.4252   22.9630 H         1 UNK         0.0000 
     60 H60        -2.3393   49.2053   24.1254 H         1 UNK         0.0000 
@<TRIPOS>BOND
     1    1    2 1    
     2    1   30 1    
     3    1   31 1    
     4    1   32 1    
     5    2    3 1    
     6    2   33 1    
     7    2   34 1    
     8    3    4 1    
     9    3   35 1    
    10    3   36 1    
    11    4    5 1    
    12    4    6 1    
    13    4   17 1    
    14    6    7 2    
    15    6    8 am   BACKBONE|DICT|INTERRES
    16    8   16 1    
    17    8    9 1    
    18    9   10 1    
    19    9   37 1    
    20    9   38 1    
    21   10   11 1    
    22   10   39 1    
    23   10   40 1    
    24   11   15 1    
    25   11   12 2    
    26   12   13 1    
    27   12   16 1    
    28   13   14 2    
    29   13   41 1    
    30   14   15 1    
    31   14   42 1    
    32   16   43 1    
    33   16   44 1    
    34   17   18 am   BACKBONE|DICT|INTERRES
    35   17   45 1    
    36   18   19 2    
    37   18   20 am   BACKBONE|DICT|INTERRES
    38   20   21 1    
    39   20   46 1    
    40   21   22 1    
    41   21   27 1    
    42   21   23 1    
    43   23   24 1    
    44   23   47 1    
    45   23   48 1    
    46   24   25 1    
    47   24   49 1    
    48   24   50 1    
    49   25   26 1    
    50   25   51 1    
    51   25   52 1    
    52   26   27 1    
    53   26   28 1    
    54   26   60 1    
    55   27   53 1    
    56   27   54 1    
    57   28   29 1    
    58   28   55 1    
    59   28   56 1    
    60   29   57 1    
    61   29   58 1    
    62   29   59 1    
@<TRIPOS>SUBSTRUCTURE
     1 UNK         1 GROUP             0       ****    0 ROOT    
