@<TRIPOS>MOLECULE
ZINC37579719_1579
36   36    1
SMALL
USER_CHARGES


@<TRIPOS>ATOM
      1 C1          5.6215   54.2695   24.6019 C.3       1 UNK         0.0000 
      2 C2          4.5920   54.0966   25.7086 C.ar      1 UNK         0.0000 
      3 C3          5.0475   54.1895   27.0302 C.ar      1 UNK         0.0000 
      4 C4          4.1777   54.0136   28.1040 C.ar      1 UNK         0.0000 
      5 C5          2.8278   53.7602   27.8682 C.ar      1 UNK         0.0000 
      6 C6          2.3577   53.6967   26.5560 C.ar      1 UNK         0.0000 
      7 C7          3.2241   53.8313   25.4641 C.ar      1 UNK         0.0000 
      8 S8          2.4736   53.6222   23.8248 S.o2      1 UNK         0.0000 
      9 O9          1.2999   54.4967   23.7832 O.2       1 UNK         0.0000 
     10 O10         3.5119   53.7387   22.7979 O.2       1 UNK         0.0000 
     11 N11         1.9024   51.9483   23.7683 N.pl3     1 UNK         0.0000 
     12 C12         0.7149   51.4275   24.5083 C.3       1 UNK         0.0000 
     13 H13         0.8837   51.5553   25.5768 H         1 UNK         0.0000 
     14 C14        -0.6002   52.0716   24.0653 C.3       1 UNK         0.0000 
     15 C15         0.6445   49.9009   24.2531 C.2       1 UNK         0.0000 
     16 O16         0.8911   49.4162   23.1498 O.2       1 UNK         0.0000 
     17 N17         0.3043   49.1188   25.2810 N.am      1 UNK         0.0000 
     18 C18         1.9144   53.5205   28.9757 C.1       1 UNK         0.0000 
     19 C19         1.1211   53.2482   29.8641 C.1       1 UNK         0.0000 
     20 C20         0.1318   52.8700   30.8838 C.3       1 UNK         0.0000 
     21 O21         0.7044   52.3981   32.0816 O.3       1 UNK         0.0000 
     22 H22         6.6167   54.4963   24.9861 H         1 UNK         0.0000 
     23 H23         5.6964   53.3597   24.0058 H         1 UNK         0.0000 
     24 H24         5.3347   55.0853   23.9403 H         1 UNK         0.0000 
     25 H25         6.0904   54.3819   27.2370 H         1 UNK         0.0000 
     26 H26         4.5626   54.0667   29.1126 H         1 UNK         0.0000 
     27 H27         1.3056   53.5273   26.3810 H         1 UNK         0.0000 
     28 H28         2.4467   51.2729   23.2234 H         1 UNK         0.0000 
     29 H29        -1.4588   51.5316   24.4695 H         1 UNK         0.0000 
     30 H30        -0.6598   53.0934   24.4386 H         1 UNK         0.0000 
     31 H31        -0.6725   52.0900   22.9763 H         1 UNK         0.0000 
     32 H32         0.0405   49.4938   26.1810 H         1 UNK         0.0000 
     33 H33         0.3022   48.1169   25.1582 H         1 UNK         0.0000 
     34 H34        -0.5111   52.0955   30.4635 H         1 UNK         0.0000 
     35 H35        -0.4951   53.7359   31.0954 H         1 UNK         0.0000 
     36 H36        -0.0305   52.0967   32.6441 H         1 UNK         0.0000 
@<TRIPOS>BOND
     1    1    2 1    
     2    1   22 1    
     3    1   23 1    
     4    1   24 1    
     5    2    7 ar   
     6    2    3 ar   
     7    3    4 ar   
     8    3   25 1    
     9    4    5 ar   
    10    4   26 1    
    11    5    6 ar   
    12    5   18 1    
    13    6    7 ar   
    14    6   27 1    
    15    7    8 1    
    16    8    9 2    
    17    8   10 2    
    18    8   11 1    
    19   11   12 1    
    20   11   28 1    
    21   12   13 1    
    22   12   14 1    
    23   12   15 1    
    24   14   29 1    
    25   14   30 1    
    26   14   31 1    
    27   15   16 2    
    28   15   17 am   BACKBONE|DICT|INTERRES
    29   17   32 1    
    30   17   33 1    
    31   18   19 3    
    32   19   20 1    
    33   20   21 1    
    34   20   34 1    
    35   20   35 1    
    36   21   36 1    
@<TRIPOS>SUBSTRUCTURE
     1 UNK         1 GROUP             0       ****    0 ROOT    
