@<TRIPOS>MOLECULE
ZINC39668957_385
68   72    1
SMALL
USER_CHARGES


@<TRIPOS>ATOM
      1 C1         -2.6071   46.8250   23.1429 C.ar      1 UNK         0.0000 
      2 C2         -2.4141   46.9890   24.5108 C.ar      1 UNK         0.0000 
      3 C3         -1.4627   47.8945   24.9704 C.ar      1 UNK         0.0000 
      4 C4         -0.7016   48.6646   24.0800 C.ar      1 UNK         0.0000 
      5 C5         -0.8921   48.4883   22.6954 C.ar      1 UNK         0.0000 
      6 C6         -1.8426   47.5655   22.2442 C.ar      1 UNK         0.0000 
      7 C7         -0.0477   49.2898   21.7165 C.3       1 UNK         0.0000 
      8 C8          1.3068   49.6458   22.3469 C.3       1 UNK         0.0000 
      9 O9          1.0510   50.3624   23.5479 O.3       1 UNK         0.0000 
     10 C10         0.3547   49.6565   24.5895 C.3       1 UNK         0.0000 
     11 H11         1.1049   49.0754   25.1291 H         1 UNK         0.0000 
     12 C12        -0.2539   50.6988   25.5536 C.3       1 UNK         0.0000 
     13 N13         0.7046   51.7416   25.9106 N.am      1 UNK         0.0000 
     14 C14         0.4685   52.7609   26.7514 C.2       1 UNK         0.0000 
     15 O15        -0.6342   52.8966   27.2817 O.2       1 UNK         0.0000 
     16 C16         1.5772   53.8086   27.0819 C.3       1 UNK         0.0000 
     17 H17         1.1056   54.7836   27.0303 H         1 UNK         0.0000 
     18 C18         2.6659   53.7722   25.9792 C.3       1 UNK         0.0000 
     19 N19         3.9147   54.1504   26.6319 N.am      1 UNK         0.0000 
     20 C20         3.7323   54.2598   28.0836 C.3       1 UNK         0.0000 
     21 C21         2.3415   53.6740   28.4259 C.3       1 UNK         0.0000 
     22 C22         2.5674   52.2138   28.8902 C.3       1 UNK         0.0000 
     23 C23         1.2978   51.5500   29.4603 C.3       1 UNK         0.0000 
     24 N24         0.7799   52.3730   30.6618 N.4       1 UNK         0.0000 
     25 C25         0.4903   53.8367   30.2658 C.3       1 UNK         0.0000 
     26 C26         1.7576   54.4573   29.6391 C.3       1 UNK         0.0000 
     27 C27         5.1075   54.4866   26.0517 C.2       1 UNK         0.0000 
     28 O28         6.0549   54.8338   26.7660 O.2       1 UNK         0.0000 
     29 C29         5.3292   54.5078   24.5353 C.ar      1 UNK         0.0000 
     30 C30         6.4596   55.1824   24.0412 C.ar      1 UNK         0.0000 
     31 C31         6.7045   55.2945   22.6750 C.ar      1 UNK         0.0000 
     32 C32         5.8259   54.7194   21.7499 C.ar      1 UNK         0.0000 
     33 C33         4.7302   54.0070   22.2227 C.ar      1 UNK         0.0000 
     34 C34         4.4863   53.8959   23.5882 C.ar      1 UNK         0.0000 
     35 O35         5.9598   54.7940   20.3773 O.3       1 UNK         0.0000 
     36 C36         6.9140   55.6774   19.7945 C.3       1 UNK         0.0000 
     37 F37         6.7534   55.6269   18.4739 F         1 UNK         0.0000 
     38 F38         8.1639   55.2990   20.0682 F         1 UNK         0.0000 
     39 F39         6.7046   56.9387   20.1809 F         1 UNK         0.0000 
     40 H40        -3.3486   46.1306   22.7767 H         1 UNK         0.0000 
     41 H41        -3.0006   46.4264   25.2214 H         1 UNK         0.0000 
     42 H42        -1.3178   47.9967   26.0384 H         1 UNK         0.0000 
     43 H43        -1.9962   47.4287   21.1836 H         1 UNK         0.0000 
     44 H44        -0.5780   50.2092   21.4674 H         1 UNK         0.0000 
     45 H45         0.0996   48.7430   20.7843 H         1 UNK         0.0000 
     46 H46         1.8988   50.2658   21.6730 H         1 UNK         0.0000 
     47 H47         1.8904   48.7465   22.5498 H         1 UNK         0.0000 
     48 H48        -0.6167   50.2068   26.4594 H         1 UNK         0.0000 
     49 H49        -1.1217   51.1628   25.0806 H         1 UNK         0.0000 
     50 H50         1.5776   51.7017   25.4083 H         1 UNK         0.0000 
     51 H51         2.3937   54.4452   25.1640 H         1 UNK         0.0000 
     52 H52         2.8623   52.7500   25.6596 H         1 UNK         0.0000 
     53 H53         4.5445   53.8726   28.7024 H         1 UNK         0.0000 
     54 H54         3.6980   55.3313   28.2816 H         1 UNK         0.0000 
     55 H55         2.9815   51.6229   28.0775 H         1 UNK         0.0000 
     56 H56         3.3366   52.1839   29.6641 H         1 UNK         0.0000 
     57 H57         0.4316   51.4367   28.8272 H         1 UNK         0.0000 
     58 H58         1.5044   50.5237   29.6817 H         1 UNK         0.0000 
     59 H59        -0.0665   51.9528   31.0347 H         1 UNK         0.0000 
     60 H60        -0.3595   53.8190   29.5837 H         1 UNK         0.0000 
     61 H61         0.1873   54.3458   31.1827 H         1 UNK         0.0000 
     62 H62         2.5136   54.5242   30.4195 H         1 UNK         0.0000 
     63 H63         1.5679   55.4953   29.3593 H         1 UNK         0.0000 
     64 H64         7.1624   55.6575   24.7108 H         1 UNK         0.0000 
     65 H65         7.5848   55.8343   22.3613 H         1 UNK         0.0000 
     66 H66         4.0583   53.5382   21.5179 H         1 UNK         0.0000 
     67 H67         3.6342   53.2967   23.8423 H         1 UNK         0.0000 
     68 H68         1.4532   52.3545   31.4154 H         1 UNK         0.0000 
@<TRIPOS>BOND
     1    1    6 ar   
     2    1    2 ar   
     3    1   40 1    
     4    2    3 ar   
     5    2   41 1    
     6    3    4 ar   
     7    3   42 1    
     8    4   10 1    
     9    4    5 ar   
    10    5    6 ar   
    11    5    7 1    
    12    6   43 1    
    13    7    8 1    
    14    7   44 1    
    15    7   45 1    
    16    8    9 1    
    17    8   46 1    
    18    8   47 1    
    19    9   10 1    
    20   10   11 1    
    21   10   12 1    
    22   12   13 1    
    23   12   48 1    
    24   12   49 1    
    25   13   14 am   BACKBONE|DICT|INTERRES
    26   13   50 1    
    27   14   15 2    
    28   14   16 1    
    29   16   17 1    
    30   16   21 1    
    31   16   18 1    
    32   18   19 1    
    33   18   51 1    
    34   18   52 1    
    35   19   20 1    
    36   19   27 am   BACKBONE|DICT|INTERRES
    37   20   21 1    
    38   20   53 1    
    39   20   54 1    
    40   21   26 1    
    41   21   22 1    
    42   22   23 1    
    43   22   55 1    
    44   22   56 1    
    45   23   24 1    
    46   23   57 1    
    47   23   58 1    
    48   24   25 1    
    49   24   59 1    
    50   24   68 1    
    51   25   26 1    
    52   25   60 1    
    53   25   61 1    
    54   26   62 1    
    55   26   63 1    
    56   27   28 2    
    57   27   29 1    
    58   29   34 ar   
    59   29   30 ar   
    60   30   31 ar   
    61   30   64 1    
    62   31   32 ar   
    63   31   65 1    
    64   32   33 ar   
    65   32   35 1    
    66   33   34 ar   
    67   33   66 1    
    68   34   67 1    
    69   35   36 1    
    70   36   37 1    
    71   36   38 1    
    72   36   39 1    
@<TRIPOS>SUBSTRUCTURE
     1 UNK         1 GROUP             0       ****    0 ROOT    
