@<TRIPOS>MOLECULE
ZINC59387284_854
51   54    1
SMALL
USER_CHARGES


@<TRIPOS>ATOM
      1 C1          0.7038   53.8582   30.6887 C.ar      1 UNK         0.0000 
      2 C2          1.3783   52.6459   30.5690 C.ar      1 UNK         0.0000 
      3 C3          2.5596   52.5799   29.8331 C.ar      1 UNK         0.0000 
      4 C4          3.0545   53.7235   29.2030 C.ar      1 UNK         0.0000 
      5 C5          2.3737   54.9429   29.3289 C.ar      1 UNK         0.0000 
      6 C6          1.2012   55.0090   30.0784 C.ar      1 UNK         0.0000 
      7 N7          4.2640   53.5991   28.5032 N.am      1 UNK         0.0000 
      8 C8          4.5880   54.2094   27.3447 C.2       1 UNK         0.0000 
      9 O9          3.8035   54.8949   26.6877 O.2       1 UNK         0.0000 
     10 C10         6.0147   53.9588   26.8383 C.3       1 UNK         0.0000 
     11 S11         6.7010   55.2966   25.8044 S.3       1 UNK         0.0000 
     12 C12         6.1183   54.8188   24.2160 C.2       1 UNK         0.0000 
     13 C13         5.1477   53.9362   23.7762 C.2       1 UNK         0.0000 
     14 C14         5.2011   53.9515   22.3863 C.2       1 UNK         0.0000 
     15 C15         6.1524   54.8949   22.0233 C.2       1 UNK         0.0000 
     16 O16         6.7045   55.4223   23.1501 O.3       1 UNK         0.0000 
     17 C17         6.6686   55.2968   20.7304 C.2       1 UNK         0.0000 
     18 N18         7.0475   56.4742   20.4766 N.2       1 UNK         0.0000 
     19 N19         7.5411   56.6681   19.2316 N.pl3     1 UNK         0.0000 
     20 S20         6.9784   58.0616   18.3154 S.o2      1 UNK         0.0000 
     21 O21         6.7062   59.1306   19.2813 O.2       1 UNK         0.0000 
     22 O22         7.9289   58.2643   17.2181 O.2       1 UNK         0.0000 
     23 C23         5.4079   57.6099   17.5577 C.ar      1 UNK         0.0000 
     24 C24         4.7467   56.4174   17.8661 C.ar      1 UNK         0.0000 
     25 C25         3.5220   56.1015   17.2853 C.ar      1 UNK         0.0000 
     26 C26         2.9174   56.9898   16.3673 C.ar      1 UNK         0.0000 
     27 C27         1.6682   56.7019   15.7626 C.ar      1 UNK         0.0000 
     28 C28         1.0993   57.6004   14.8631 C.ar      1 UNK         0.0000 
     29 C29         1.7451   58.7940   14.5521 C.ar      1 UNK         0.0000 
     30 C30         2.9748   59.1038   15.1274 C.ar      1 UNK         0.0000 
     31 C31         3.5871   58.2093   16.0414 C.ar      1 UNK         0.0000 
     32 C32         4.8352   58.4963   16.6461 C.ar      1 UNK         0.0000 
     33 H33        -0.2049   53.9037   31.2718 H         1 UNK         0.0000 
     34 H34         0.9818   51.7655   31.0528 H         1 UNK         0.0000 
     35 H35         3.0791   51.6384   29.7371 H         1 UNK         0.0000 
     36 H36         2.7566   55.8444   28.8696 H         1 UNK         0.0000 
     37 H37         0.6900   55.9539   30.1905 H         1 UNK         0.0000 
     38 H38         4.9158   52.9188   28.8656 H         1 UNK         0.0000 
     39 H39         6.6768   53.8659   27.6975 H         1 UNK         0.0000 
     40 H40         6.0607   53.0037   26.3196 H         1 UNK         0.0000 
     41 H41         4.4993   53.3271   24.3901 H         1 UNK         0.0000 
     42 H42         4.6002   53.3536   21.7147 H         1 UNK         0.0000 
     43 H43         6.6475   54.4923   20.0007 H         1 UNK         0.0000 
     44 H44         7.6525   55.8275   18.6573 H         1 UNK         0.0000 
     45 H45         5.1640   55.7086   18.5597 H         1 UNK         0.0000 
     46 H46         3.0210   55.1808   17.5443 H         1 UNK         0.0000 
     47 H47         1.1596   55.7796   16.0041 H         1 UNK         0.0000 
     48 H48         0.1501   57.3705   14.4029 H         1 UNK         0.0000 
     49 H49         1.2893   59.4853   13.8608 H         1 UNK         0.0000 
     50 H50         3.4685   60.0359   14.8915 H         1 UNK         0.0000 
     51 H51         5.3405   59.4258   16.4054 H         1 UNK         0.0000 
@<TRIPOS>BOND
     1    1    6 ar   
     2    1    2 ar   
     3    1   33 1    
     4    2    3 ar   
     5    2   34 1    
     6    3    4 ar   
     7    3   35 1    
     8    4    5 ar   
     9    4    7 1    
    10    5    6 ar   
    11    5   36 1    
    12    6   37 1    
    13    7    8 am   BACKBONE|DICT|INTERRES
    14    7   38 1    
    15    8    9 2    
    16    8   10 1    
    17   10   11 1    
    18   10   39 1    
    19   10   40 1    
    20   11   12 1    
    21   12   16 1    
    22   12   13 2    
    23   13   14 1    
    24   13   41 1    
    25   14   15 2    
    26   14   42 1    
    27   15   16 1    
    28   15   17 1    
    29   17   18 2    
    30   17   43 1    
    31   18   19 1    
    32   19   20 1    
    33   19   44 1    
    34   20   21 2    
    35   20   22 2    
    36   20   23 1    
    37   23   32 ar   
    38   23   24 ar   
    39   24   25 ar   
    40   24   45 1    
    41   25   26 ar   
    42   25   46 1    
    43   26   31 ar   
    44   26   27 ar   
    45   27   28 ar   
    46   27   47 1    
    47   28   29 ar   
    48   28   48 1    
    49   29   30 ar   
    50   29   49 1    
    51   30   31 ar   
    52   30   50 1    
    53   31   32 ar   
    54   32   51 1    
@<TRIPOS>SUBSTRUCTURE
     1 UNK         1 GROUP             0       ****    0 ROOT    
