ZINC03012148_2327
                    3D
 Schrodinger Suite 2024-2.
 59 62  0  0  1  0            999 V2000
    9.8719   54.4946   15.5630 C   0  0  0  0  0  0
    8.8803   54.5769   16.7089 C   0  0  0  0  0  0
    9.2214   55.2411   17.8858 C   0  0  0  0  0  0
    8.3206   55.2985   18.9466 C   0  0  0  0  0  0
    7.0616   54.6778   18.8542 C   0  0  0  0  0  0
    6.7174   54.0102   17.6616 C   0  0  0  0  0  0
    7.6308   53.9649   16.6029 C   0  0  0  0  0  0
    5.3781   53.2967   17.4930 C   0  0  0  0  0  0
    6.1280   54.6437   19.9119 N   0  0  0  0  0  0
    6.2783   54.9868   21.2110 C   0  0  0  0  0  0
    7.2255   55.6185   21.6817 O   0  0  0  0  0  0
    5.2263   54.4969   22.0721 C   0  0  0  0  0  0
    5.3426   54.3558   23.4658 C   0  0  0  0  0  0
    4.0970   53.9870   23.9245 C   0  0  0  0  0  0
    3.2946   53.9458   22.8019 N   0  0  0  0  0  0
    3.9934   54.2196   21.6897 N   0  0  0  0  0  0
    1.8759   53.5869   22.7517 C   0  0  2  0  0  0
    1.3919   54.3022   22.0900 H   0  0  0  0  0  0
    1.3168   53.7682   24.1875 C   0  0  0  0  0  0
    2.2432   53.1859   25.2865 C   0  0  1  0  0  0
    2.3529   52.1148   25.1133 H   0  0  0  0  0  0
    3.5917   53.7610   25.1889 N   0  0  0  0  0  0
    1.6040   53.2383   26.6772 C   0  0  0  0  0  0
    2.0957   54.0538   27.7029 C   0  0  0  0  0  0
    1.4936   54.0490   28.9595 C   0  0  0  0  0  0
    0.3719   53.2428   29.2127 C   0  0  0  0  0  0
   -0.1450   52.4421   28.1835 C   0  0  0  0  0  0
    0.4905   52.4347   26.9323 C   0  0  0  0  0  0
   -1.2748   51.6961   28.4674 O   0  0  0  0  0  0
   -1.8736   50.9047   27.4452 C   0  0  0  0  0  0
   -0.2796   53.1942   30.4311 O   0  0  0  0  0  0
    0.3043   53.8007   31.5761 C   0  0  0  0  0  0
    1.6043   52.1877   22.1417 C   0  0  0  0  0  0
    0.2954   51.9332   22.1163 F   0  0  0  0  0  0
    2.0437   52.0963   20.8866 F   0  0  0  0  0  0
    2.1781   51.2061   22.8372 F   0  0  0  0  0  0
   10.8988   54.5281   15.9292 H   0  0  0  0  0  0
    9.7184   55.3162   14.8628 H   0  0  0  0  0  0
    9.7646   53.5521   15.0241 H   0  0  0  0  0  0
   10.1895   55.7099   17.9891 H   0  0  0  0  0  0
    8.6437   55.8206   19.8315 H   0  0  0  0  0  0
    7.3711   53.4437   15.6929 H   0  0  0  0  0  0
    5.1504   52.6895   18.3694 H   0  0  0  0  0  0
    4.5712   54.0188   17.3652 H   0  0  0  0  0  0
    5.3813   52.6121   16.6435 H   0  0  0  0  0  0
    5.2695   54.1632   19.6870 H   0  0  0  0  0  0
    6.2253   54.5334   24.0630 H   0  0  0  0  0  0
    1.1314   54.8256   24.3767 H   0  0  0  0  0  0
    0.3268   53.3154   24.2489 H   0  0  0  0  0  0
    4.2071   53.3318   25.8654 H   0  0  0  0  0  0
    2.9494   54.6946   27.5372 H   0  0  0  0  0  0
    1.9065   54.6898   29.7221 H   0  0  0  0  0  0
    0.1189   51.8075   26.1370 H   0  0  0  0  0  0
   -2.7425   50.3890   27.8542 H   0  0  0  0  0  0
   -2.2213   51.5247   26.6181 H   0  0  0  0  0  0
   -1.1866   50.1509   27.0567 H   0  0  0  0  0  0
   -0.3698   53.6963   32.4264 H   0  0  0  0  0  0
    1.2376   53.2974   31.8321 H   0  0  0  0  0  0
    0.4809   54.8677   31.4369 H   0  0  0  0  0  0
  1  2  1  0  0  0
  1 37  1  0  0  0
  1 38  1  0  0  0
  1 39  1  0  0  0
  2  7  2  0  0  0
  2  3  1  0  0  0
  3  4  2  0  0  0
  3 40  1  0  0  0
  4  5  1  0  0  0
  4 41  1  0  0  0
  5  6  2  0  0  0
  5  9  1  0  0  0
  6  7  1  0  0  0
  6  8  1  0  0  0
  7 42  1  0  0  0
  8 43  1  0  0  0
  8 44  1  0  0  0
  8 45  1  0  0  0
  9 10  1  0  0  0
  9 46  1  0  0  0
 10 11  2  0  0  0
 10 12  1  0  0  0
 12 16  2  0  0  0
 12 13  1  0  0  0
 13 14  2  0  0  0
 13 47  1  0  0  0
 14 22  1  0  0  0
 14 15  1  0  0  0
 15 16  1  0  0  0
 15 17  1  0  0  0
 17 18  1  0  0  0
 17 19  1  0  0  0
 17 33  1  0  0  0
 19 20  1  0  0  0
 19 48  1  0  0  0
 19 49  1  0  0  0
 20 21  1  0  0  0
 20 22  1  0  0  0
 20 23  1  0  0  0
 22 50  1  0  0  0
 23 28  2  0  0  0
 23 24  1  0  0  0
 24 25  2  0  0  0
 24 51  1  0  0  0
 25 26  1  0  0  0
 25 52  1  0  0  0
 26 27  2  0  0  0
 26 31  1  0  0  0
 27 28  1  0  0  0
 27 29  1  0  0  0
 28 53  1  0  0  0
 29 30  1  0  0  0
 30 54  1  0  0  0
 30 55  1  0  0  0
 30 56  1  0  0  0
 31 32  1  0  0  0
 32 57  1  0  0  0
 32 58  1  0  0  0
 32 59  1  0  0  0
 33 34  1  0  0  0
 33 35  1  0  0  0
 33 36  1  0  0  0
M  END
> <i_i_glide_confnum>
24

> <i_i_glide_lignum>
2328

> <i_i_glide_posenum>
104

> <i_i_glide_rotatable_bonds>
7

> <i_m_Source_File_Index>
4249

> <b_m_subgroup_collapsed>
0

> <r_i_docking_score>
-5.32117

> <r_i_glide_ecoul>
-3.18995

> <r_i_glide_eff_state_penalty>
0

> <r_i_glide_einternal>
2.7376

> <r_i_glide_emodel>
-56.0515

> <r_i_glide_energy>
-42.8559

> <r_i_glide_erotb>
0.359535

> <r_i_glide_esite>
-0.00937674

> <r_i_glide_evdw>
-39.666

> <r_i_glide_gscore>
-5.32117

> <r_i_glide_hbond>
0

> <r_i_glide_ligand_efficiency>
-0.156505

> <r_i_glide_ligand_efficiency_ln>
-1.1756

> <r_i_glide_ligand_efficiency_sa>
-0.507015

> <r_i_glide_lipo>
-2.38446

> <r_i_glide_metal>
0

> <r_i_glide_rewards>
-0.825074

> <s_i_glide_gridfile>
wee1_glide-grid

> <s_m_Source_File>
wee1_decoys_glide_SP.sdf

> <s_m_Source_Path>
/Users/zhangxujun/Desktop

> <s_m_entry_id>
4524

> <s_m_entry_name>
wee1_decoys_glide_SP.4249

> <s_m_subgroup_title>
wee1_decoys_glide_SP

> <s_m_subgroupid>
wee1_decoys_glide_SP


$$$$
