@<TRIPOS>MOLECULE
ZINC20410740_1527
49   53    1
SMALL
USER_CHARGES


@<TRIPOS>ATOM
      1 C1          1.3985   52.3117   19.8599 C.3       1 UNK         0.0000 
      2 N2          2.5931   52.4482   20.8354 N.4       1 UNK         0.0000 
      3 C3          3.7553   53.1952   20.1566 C.3       1 UNK         0.0000 
      4 C4          4.9750   53.0111   21.0484 C.3       1 UNK         0.0000 
      5 C5          4.7270   53.5220   22.4589 C.ar      1 UNK         0.0000 
      6 C6          5.8211   54.0378   23.1777 C.ar      1 UNK         0.0000 
      7 C7          5.6377   54.4343   24.4875 C.ar      1 UNK         0.0000 
      8 C8          4.4155   54.3780   25.0778 C.ar      1 UNK         0.0000 
      9 C9          3.2901   53.9155   24.3890 C.ar      1 UNK         0.0000 
     10 C10         3.4261   53.4569   23.0528 C.ar      1 UNK         0.0000 
     11 C11         2.1822   52.9476   22.2540 C.3       1 UNK         0.0000 
     12 H12         1.5721   53.8270   22.0387 H         1 UNK         0.0000 
     13 C13         1.3604   51.8015   22.9078 C.ar      1 UNK         0.0000 
     14 C14         1.6981   50.4909   22.8786 C.ar      1 UNK         0.0000 
     15 O15         2.7045   50.0015   22.2568 O.co2     1 UNK         0.0000 
     16 N16         0.9549   49.4976   23.3907 N.pl3     1 UNK         0.0000 
     17 C17        -0.2825   49.7097   23.9210 C.ar      1 UNK         0.0000 
     18 S18        -1.0759   48.3494   24.4816 S.2       1 UNK         0.0000 
     19 N19        -0.7197   51.0428   23.9360 N.pl3     1 UNK         0.0000 
     20 C20         0.0632   52.1261   23.5333 C.ar      1 UNK         0.0000 
     21 O21        -0.2857   53.2968   23.6817 O.2       1 UNK         0.0000 
     22 C22        -2.0645   51.3521   24.5077 C.3       1 UNK         0.0000 
     23 C23        -3.0245   52.3336   23.8310 C.3       1 UNK         0.0000 
     24 C24        -3.3218   50.8673   23.7908 C.3       1 UNK         0.0000 
     25 O25         2.0588   53.9445   24.9985 O.3       1 UNK         0.0000 
     26 C26         1.9571   53.3685   26.2972 C.3       1 UNK         0.0000 
     27 O27         4.5294   54.8522   26.3502 O.3       1 UNK         0.0000 
     28 C28         5.9070   54.8691   26.6074 C.3       1 UNK         0.0000 
     29 O29         6.5534   54.9232   25.3673 O.3       1 UNK         0.0000 
     30 H30         1.0152   53.2966   19.6042 H         1 UNK         0.0000 
     31 H31         1.7693   51.7960   18.9723 H         1 UNK         0.0000 
     32 H32         0.6319   51.7067   20.3446 H         1 UNK         0.0000 
     33 H33         3.9362   52.7035   19.1975 H         1 UNK         0.0000 
     34 H34         3.5032   54.2434   19.9946 H         1 UNK         0.0000 
     35 H35         5.8217   53.5272   20.5927 H         1 UNK         0.0000 
     36 H36         5.2433   51.9537   21.0905 H         1 UNK         0.0000 
     37 H37         6.8029   54.0968   22.7331 H         1 UNK         0.0000 
     38 H38        -2.0706   51.3098   25.5984 H         1 UNK         0.0000 
     39 H39        -3.6227   52.9834   24.4704 H         1 UNK         0.0000 
     40 H40        -2.7307   52.8293   22.9053 H         1 UNK         0.0000 
     41 H41        -3.2122   50.3286   22.8487 H         1 UNK         0.0000 
     42 H42        -4.1334   50.4676   24.3995 H         1 UNK         0.0000 
     43 H43         0.9299   53.0465   26.4670 H         1 UNK         0.0000 
     44 H44         2.6002   52.4964   26.4226 H         1 UNK         0.0000 
     45 H45         2.2022   54.0990   27.0684 H         1 UNK         0.0000 
     46 H46         6.1948   55.6964   27.2554 H         1 UNK         0.0000 
     47 H47         6.1885   53.9480   27.1246 H         1 UNK         0.0000 
     48 H48         2.9072   51.4950   21.0080 H         1 UNK         0.0000 
     49 H49         1.3160   48.5602   23.4882 H         1 UNK         0.0000 
@<TRIPOS>BOND
     1    1    2 1    
     2    1   30 1    
     3    1   31 1    
     4    1   32 1    
     5    2   11 1    
     6    2    3 1    
     7    2   48 1    
     8    3    4 1    
     9    3   33 1    
    10    3   34 1    
    11    4    5 1    
    12    4   35 1    
    13    4   36 1    
    14    5   10 ar   
    15    5    6 ar   
    16    6    7 ar   
    17    6   37 1    
    18    7   29 1    
    19    7    8 ar   
    20    8    9 ar   
    21    8   27 1    
    22    9   10 ar   
    23    9   25 1    
    24   10   11 1    
    25   11   12 1    
    26   11   13 1    
    27   13   14 ar   
    28   13   20 ar   
    29   14   15 1    
    30   14   16 ar   
    31   16   17 ar   
    32   16   49 1    
    33   17   19 ar   
    34   17   18 2    
    35   19   20 ar   
    36   19   22 1    
    37   20   21 2    
    38   22   24 1    
    39   22   23 1    
    40   22   38 1    
    41   23   24 1    
    42   23   39 1    
    43   23   40 1    
    44   24   41 1    
    45   24   42 1    
    46   25   26 1    
    47   26   43 1    
    48   26   44 1    
    49   26   45 1    
    50   27   28 1    
    51   28   29 1    
    52   28   46 1    
    53   28   47 1    
@<TRIPOS>SUBSTRUCTURE
     1 UNK         1 GROUP             0       ****    0 ROOT    
