ZINC39636389_5536
                    3D
 Schrodinger Suite 2024-2.
 73 77  0  0  1  0            999 V2000
    9.0419   55.3433   19.1166 C   0  0  0  0  0  0
    7.9630   54.9966   18.2527 O   0  0  0  0  0  0
    7.0936   55.9825   17.8178 C   0  0  0  0  0  0
    7.2007   57.3220   18.2244 C   0  0  0  0  0  0
    6.3034   58.2783   17.7614 C   0  0  0  0  0  0
    5.2924   57.9267   16.8750 C   0  0  0  0  0  0
    5.1732   56.6044   16.4583 C   0  0  0  0  0  0
    6.0566   55.6258   16.9324 C   0  0  0  0  0  0
    5.8395   54.1755   16.4948 C   0  0  0  0  0  0
    4.4723   53.5767   16.9189 C   0  0  0  0  0  0
    4.0553   53.9191   18.2843 N   0  0  0  0  0  0
    4.7035   53.5397   19.3971 C   0  0  0  0  0  0
    5.7499   52.8970   19.3565 O   0  0  0  0  0  0
    4.1335   54.0414   20.7419 C   0  0  2  0  0  0
    3.5044   54.8964   20.5294 H   0  0  0  0  0  0
    5.3352   54.5658   21.5663 C   0  0  0  0  0  0
    4.9848   54.2664   22.9533 N   0  0  0  0  0  0
    3.6908   53.5961   23.0451 C   0  0  0  0  0  0
    3.3798   53.0126   21.6551 C   0  0  0  0  0  0
    3.8584   51.5280   21.5979 C   0  0  0  0  0  0
    3.3944   50.7655   20.3230 C   0  0  0  0  0  0
    1.8835   50.9328   20.0669 N   0  3  0  0  0  0
    1.3838   52.3826   20.1726 C   0  0  0  0  0  0
    1.8360   52.9057   21.5392 C   0  0  0  0  0  0
    5.8083   54.6224   23.9766 C   0  0  0  0  0  0
    6.8984   55.1499   23.7676 O   0  0  0  0  0  0
    5.4003   54.3889   25.4121 C   0  0  0  0  0  0
    6.3721   54.0957   26.3808 C   0  0  0  0  0  0
    5.9924   53.8272   27.6958 C   0  0  0  0  0  0
    4.6390   53.8809   28.0211 C   0  0  0  0  0  0
    3.6867   54.2303   27.1126 N   0  0  0  0  0  0
    4.0750   54.4981   25.8498 C   0  0  0  0  0  0
    4.2487   53.5701   29.3068 O   0  0  0  0  0  0
    2.9583   53.7705   29.7438 C   0  0  0  0  0  0
    2.2824   52.7016   30.3310 C   0  0  0  0  0  0
    1.0194   52.8983   30.8823 C   0  0  0  0  0  0
    0.4497   54.1683   30.8483 C   0  0  0  0  0  0
    1.1047   55.2359   30.2385 C   0  0  0  0  0  0
    2.3620   55.0355   29.6818 C   0  0  0  0  0  0
    9.6702   54.4724   19.2811 H   0  0  0  0  0  0
    9.6792   56.1131   18.6807 H   0  0  0  0  0  0
    8.6806   55.6799   20.0884 H   0  0  0  0  0  0
    7.9783   57.6466   18.8971 H   0  0  0  0  0  0
    6.3958   59.2967   18.0920 H   0  0  0  0  0  0
    4.6049   58.6802   16.5149 H   0  0  0  0  0  0
    4.3798   56.3381   15.7761 H   0  0  0  0  0  0
    5.9518   54.1101   15.4124 H   0  0  0  0  0  0
    6.6301   53.5387   16.8950 H   0  0  0  0  0  0
    3.6864   53.9724   16.2755 H   0  0  0  0  0  0
    4.4920   52.4869   16.8306 H   0  0  0  0  0  0
    3.2419   54.5094   18.3762 H   0  0  0  0  0  0
    6.2635   54.0289   21.3781 H   0  0  0  0  0  0
    5.4731   55.6363   21.4063 H   0  0  0  0  0  0
    2.9662   54.3945   23.2117 H   0  0  0  0  0  0
    3.5473   52.8967   23.8640 H   0  0  0  0  0  0
    4.9444   51.4792   21.6960 H   0  0  0  0  0  0
    3.4697   50.9846   22.4636 H   0  0  0  0  0  0
    3.8777   51.0840   19.4056 H   0  0  0  0  0  0
    3.5044   49.6932   20.4087 H   0  0  0  0  0  0
    1.6676   50.5588   19.1519 H   0  0  0  0  0  0
    1.7947   52.9297   19.3258 H   0  0  0  0  0  0
    0.2989   52.3412   20.0768 H   0  0  0  0  0  0
    1.4232   52.2880   22.3401 H   0  0  0  0  0  0
    1.3820   53.8781   21.7031 H   0  0  0  0  0  0
    7.4167   54.0384   26.1166 H   0  0  0  0  0  0
    6.7274   53.5677   28.4439 H   0  0  0  0  0  0
    3.2735   54.8310   25.2115 H   0  0  0  0  0  0
    2.7519   51.7327   30.3750 H   0  0  0  0  0  0
    0.4920   52.0883   31.3675 H   0  0  0  0  0  0
   -0.4955   54.3309   31.3319 H   0  0  0  0  0  0
    0.6641   56.2214   30.2289 H   0  0  0  0  0  0
    2.8924   55.8674   29.2433 H   0  0  0  0  0  0
    1.3827   50.3652   20.7369 H   0  0  0  0  0  0
  1  2  1  0  0  0
  1 40  1  0  0  0
  1 41  1  0  0  0
  1 42  1  0  0  0
  2  3  1  0  0  0
  3  8  2  0  0  0
  3  4  1  0  0  0
  4  5  2  0  0  0
  4 43  1  0  0  0
  5  6  1  0  0  0
  5 44  1  0  0  0
  6  7  2  0  0  0
  6 45  1  0  0  0
  7  8  1  0  0  0
  7 46  1  0  0  0
  8  9  1  0  0  0
  9 10  1  0  0  0
  9 47  1  0  0  0
  9 48  1  0  0  0
 10 11  1  0  0  0
 10 49  1  0  0  0
 10 50  1  0  0  0
 11 12  1  0  0  0
 11 51  1  0  0  0
 12 13  2  0  0  0
 12 14  1  0  0  0
 14 15  1  0  0  0
 14 19  1  0  0  0
 14 16  1  0  0  0
 16 17  1  0  0  0
 16 52  1  0  0  0
 16 53  1  0  0  0
 17 18  1  0  0  0
 17 25  1  0  0  0
 18 19  1  0  0  0
 18 54  1  0  0  0
 18 55  1  0  0  0
 19 24  1  0  0  0
 19 20  1  0  0  0
 20 21  1  0  0  0
 20 56  1  0  0  0
 20 57  1  0  0  0
 21 22  1  0  0  0
 21 58  1  0  0  0
 21 59  1  0  0  0
 22 23  1  0  0  0
 22 60  1  0  0  0
 22 73  1  0  0  0
 23 24  1  0  0  0
 23 61  1  0  0  0
 23 62  1  0  0  0
 24 63  1  0  0  0
 24 64  1  0  0  0
 25 26  2  0  0  0
 25 27  1  0  0  0
 27 32  2  0  0  0
 27 28  1  0  0  0
 28 29  2  0  0  0
 28 65  1  0  0  0
 29 30  1  0  0  0
 29 66  1  0  0  0
 30 31  2  0  0  0
 30 33  1  0  0  0
 31 32  1  0  0  0
 32 67  1  0  0  0
 33 34  1  0  0  0
 34 39  2  0  0  0
 34 35  1  0  0  0
 35 36  2  0  0  0
 35 68  1  0  0  0
 36 37  1  0  0  0
 36 69  1  0  0  0
 37 38  2  0  0  0
 37 70  1  0  0  0
 38 39  1  0  0  0
 38 71  1  0  0  0
 39 72  1  0  0  0
M  CHG  1  22   1
M  END
> <i_i_glide_confnum>
323

> <i_i_glide_lignum>
5537

> <i_i_glide_posenum>
389

> <i_i_glide_rotatable_bonds>
10

> <i_m_Source_File_Index>
4304

> <b_m_subgroup_collapsed>
0

> <r_i_docking_score>
-5.34237

> <r_i_glide_ecoul>
-2.4498

> <r_i_glide_eff_state_penalty>
0

> <r_i_glide_einternal>
3.24077

> <r_i_glide_emodel>
-64.7146

> <r_i_glide_energy>
-49.4646

> <r_i_glide_erotb>
0.694642

> <r_i_glide_esite>
-0.0669821

> <r_i_glide_evdw>
-47.0148

> <r_i_glide_gscore>
-5.34237

> <r_i_glide_hbond>
0

> <r_i_glide_ligand_efficiency>
-0.140589

> <r_i_glide_ligand_efficiency_ln>
-1.15197

> <r_i_glide_ligand_efficiency_sa>
-0.472656

> <r_i_glide_lipo>
-2.48657

> <r_i_glide_metal>
0

> <r_i_glide_rewards>
-0.765252

> <s_i_glide_gridfile>
wee1_glide-grid

> <s_m_Source_File>
wee1_decoys_glide_SP.sdf

> <s_m_Source_Path>
/Users/zhangxujun/Desktop

> <s_m_entry_id>
4579

> <s_m_entry_name>
wee1_decoys_glide_SP.4304

> <s_m_subgroup_title>
wee1_decoys_glide_SP

> <s_m_subgroupid>
wee1_decoys_glide_SP


$$$$
