@<TRIPOS>MOLECULE
ZINC32962147_5823
56   59    1
SMALL
USER_CHARGES


@<TRIPOS>ATOM
      1 C1         -0.2701   48.3717   23.9640 C.ar      1 UNK         0.0000 
      2 C2          0.5160   49.4750   23.6551 C.ar      1 UNK         0.0000 
      3 C3          0.1176   50.4095   22.6963 C.ar      1 UNK         0.0000 
      4 C4         -1.1099   50.1995   22.0131 C.ar      1 UNK         0.0000 
      5 C5         -1.8653   49.0493   22.3288 C.ar      1 UNK         0.0000 
      6 C6         -1.4714   48.1178   23.3058 C.ar      1 UNK         0.0000 
      7 N7         -2.1259   46.9642   23.6741 N.2       1 UNK         0.0000 
      8 S8         -3.4895   46.4226   23.1171 S.o2      1 UNK         0.0000 
      9 O9         -4.0958   45.4417   24.0261 O.2       1 UNK         0.0000 
     10 O10        -4.3905   47.4202   22.5331 O.2       1 UNK         0.0000 
     11 C11        -3.0238   45.3980   21.6961 C.2       1 UNK         0.0000 
     12 C12        -1.9161   45.5742   20.8739 C.2       1 UNK         0.0000 
     13 C13        -1.8334   44.6068   19.8660 C.2       1 UNK         0.0000 
     14 C14        -2.8817   43.6954   19.9118 C.2       1 UNK         0.0000 
     15 S15        -3.9893   44.0437   21.1989 S.3       1 UNK         0.0000 
     16 Cl16       -3.1556   42.3497   18.8767 Cl        1 UNK         0.0000 
     17 C17        -1.6570   51.1403   20.9718 C.2       1 UNK         0.0000 
     18 O18        -0.8698   51.7209   20.1940 O.co2     1 UNK         0.0000 
     19 O19        -2.8948   51.3006   20.9340 O.co2     1 UNK         0.0000 
     20 N20         0.9987   51.4748   22.5385 N.pl3     1 UNK         0.0000 
     21 C21         1.9586   51.5061   21.4274 C.3       1 UNK         0.0000 
     22 C22         3.2075   52.3344   21.8048 C.3       1 UNK         0.0000 
     23 C23         2.9262   53.7035   22.4907 C.3       1 UNK         0.0000 
     24 C24         1.6672   53.6644   23.3925 C.3       1 UNK         0.0000 
     25 C25         0.5431   52.8472   22.7604 C.3       1 UNK         0.0000 
     26 N26         4.1654   54.3010   23.2337 N.4       1 UNK         0.0000 
     27 C27         4.1816   54.0974   24.7754 C.3       1 UNK         0.0000 
     28 C28         5.3974   54.7927   25.3998 C.3       1 UNK         0.0000 
     29 C29         6.7040   54.3727   24.7320 C.3       1 UNK         0.0000 
     30 C30         6.6696   54.6764   23.2281 C.3       1 UNK         0.0000 
     31 C31         5.5072   53.9644   22.5270 C.3       1 UNK         0.0000 
     32 H32         0.0832   47.6910   24.7267 H         1 UNK         0.0000 
     33 H33         1.4465   49.6073   24.1897 H         1 UNK         0.0000 
     34 H34        -2.7806   48.8912   21.7822 H         1 UNK         0.0000 
     35 H35        -1.1935   46.3661   21.0080 H         1 UNK         0.0000 
     36 H36        -1.0400   44.5759   19.1334 H         1 UNK         0.0000 
     37 H37         1.5066   51.8815   20.5091 H         1 UNK         0.0000 
     38 H38         2.2773   50.4831   21.2214 H         1 UNK         0.0000 
     39 H39         3.8726   52.4503   20.9476 H         1 UNK         0.0000 
     40 H40         3.7520   51.6965   22.4817 H         1 UNK         0.0000 
     41 H41         2.6999   54.3943   21.6827 H         1 UNK         0.0000 
     42 H42         1.8685   53.1655   24.3394 H         1 UNK         0.0000 
     43 H43         1.3495   54.6728   23.6601 H         1 UNK         0.0000 
     44 H44         0.3052   53.2958   21.7970 H         1 UNK         0.0000 
     45 H45        -0.3484   52.8750   23.3910 H         1 UNK         0.0000 
     46 H46         4.1344   53.0296   24.9791 H         1 UNK         0.0000 
     47 H47         3.2968   54.5948   25.1755 H         1 UNK         0.0000 
     48 H48         5.4395   54.5621   26.4677 H         1 UNK         0.0000 
     49 H49         5.2771   55.8748   25.3302 H         1 UNK         0.0000 
     50 H50         7.5201   54.9127   25.1983 H         1 UNK         0.0000 
     51 H51         6.8939   53.3081   24.8991 H         1 UNK         0.0000 
     52 H52         6.6112   55.7545   23.0619 H         1 UNK         0.0000 
     53 H53         7.6073   54.3543   22.7720 H         1 UNK         0.0000 
     54 H54         5.6457   52.8835   22.5465 H         1 UNK         0.0000 
     55 H55         5.4131   54.3193   21.5002 H         1 UNK         0.0000 
     56 H56         4.0763   55.3013   23.1310 H         1 UNK         0.0000 
@<TRIPOS>BOND
     1    1    6 ar   
     2    1    2 ar   
     3    1   32 1    
     4    2    3 ar   
     5    2   33 1    
     6    3    4 ar   
     7    3   20 1    
     8    4    5 ar   
     9    4   17 1    
    10    5    6 ar   
    11    5   34 1    
    12    6    7 1    
    13    7    8 1    
    14    8    9 2    
    15    8   10 2    
    16    8   11 1    
    17   11   15 1    
    18   11   12 2    
    19   12   13 1    
    20   12   35 1    
    21   13   14 2    
    22   13   36 1    
    23   14   15 1    
    24   14   16 1    
    25   17   18 2    
    26   17   19 1    
    27   20   25 1    
    28   20   21 1    
    29   21   22 1    
    30   21   37 1    
    31   21   38 1    
    32   22   23 1    
    33   22   39 1    
    34   22   40 1    
    35   23   24 1    
    36   23   26 1    
    37   23   41 1    
    38   24   25 1    
    39   24   42 1    
    40   24   43 1    
    41   25   44 1    
    42   25   45 1    
    43   26   31 1    
    44   26   27 1    
    45   26   56 1    
    46   27   28 1    
    47   27   46 1    
    48   27   47 1    
    49   28   29 1    
    50   28   48 1    
    51   28   49 1    
    52   29   30 1    
    53   29   50 1    
    54   29   51 1    
    55   30   31 1    
    56   30   52 1    
    57   30   53 1    
    58   31   54 1    
    59   31   55 1    
@<TRIPOS>SUBSTRUCTURE
     1 UNK         1 GROUP             0       ****    0 ROOT    
