ZINC08557885_2826
                    3D
 Schrodinger Suite 2024-2.
 59 64  0  0  1  0            999 V2000
    0.3036   52.7936   31.1361 C   0  0  0  0  0  0
    0.7059   52.8710   29.6755 C   0  0  0  0  0  0
    1.2993   54.0282   29.1756 C   0  0  0  0  0  0
    1.6541   54.0968   27.8313 C   0  0  0  0  0  0
    1.4164   53.0184   26.9676 C   0  0  0  0  0  0
    0.8341   51.8609   27.4872 C   0  0  0  0  0  0
    0.4666   51.7906   28.8278 C   0  0  0  0  0  0
    1.7764   53.1446   25.5148 C   0  0  0  0  0  0
    1.2792   52.6328   24.2957 C   0  0  0  0  0  0
    2.1669   53.1656   23.3373 C   0  0  0  0  0  0
    3.1266   53.9004   23.8298 N   0  0  0  0  0  0
    2.8846   53.8685   25.1370 N   0  0  0  0  0  0
    3.4956   54.3348   25.7915 H   0  0  0  0  0  0
    2.1028   52.9641   21.9819 O   0  0  0  0  0  0
    0.9524   52.3982   21.5355 C   0  0  0  0  0  0
   -0.0294   51.8611   22.2979 C   0  0  0  0  0  0
    0.1193   51.7131   23.8293 C   0  0  2  0  0  0
   -1.1626   51.8518   24.5935 C   0  0  0  0  0  0
   -2.0788   52.8963   24.6666 C   0  0  0  0  0  0
   -3.1905   52.7910   25.5054 C   0  0  0  0  0  0
   -3.3799   51.6368   26.2683 C   0  0  0  0  0  0
   -2.4827   50.5729   26.1606 C   0  0  0  0  0  0
   -1.3974   50.6772   25.2847 C   0  0  0  0  0  0
   -0.4067   49.7464   24.9604 N   0  0  0  0  0  0
    0.5186   50.2575   24.1085 C   0  0  0  0  0  0
    1.5035   49.6967   23.6255 O   0  0  0  0  0  0
   -0.2978   48.3607   25.4305 C   0  0  0  0  0  0
   -1.5363   47.4515   25.2279 C   0  0  0  0  0  0
   -2.1052   47.2971   23.8167 C   0  0  0  0  0  0
   -3.3855   46.7514   23.6821 C   0  0  0  0  0  0
   -3.9502   46.5832   22.4205 C   0  0  0  0  0  0
   -3.2319   46.9613   21.2890 C   0  0  0  0  0  0
   -1.9556   47.5048   21.4094 C   0  0  0  0  0  0
   -1.3927   47.6725   22.6715 C   0  0  0  0  0  0
   -1.2124   51.3821   21.6531 C   0  0  0  0  0  0
   -2.1776   51.0554   21.1055 N   0  0  0  0  0  0
    0.9606   52.4963   20.1721 N   0  0  0  0  0  0
   -0.4954   52.0667   31.2814 H   0  0  0  0  0  0
   -0.0814   53.7514   31.4865 H   0  0  0  0  0  0
    1.1516   52.5138   31.7612 H   0  0  0  0  0  0
    1.4810   54.8743   29.8221 H   0  0  0  0  0  0
    2.1081   55.0047   27.4676 H   0  0  0  0  0  0
    0.6781   50.9985   26.8669 H   0  0  0  0  0  0
   -0.0038   50.8955   29.2055 H   0  0  0  0  0  0
   -1.9258   53.7890   24.0814 H   0  0  0  0  0  0
   -3.8947   53.6066   25.5751 H   0  0  0  0  0  0
   -4.2247   51.5608   26.9369 H   0  0  0  0  0  0
   -2.6416   49.6967   26.7701 H   0  0  0  0  0  0
    0.5842   47.8569   25.0297 H   0  0  0  0  0  0
   -0.0953   48.4098   26.4996 H   0  0  0  0  0  0
   -1.2953   46.4590   25.6082 H   0  0  0  0  0  0
   -2.3325   47.7869   25.8893 H   0  0  0  0  0  0
   -3.9514   46.4700   24.5585 H   0  0  0  0  0  0
   -4.9440   46.1715   22.3203 H   0  0  0  0  0  0
   -3.6707   46.8402   20.3094 H   0  0  0  0  0  0
   -1.4066   47.8047   20.5287 H   0  0  0  0  0  0
   -0.4043   48.0961   22.7399 H   0  0  0  0  0  0
    0.2944   51.9951   19.6040 H   0  0  0  0  0  0
    1.4996   53.2307   19.7315 H   0  0  0  0  0  0
  1  2  1  0  0  0
  1 38  1  0  0  0
  1 39  1  0  0  0
  1 40  1  0  0  0
  2  7  2  0  0  0
  2  3  1  0  0  0
  3  4  2  0  0  0
  3 41  1  0  0  0
  4  5  1  0  0  0
  4 42  1  0  0  0
  5  6  2  0  0  0
  5  8  1  0  0  0
  6  7  1  0  0  0
  6 43  1  0  0  0
  7 44  1  0  0  0
  8 12  1  0  0  0
  8  9  2  0  0  0
  9 17  1  0  0  0
  9 10  1  0  0  0
 10 11  2  0  0  0
 10 14  1  0  0  0
 11 12  1  0  0  0
 12 13  1  0  0  0
 14 15  1  0  0  0
 15 16  2  0  0  0
 15 37  1  0  0  0
 16 17  1  0  0  0
 16 35  1  0  0  0
 17 25  1  0  0  0
 17 18  1  0  0  0
 18 23  2  0  0  0
 18 19  1  0  0  0
 19 20  2  0  0  0
 19 45  1  0  0  0
 20 21  1  0  0  0
 20 46  1  0  0  0
 21 22  2  0  0  0
 21 47  1  0  0  0
 22 23  1  0  0  0
 22 48  1  0  0  0
 23 24  1  0  0  0
 24 25  1  0  0  0
 24 27  1  0  0  0
 25 26  2  0  0  0
 27 28  1  0  0  0
 27 49  1  0  0  0
 27 50  1  0  0  0
 28 29  1  0  0  0
 28 51  1  0  0  0
 28 52  1  0  0  0
 29 34  2  0  0  0
 29 30  1  0  0  0
 30 31  2  0  0  0
 30 53  1  0  0  0
 31 32  1  0  0  0
 31 54  1  0  0  0
 32 33  2  0  0  0
 32 55  1  0  0  0
 33 34  1  0  0  0
 33 56  1  0  0  0
 34 57  1  0  0  0
 35 36  3  0  0  0
 37 58  1  0  0  0
 37 59  1  0  0  0
M  END
> <i_i_glide_confnum>
19

> <i_i_glide_lignum>
2827

> <i_i_glide_posenum>
261

> <i_i_glide_rotatable_bonds>
5

> <i_m_Source_File_Index>
1300

> <b_m_subgroup_collapsed>
0

> <r_i_docking_score>
-4.40336

> <r_i_glide_ecoul>
-3.94327

> <r_i_glide_eff_state_penalty>
0

> <r_i_glide_einternal>
2.8146

> <r_i_glide_emodel>
-53.712

> <r_i_glide_energy>
-42.7935

> <r_i_glide_erotb>
0.360853

> <r_i_glide_esite>
-0.0786337

> <r_i_glide_evdw>
-38.8502

> <r_i_glide_gscore>
-4.40336

> <r_i_glide_hbond>
-0.17182

> <r_i_glide_ligand_efficiency>
-0.122316

> <r_i_glide_ligand_efficiency_ln>
-0.960695

> <r_i_glide_ligand_efficiency_sa>
-0.403877

> <r_i_glide_lipo>
-1.73213

> <r_i_glide_metal>
0

> <r_i_glide_rewards>
-0.247633

> <s_i_glide_gridfile>
wee1_glide-grid

> <s_m_Source_File>
wee1_decoys_glide_SP.sdf

> <s_m_Source_Path>
/Users/zhangxujun/Desktop

> <s_m_entry_id>
1575

> <s_m_entry_name>
wee1_decoys_glide_SP.1300

> <s_m_subgroup_title>
wee1_decoys_glide_SP

> <s_m_subgroupid>
wee1_decoys_glide_SP


$$$$
