@<TRIPOS>MOLECULE
ZINC16034506_2719
63   65    1
SMALL
USER_CHARGES


@<TRIPOS>ATOM
      1 C1         -2.2397   50.8593   26.3906 C.3       1 UNK         0.0000 
      2 C2         -1.0446   51.5275   25.6602 C.3       1 UNK         0.0000 
      3 C3         -1.6160   52.7255   24.8679 C.3       1 UNK         0.0000 
      4 C4         -0.1132   52.1033   26.7585 C.3       1 UNK         0.0000 
      5 C5         -0.2041   50.5539   24.7313 C.3       1 UNK         0.0000 
      6 H6          0.8120   50.9532   24.7199 H         1 UNK         0.0000 
      7 C7          0.0264   49.1322   25.3195 C.3       1 UNK         0.0000 
      8 C8         -1.1157   48.1823   24.9597 C.2       1 UNK         0.0000 
      9 C9         -2.0563   48.3970   24.0035 C.2       1 UNK         0.0000 
     10 C10        -2.0096   49.6608   23.1274 C.3       1 UNK         0.0000 
     11 H11        -2.7610   50.3329   23.5360 H         1 UNK         0.0000 
     12 C12        -0.6465   50.3844   23.2563 C.3       1 UNK         0.0000 
     13 C13        -2.4905   49.3384   21.6809 C.3       1 UNK         0.0000 
     14 H14        -2.6369   50.2993   21.1844 H         1 UNK         0.0000 
     15 C15        -3.9212   48.6853   21.7076 C.3       1 UNK         0.0000 
     16 C16        -4.0323   47.5714   22.7695 C.2       1 UNK         0.0000 
     17 C17        -3.1799   47.4764   23.8191 C.2       1 UNK         0.0000 
     18 C18        -3.4432   46.4968   24.8287 C.1       1 UNK         0.0000 
     19 N19        -3.6930   45.6969   25.6268 N.1       1 UNK         0.0000 
     20 N20        -5.1331   46.7502   22.6340 N.pl3     1 UNK         0.0000 
     21 C21        -4.3094   48.2037   20.3655 C.1       1 UNK         0.0000 
     22 N22        -4.6157   47.8238   19.3159 N.1       1 UNK         0.0000 
     23 C23        -4.9163   49.6967   22.1089 C.1       1 UNK         0.0000 
     24 N24        -5.6990   50.4849   22.4302 N.1       1 UNK         0.0000 
     25 C25        -1.4322   48.6275   20.7962 C.ar      1 UNK         0.0000 
     26 C26        -1.4162   47.2315   20.6908 C.ar      1 UNK         0.0000 
     27 C27        -0.5131   46.5638   19.8496 C.ar      1 UNK         0.0000 
     28 C28         0.4356   47.3075   19.1377 C.ar      1 UNK         0.0000 
     29 C29         0.4426   48.7049   19.2594 C.ar      1 UNK         0.0000 
     30 C30        -0.4885   49.3767   20.0669 C.ar      1 UNK         0.0000 
     31 O31        -0.5228   50.7566   20.1861 O.3       1 UNK         0.0000 
     32 C32         0.4669   51.5529   19.5404 C.3       1 UNK         0.0000 
     33 O33         1.3238   46.6032   18.3428 O.3       1 UNK         0.0000 
     34 C34         2.3547   47.3000   17.6498 C.3       1 UNK         0.0000 
     35 O35        -0.4979   45.1886   19.6826 O.3       1 UNK         0.0000 
     36 C36        -1.4317   44.3842   20.3927 C.3       1 UNK         0.0000 
     37 H37        -2.7990   51.5802   26.9890 H         1 UNK         0.0000 
     38 H38        -1.9076   50.0967   27.0889 H         1 UNK         0.0000 
     39 H39        -2.9570   50.3989   25.7155 H         1 UNK         0.0000 
     40 H40        -0.8288   53.3682   24.4723 H         1 UNK         0.0000 
     41 H41        -2.2506   52.4286   24.0353 H         1 UNK         0.0000 
     42 H42        -2.2561   53.3173   25.5169 H         1 UNK         0.0000 
     43 H43         0.7262   52.6536   26.3318 H         1 UNK         0.0000 
     44 H44        -0.6429   52.7923   27.4184 H         1 UNK         0.0000 
     45 H45         0.3033   51.3167   27.3889 H         1 UNK         0.0000 
     46 H46         0.9547   48.7032   24.9400 H         1 UNK         0.0000 
     47 H47         0.1451   49.1697   26.4032 H         1 UNK         0.0000 
     48 H48        -1.1831   47.2926   25.5697 H         1 UNK         0.0000 
     49 H49        -0.6978   51.3523   22.7582 H         1 UNK         0.0000 
     50 H50         0.1236   49.8282   22.7200 H         1 UNK         0.0000 
     51 H51        -5.7945   46.8699   21.8787 H         1 UNK         0.0000 
     52 H52        -5.3587   46.0611   23.3379 H         1 UNK         0.0000 
     53 H53        -2.1331   46.6593   21.2528 H         1 UNK         0.0000 
     54 H54         1.1726   49.2739   18.7076 H         1 UNK         0.0000 
     55 H55         0.3034   52.6016   19.7878 H         1 UNK         0.0000 
     56 H56         1.4726   51.2916   19.8738 H         1 UNK         0.0000 
     57 H57         0.4125   51.4581   18.4552 H         1 UNK         0.0000 
     58 H58         2.9581   46.5907   17.0837 H         1 UNK         0.0000 
     59 H59         1.9475   48.0216   16.9402 H         1 UNK         0.0000 
     60 H60         3.0220   47.8124   18.3442 H         1 UNK         0.0000 
     61 H61        -1.2738   43.3382   20.1315 H         1 UNK         0.0000 
     62 H62        -1.2995   44.4783   21.4716 H         1 UNK         0.0000 
     63 H63        -2.4603   44.6376   20.1313 H         1 UNK         0.0000 
@<TRIPOS>BOND
     1    1    2 1    
     2    1   37 1    
     3    1   38 1    
     4    1   39 1    
     5    2    3 1    
     6    2    4 1    
     7    2    5 1    
     8    3   40 1    
     9    3   41 1    
    10    3   42 1    
    11    4   43 1    
    12    4   44 1    
    13    4   45 1    
    14    5    6 1    
    15    5   12 1    
    16    5    7 1    
    17    7    8 1    
    18    7   46 1    
    19    7   47 1    
    20    8    9 2    
    21    8   48 1    
    22    9   17 1    
    23    9   10 1    
    24   10   11 1    
    25   10   12 1    
    26   10   13 1    
    27   12   49 1    
    28   12   50 1    
    29   13   14 1    
    30   13   15 1    
    31   13   25 1    
    32   15   16 1    
    33   15   21 1    
    34   15   23 1    
    35   16   17 2    
    36   16   20 1    
    37   17   18 1    
    38   18   19 3    
    39   20   51 1    
    40   20   52 1    
    41   21   22 3    
    42   23   24 3    
    43   25   30 ar   
    44   25   26 ar   
    45   26   27 ar   
    46   26   53 1    
    47   27   28 ar   
    48   27   35 1    
    49   28   29 ar   
    50   28   33 1    
    51   29   30 ar   
    52   29   54 1    
    53   30   31 1    
    54   31   32 1    
    55   32   55 1    
    56   32   56 1    
    57   32   57 1    
    58   33   34 1    
    59   34   58 1    
    60   34   59 1    
    61   34   60 1    
    62   35   36 1    
    63   36   61 1    
    64   36   62 1    
    65   36   63 1    
@<TRIPOS>SUBSTRUCTURE
     1 UNK         1 GROUP             0       ****    0 ROOT    
