@<TRIPOS>MOLECULE
ZINC39666152_4899
74   76    1
SMALL
USER_CHARGES


@<TRIPOS>ATOM
      1 C1         -4.4976   49.5581   28.4731 C.3       1 UNK         0.0000 
      2 C2         -3.9159   50.0648   27.1470 C.3       1 UNK         0.0000 
      3 C3         -3.9343   51.5995   27.0324 C.3       1 UNK         0.0000 
      4 C4         -3.3083   52.1425   25.7316 C.3       1 UNK         0.0000 
      5 C5         -1.7856   51.9035   25.6237 C.3       1 UNK         0.0000 
      6 C6         -1.0854   52.6604   24.4689 C.3       1 UNK         0.0000 
      7 C7         -1.3275   52.0763   23.0592 C.2       1 UNK         0.0000 
      8 O8         -2.4897   51.9505   22.6685 O.2       1 UNK         0.0000 
      9 N9         -0.2748   51.7694   22.2588 N.am      1 UNK         0.0000 
     10 C10         1.1349   51.9075   22.6136 C.3       1 UNK         0.0000 
     11 C11         1.8873   51.1028   21.5243 C.3       1 UNK         0.0000 
     12 H12         1.9556   50.0869   21.9188 H         1 UNK         0.0000 
     13 C13         0.9457   51.1663   20.2703 C.3       1 UNK         0.0000 
     14 C14        -0.4484   51.1647   20.9398 C.3       1 UNK         0.0000 
     15 C15         1.0130   52.4378   19.3841 C.3       1 UNK         0.0000 
     16 C16         2.3376   52.6015   18.6038 C.3       1 UNK         0.0000 
     17 N17         2.6923   51.2959   17.8488 N.4       1 UNK         0.0000 
     18 C18         2.3286   49.9346   18.5026 C.3       1 UNK         0.0000 
     19 C19         0.9953   50.0080   19.2533 C.3       1 UNK         0.0000 
     20 C20         3.3651   51.5994   21.4420 C.2       1 UNK         0.0000 
     21 O21         4.1942   50.8967   20.8807 O.2       1 UNK         0.0000 
     22 N22         3.7724   52.7122   22.0791 N.am      1 UNK         0.0000 
     23 C23         5.1868   53.0496   22.3067 C.3       1 UNK         0.0000 
     24 C24         5.4169   54.5537   22.5142 C.3       1 UNK         0.0000 
     25 H25         4.5849   54.8963   23.1297 H         1 UNK         0.0000 
     26 C26         6.7020   54.8389   23.3178 C.3       1 UNK         0.0000 
     27 O27         5.3114   55.2896   21.2827 O.3       1 UNK         0.0000 
     28 C28         6.3058   55.1508   20.3439 C.ar      1 UNK         0.0000 
     29 C29         6.0949   54.3328   19.2332 C.ar      1 UNK         0.0000 
     30 C30         7.0985   54.1770   18.2815 C.ar      1 UNK         0.0000 
     31 C31         8.3128   54.8505   18.4372 C.ar      1 UNK         0.0000 
     32 C32         8.5113   55.6961   19.5295 C.ar      1 UNK         0.0000 
     33 C33         7.5044   55.8500   20.4765 C.ar      1 UNK         0.0000 
     34 C34         9.4234   54.6404   17.4253 C.3       1 UNK         0.0000 
     35 H35        -4.4642   48.4694   28.5176 H         1 UNK         0.0000 
     36 H36        -5.5351   49.8679   28.6025 H         1 UNK         0.0000 
     37 H37        -3.9235   49.9291   29.3231 H         1 UNK         0.0000 
     38 H38        -2.8948   49.6953   27.0585 H         1 UNK         0.0000 
     39 H39        -4.4690   49.6267   26.3149 H         1 UNK         0.0000 
     40 H40        -4.9665   51.9457   27.1007 H         1 UNK         0.0000 
     41 H41        -3.4187   52.0299   27.8913 H         1 UNK         0.0000 
     42 H42        -3.8245   51.7057   24.8771 H         1 UNK         0.0000 
     43 H43        -3.5020   53.2147   25.6802 H         1 UNK         0.0000 
     44 H44        -1.3265   52.2287   26.5591 H         1 UNK         0.0000 
     45 H45        -1.5689   50.8358   25.5531 H         1 UNK         0.0000 
     46 H46        -1.4064   53.6967   24.4586 H         1 UNK         0.0000 
     47 H47        -0.0230   52.6974   24.7019 H         1 UNK         0.0000 
     48 H48         1.3408   52.9745   22.5321 H         1 UNK         0.0000 
     49 H49         1.3760   51.5106   23.6009 H         1 UNK         0.0000 
     50 H50        -0.7377   50.1282   21.1245 H         1 UNK         0.0000 
     51 H51        -1.2357   51.5840   20.3109 H         1 UNK         0.0000 
     52 H52         0.1800   52.4720   18.6792 H         1 UNK         0.0000 
     53 H53         0.8569   53.2961   20.0253 H         1 UNK         0.0000 
     54 H54         2.2696   53.3829   17.8452 H         1 UNK         0.0000 
     55 H55         3.1946   52.8440   19.2228 H         1 UNK         0.0000 
     56 H56         2.2635   51.3162   16.9338 H         1 UNK         0.0000 
     57 H57         2.2944   49.2072   17.6898 H         1 UNK         0.0000 
     58 H58         3.1612   49.6538   19.1415 H         1 UNK         0.0000 
     59 H59         0.8422   49.0594   19.7708 H         1 UNK         0.0000 
     60 H60         0.1711   50.0728   18.5405 H         1 UNK         0.0000 
     61 H61         3.0882   53.3044   22.5226 H         1 UNK         0.0000 
     62 H62         5.5070   52.5196   23.2012 H         1 UNK         0.0000 
     63 H63         5.8513   52.6815   21.5215 H         1 UNK         0.0000 
     64 H64         6.6651   54.3659   24.2987 H         1 UNK         0.0000 
     65 H65         7.5852   54.4515   22.8124 H         1 UNK         0.0000 
     66 H66         6.8422   55.9069   23.4796 H         1 UNK         0.0000 
     67 H67         5.1643   53.8029   19.1238 H         1 UNK         0.0000 
     68 H68         6.9376   53.5214   17.4374 H         1 UNK         0.0000 
     69 H69         9.4496   56.2202   19.6560 H         1 UNK         0.0000 
     70 H70         7.6625   56.4951   21.3274 H         1 UNK         0.0000 
     71 H71         9.1278   55.0284   16.4494 H         1 UNK         0.0000 
     72 H72        10.3553   55.1193   17.7300 H         1 UNK         0.0000 
     73 H73         9.6230   53.5751   17.3080 H         1 UNK         0.0000 
     74 H74         3.6976   51.2460   17.6801 H         1 UNK         0.0000 
@<TRIPOS>BOND
     1    1    2 1    
     2    1   35 1    
     3    1   36 1    
     4    1   37 1    
     5    2    3 1    
     6    2   38 1    
     7    2   39 1    
     8    3    4 1    
     9    3   40 1    
    10    3   41 1    
    11    4    5 1    
    12    4   42 1    
    13    4   43 1    
    14    5    6 1    
    15    5   44 1    
    16    5   45 1    
    17    6    7 1    
    18    6   46 1    
    19    6   47 1    
    20    7    8 2    
    21    7    9 am   BACKBONE|DICT|INTERRES
    22    9   14 1    
    23    9   10 1    
    24   10   11 1    
    25   10   48 1    
    26   10   49 1    
    27   11   12 1    
    28   11   13 1    
    29   11   20 1    
    30   13   19 1    
    31   13   14 1    
    32   13   15 1    
    33   14   50 1    
    34   14   51 1    
    35   15   16 1    
    36   15   52 1    
    37   15   53 1    
    38   16   17 1    
    39   16   54 1    
    40   16   55 1    
    41   17   18 1    
    42   17   56 1    
    43   17   74 1    
    44   18   19 1    
    45   18   57 1    
    46   18   58 1    
    47   19   59 1    
    48   19   60 1    
    49   20   21 2    
    50   20   22 am   BACKBONE|DICT|INTERRES
    51   22   23 1    
    52   22   61 1    
    53   23   24 1    
    54   23   62 1    
    55   23   63 1    
    56   24   25 1    
    57   24   26 1    
    58   24   27 1    
    59   26   64 1    
    60   26   65 1    
    61   26   66 1    
    62   27   28 1    
    63   28   33 ar   
    64   28   29 ar   
    65   29   30 ar   
    66   29   67 1    
    67   30   31 ar   
    68   30   68 1    
    69   31   32 ar   
    70   31   34 1    
    71   32   33 ar   
    72   32   69 1    
    73   33   70 1    
    74   34   71 1    
    75   34   72 1    
    76   34   73 1    
@<TRIPOS>SUBSTRUCTURE
     1 UNK         1 GROUP             0       ****    0 ROOT    
