ZINC40414856_1841
                    3D
 Schrodinger Suite 2024-2.
 34 36  0  0  1  0            999 V2000
    0.1074   53.7548   29.6746 C   0  0  0  0  0  0
    0.3712   52.3906   29.5360 C   0  0  0  0  0  0
    1.6773   51.9531   29.3085 C   0  0  0  0  0  0
    2.7097   52.8856   29.2268 C   0  0  0  0  0  0
    2.4359   54.2597   29.3474 C   0  0  0  0  0  0
    1.1328   54.6947   29.5696 C   0  0  0  0  0  0
    3.4172   55.2198   29.1972 O   0  0  0  0  0  0
    4.7311   54.7076   29.4285 C   0  0  0  0  0  0
    4.9478   53.3883   28.6456 C   0  0  1  0  0  0
    5.9360   52.9948   28.8793 H   0  0  0  0  0  0
    4.0015   52.4087   29.1011 O   0  0  0  0  0  0
    4.8331   53.5495   27.1184 C   0  0  0  0  0  0
    6.1506   54.4959   26.3054 S   0  0  0  0  0  0
    5.7369   54.5144   24.5873 C   0  0  0  0  0  0
    4.5024   54.0965   24.2059 N   0  0  0  0  0  0
    4.2498   54.0968   22.8722 C   0  0  0  0  0  0
    5.1975   54.4916   21.9272 C   0  0  0  0  0  0
    6.4297   54.9165   22.4258 C   0  0  0  0  0  0
    6.7047   54.9475   23.7516 N   0  0  0  0  0  0
    7.4269   55.3658   21.5685 N   0  0  0  0  0  0
    2.9803   53.7068   22.4671 N   0  0  0  0  0  0
   -0.8953   54.0911   29.8656 H   0  0  0  0  0  0
   -0.4328   51.6719   29.6178 H   0  0  0  0  0  0
    1.8827   50.8973   29.2113 H   0  0  0  0  0  0
    0.9243   55.7485   29.6707 H   0  0  0  0  0  0
    4.7939   54.4976   30.4935 H   0  0  0  0  0  0
    5.5042   55.4379   29.1859 H   0  0  0  0  0  0
    3.8716   53.9913   26.8579 H   0  0  0  0  0  0
    4.8421   52.5545   26.6781 H   0  0  0  0  0  0
    4.9835   54.4861   20.8690 H   0  0  0  0  0  0
    7.3059   55.2948   20.5697 H   0  0  0  0  0  0
    8.3110   55.6305   21.9817 H   0  0  0  0  0  0
    2.7158   53.8005   21.4951 H   0  0  0  0  0  0
    2.3051   53.4521   23.1705 H   0  0  0  0  0  0
  1  6  2  0  0  0
  1  2  1  0  0  0
  1 22  1  0  0  0
  2  3  2  0  0  0
  2 23  1  0  0  0
  3  4  1  0  0  0
  3 24  1  0  0  0
  4 11  1  0  0  0
  4  5  2  0  0  0
  5  6  1  0  0  0
  5  7  1  0  0  0
  6 25  1  0  0  0
  7  8  1  0  0  0
  8  9  1  0  0  0
  8 26  1  0  0  0
  8 27  1  0  0  0
  9 10  1  0  0  0
  9 11  1  0  0  0
  9 12  1  0  0  0
 12 13  1  0  0  0
 12 28  1  0  0  0
 12 29  1  0  0  0
 13 14  1  0  0  0
 14 19  2  0  0  0
 14 15  1  0  0  0
 15 16  2  0  0  0
 16 17  1  0  0  0
 16 21  1  0  0  0
 17 18  2  0  0  0
 17 30  1  0  0  0
 18 19  1  0  0  0
 18 20  1  0  0  0
 20 31  1  0  0  0
 20 32  1  0  0  0
 21 33  1  0  0  0
 21 34  1  0  0  0
M  END
> <i_i_glide_confnum>
27

> <i_i_glide_lignum>
1842

> <i_i_glide_posenum>
347

> <i_i_glide_rotatable_bonds>
3

> <i_m_Source_File_Index>
5158

> <b_m_subgroup_collapsed>
0

> <r_i_docking_score>
-6.31408

> <r_i_glide_ecoul>
-4.38091

> <r_i_glide_eff_state_penalty>
0

> <r_i_glide_einternal>
2.56765

> <r_i_glide_emodel>
-57.2175

> <r_i_glide_energy>
-41.7398

> <r_i_glide_erotb>
0.648534

> <r_i_glide_esite>
0

> <r_i_glide_evdw>
-37.3589

> <r_i_glide_gscore>
-6.31408

> <r_i_glide_hbond>
-0.169251

> <r_i_glide_ligand_efficiency>
-0.315704

> <r_i_glide_ligand_efficiency_ln>
-1.58021

> <r_i_glide_ligand_efficiency_sa>
-0.856953

> <r_i_glide_lipo>
-2.35139

> <r_i_glide_metal>
0

> <r_i_glide_rewards>
-1.91689

> <s_i_glide_gridfile>
wee1_glide-grid

> <s_m_Source_File>
wee1_decoys_glide_SP.sdf

> <s_m_Source_Path>
/Users/zhangxujun/Desktop

> <s_m_entry_id>
5433

> <s_m_entry_name>
wee1_decoys_glide_SP.5158

> <s_m_subgroup_title>
wee1_decoys_glide_SP

> <s_m_subgroupid>
wee1_decoys_glide_SP


$$$$
