ZINC63236996_3498
                    3D
 Schrodinger Suite 2024-2.
 60 65  0  0  1  0            999 V2000
    0.2747   52.5440   17.6268 C   0  0  0  0  0  0
    1.0535   53.3843   16.8370 C   0  0  0  0  0  0
    2.3753   53.6357   17.1934 C   0  0  0  0  0  0
    2.9278   53.0485   18.3347 C   0  0  0  0  0  0
    2.1505   52.1929   19.1463 C   0  0  0  0  0  0
    0.8167   51.9528   18.7671 C   0  0  0  0  0  0
    2.7495   51.5432   20.4108 C   0  0  2  0  0  0
    3.7815   51.3128   20.1392 H   0  0  0  0  0  0
    2.1301   50.1797   20.8456 C   0  0  0  0  0  0
    0.8552   50.2880   21.5736 N   0  0  0  0  0  0
    0.8895   51.1718   22.7438 C   0  0  1  0  0  0
    1.5976   50.7252   23.4470 H   0  0  0  0  0  0
    1.4102   52.5890   22.3607 C   0  0  2  0  0  0
    0.6988   53.1463   21.7520 H   0  0  0  0  0  0
    2.7250   52.4649   21.6275 C   0  0  0  0  0  0
    3.6679   53.1361   22.3061 C   0  0  0  0  0  0
    5.1047   53.2829   22.0753 C   0  0  0  0  0  0
    5.8855   53.9434   22.9566 C   0  0  0  0  0  0
    5.2512   54.4964   24.1425 C   0  0  0  0  0  0
    3.9136   54.3886   24.3628 C   0  0  0  0  0  0
    3.1014   53.7014   23.4520 C   0  0  0  0  0  0
    1.8140   53.4445   23.5015 N   0  3  0  0  0  0
   -0.4417   51.1604   23.5086 C   0  0  0  0  0  0
   -1.2314   52.3119   23.6889 C   0  0  0  0  0  0
   -2.4260   52.2488   24.4065 C   0  0  0  0  0  0
   -2.8521   51.0382   24.9509 C   0  0  0  0  0  0
   -2.0857   49.8871   24.7686 C   0  0  0  0  0  0
   -0.8804   49.9485   24.0634 C   0  0  0  0  0  0
   -2.5418   48.6785   25.2950 N   0  0  0  0  0  0
   -3.2965   47.8057   24.5916 C   0  0  0  0  0  0
   -3.4916   47.9164   23.3742 O   0  0  0  0  0  0
   -3.9538   46.6830   25.3708 C   0  0  0  0  0  0
   -4.8868   45.8487   24.7378 C   0  0  0  0  0  0
   -5.5313   44.8341   25.4436 C   0  0  0  0  0  0
   -5.2511   44.6463   26.7938 C   0  0  0  0  0  0
   -4.3304   45.4649   27.4337 C   0  0  0  0  0  0
   -3.6779   46.4704   26.7309 C   0  0  0  0  0  0
   -6.0381   43.3875   27.6768 Cl  0  0  0  0  0  0
    4.5754   53.4247   18.7025 Cl  0  0  0  0  0  0
   -0.7503   52.3443   17.3502 H   0  0  0  0  0  0
    0.6372   53.8389   15.9492 H   0  0  0  0  0  0
    2.9814   54.2856   16.5782 H   0  0  0  0  0  0
    0.1709   51.3041   19.3360 H   0  0  0  0  0  0
    2.0052   49.5378   19.9699 H   0  0  0  0  0  0
    2.8456   49.6857   21.5059 H   0  0  0  0  0  0
    0.0818   50.5133   20.9665 H   0  0  0  0  0  0
    5.5614   52.8669   21.1897 H   0  0  0  0  0  0
    6.9470   54.0631   22.7916 H   0  0  0  0  0  0
    5.8619   55.0204   24.8671 H   0  0  0  0  0  0
    3.4973   54.8269   25.2583 H   0  0  0  0  0  0
   -0.9411   53.2727   23.2887 H   0  0  0  0  0  0
   -3.0240   53.1374   24.5432 H   0  0  0  0  0  0
   -3.7840   50.9917   25.4976 H   0  0  0  0  0  0
   -0.2856   49.0552   23.9358 H   0  0  0  0  0  0
   -2.3755   48.5139   26.2825 H   0  0  0  0  0  0
   -5.1345   45.9873   23.6941 H   0  0  0  0  0  0
   -6.2542   44.2038   24.9508 H   0  0  0  0  0  0
   -4.0888   45.2988   28.4726 H   0  0  0  0  0  0
   -2.9648   47.0724   27.2732 H   0  0  0  0  0  0
    1.1873   53.7316   24.2484 H   0  0  0  0  0  0
  1  6  2  0  0  0
  1  2  1  0  0  0
  1 40  1  0  0  0
  2  3  2  0  0  0
  2 41  1  0  0  0
  3  4  1  0  0  0
  3 42  1  0  0  0
  4  5  2  0  0  0
  4 39  1  0  0  0
  5  6  1  0  0  0
  5  7  1  0  0  0
  6 43  1  0  0  0
  7  8  1  0  0  0
  7 15  1  0  0  0
  7  9  1  0  0  0
  9 10  1  0  0  0
  9 44  1  0  0  0
  9 45  1  0  0  0
 10 11  1  0  0  0
 10 46  1  0  0  0
 11 12  1  0  0  0
 11 13  1  0  0  0
 11 23  1  0  0  0
 13 14  1  0  0  0
 13 22  1  0  0  0
 13 15  1  0  0  0
 15 16  2  0  0  0
 16 21  1  0  0  0
 16 17  1  0  0  0
 17 18  2  0  0  0
 17 47  1  0  0  0
 18 19  1  0  0  0
 18 48  1  0  0  0
 19 20  2  0  0  0
 19 49  1  0  0  0
 20 21  1  0  0  0
 20 50  1  0  0  0
 21 22  2  0  0  0
 22 60  1  0  0  0
 23 28  2  0  0  0
 23 24  1  0  0  0
 24 25  2  0  0  0
 24 51  1  0  0  0
 25 26  1  0  0  0
 25 52  1  0  0  0
 26 27  2  0  0  0
 26 53  1  0  0  0
 27 28  1  0  0  0
 27 29  1  0  0  0
 28 54  1  0  0  0
 29 30  1  0  0  0
 29 55  1  0  0  0
 30 31  2  0  0  0
 30 32  1  0  0  0
 32 37  2  0  0  0
 32 33  1  0  0  0
 33 34  2  0  0  0
 33 56  1  0  0  0
 34 35  1  0  0  0
 34 57  1  0  0  0
 35 36  2  0  0  0
 35 38  1  0  0  0
 36 37  1  0  0  0
 36 58  1  0  0  0
 37 59  1  0  0  0
M  CHG  1  22   1
M  END
> <i_i_glide_confnum>
110

> <i_i_glide_lignum>
3499

> <i_i_glide_posenum>
203

> <i_i_glide_rotatable_bonds>
5

> <i_m_Source_File_Index>
4233

> <b_m_subgroup_collapsed>
0

> <r_i_docking_score>
-1.34015

> <r_i_glide_ecoul>
-1.74642

> <r_i_glide_eff_state_penalty>
0

> <r_i_glide_einternal>
7.7996

> <r_i_glide_emodel>
-32.443

> <r_i_glide_energy>
-38.0212

> <r_i_glide_erotb>
0.388937

> <r_i_glide_esite>
-0.0951135

> <r_i_glide_evdw>
-36.2748

> <r_i_glide_gscore>
-1.34015

> <r_i_glide_hbond>
-0.0596882

> <r_i_glide_ligand_efficiency>
-0.0372263

> <r_i_glide_ligand_efficiency_ln>
-0.292384

> <r_i_glide_ligand_efficiency_sa>
-0.122919

> <r_i_glide_lipo>
-1.59259

> <r_i_glide_metal>
0

> <r_i_glide_rewards>
2.09401

> <s_i_glide_gridfile>
wee1_glide-grid

> <s_m_Source_File>
wee1_decoys_glide_SP.sdf

> <s_m_Source_Path>
/Users/zhangxujun/Desktop

> <s_m_entry_id>
4508

> <s_m_entry_name>
wee1_decoys_glide_SP.4233

> <s_m_subgroup_title>
wee1_decoys_glide_SP

> <s_m_subgroupid>
wee1_decoys_glide_SP


$$$$
