ZINC09324800_3106
                    3D
 Schrodinger Suite 2024-2.
 55 57  0  0  1  0            999 V2000
    1.1155   52.7064   26.8312 C   0  0  0  0  0  0
    2.2921   53.4124   27.2085 O   0  0  0  0  0  0
    3.2153   53.7588   26.2360 C   0  0  0  0  0  0
    2.9509   53.6968   24.8604 C   0  0  0  0  0  0
    3.9356   54.0272   23.9329 C   0  0  0  0  0  0
    5.2182   54.4138   24.3520 C   0  0  0  0  0  0
    5.4718   54.4961   25.7222 C   0  0  0  0  0  0
    4.4765   54.1873   26.6711 C   0  0  0  0  0  0
    4.6596   54.2762   28.0381 O   0  0  0  0  0  0
    5.9044   54.7257   28.5412 C   0  0  0  0  0  0
    6.2941   54.7258   23.4899 N   0  0  0  0  0  0
    6.2668   54.8967   22.1527 C   0  0  0  0  0  0
    5.2732   54.7308   21.4467 O   0  0  0  0  0  0
    7.4594   55.2993   21.6781 N   0  0  0  0  0  0
    7.6763   55.7488   20.3820 C   0  0  0  0  0  0
    8.8515   55.6976   19.8195 N   0  0  0  0  0  0
    8.8736   56.2966   18.5657 N   0  0  0  0  0  0
    7.7294   56.8338   18.2170 C   0  0  0  0  0  0
    6.4868   56.6003   19.4190 S   0  0  0  0  0  0
    7.4942   57.6660   16.6730 S   0  0  0  0  0  0
    5.9218   58.5651   16.9230 C   0  0  0  0  0  0
    4.6510   57.7687   16.5906 C   0  0  0  0  0  0
    4.6485   56.5396   16.6772 O   0  0  0  0  0  0
    3.5857   58.5083   16.2265 N   0  0  0  0  0  0
    2.2629   58.0971   15.9875 C   0  0  0  0  0  0
    1.4579   58.9937   15.2835 C   0  0  0  0  0  0
    0.1052   58.7225   15.0913 C   0  0  0  0  0  0
   -0.4672   57.5483   15.5995 C   0  0  0  0  0  0
    0.3532   56.6393   16.2861 C   0  0  0  0  0  0
    1.7053   56.9082   16.4808 C   0  0  0  0  0  0
   -1.9350   57.3088   15.4021 C   0  0  0  0  0  0
   -2.6801   58.1114   14.8316 O   0  0  0  0  0  0
   -2.3633   56.1252   15.9136 O   0  0  0  0  0  0
   -3.7134   55.7114   15.7468 C   0  0  0  0  0  0
    0.5245   52.4854   27.7200 H   0  0  0  0  0  0
    0.4939   53.2938   26.1575 H   0  0  0  0  0  0
    1.3597   51.7577   26.3501 H   0  0  0  0  0  0
    1.9897   53.3828   24.4859 H   0  0  0  0  0  0
    3.6646   53.9391   22.8941 H   0  0  0  0  0  0
    6.4548   54.7977   26.0462 H   0  0  0  0  0  0
    5.8228   54.8965   29.6135 H   0  0  0  0  0  0
    6.6851   53.9799   28.3790 H   0  0  0  0  0  0
    6.2174   55.6658   28.0817 H   0  0  0  0  0  0
    7.1751   54.8951   23.9489 H   0  0  0  0  0  0
    8.2653   55.2547   22.2895 H   0  0  0  0  0  0
    5.9610   59.4424   16.2768 H   0  0  0  0  0  0
    5.8612   58.9563   17.9376 H   0  0  0  0  0  0
    3.7551   59.4983   16.0905 H   0  0  0  0  0  0
    1.8676   59.9233   14.9125 H   0  0  0  0  0  0
   -0.4921   59.4472   14.5567 H   0  0  0  0  0  0
   -0.0447   55.7229   16.6982 H   0  0  0  0  0  0
    2.2912   56.2016   17.0492 H   0  0  0  0  0  0
   -3.8844   54.7754   16.2800 H   0  0  0  0  0  0
   -3.9413   55.5482   14.6915 H   0  0  0  0  0  0
   -4.4105   56.4562   16.1368 H   0  0  0  0  0  0
  1  2  1  0  0  0
  1 35  1  0  0  0
  1 36  1  0  0  0
  1 37  1  0  0  0
  2  3  1  0  0  0
  3  8  2  0  0  0
  3  4  1  0  0  0
  4  5  2  0  0  0
  4 38  1  0  0  0
  5  6  1  0  0  0
  5 39  1  0  0  0
  6  7  2  0  0  0
  6 11  1  0  0  0
  7  8  1  0  0  0
  7 40  1  0  0  0
  8  9  1  0  0  0
  9 10  1  0  0  0
 10 41  1  0  0  0
 10 42  1  0  0  0
 10 43  1  0  0  0
 11 12  1  0  0  0
 11 44  1  0  0  0
 12 13  2  0  0  0
 12 14  1  0  0  0
 14 15  1  0  0  0
 14 45  1  0  0  0
 15 19  1  0  0  0
 15 16  2  0  0  0
 16 17  1  0  0  0
 17 18  2  0  0  0
 18 19  1  0  0  0
 18 20  1  0  0  0
 20 21  1  0  0  0
 21 22  1  0  0  0
 21 46  1  0  0  0
 21 47  1  0  0  0
 22 23  2  0  0  0
 22 24  1  0  0  0
 24 25  1  0  0  0
 24 48  1  0  0  0
 25 30  2  0  0  0
 25 26  1  0  0  0
 26 27  2  0  0  0
 26 49  1  0  0  0
 27 28  1  0  0  0
 27 50  1  0  0  0
 28 29  2  0  0  0
 28 31  1  0  0  0
 29 30  1  0  0  0
 29 51  1  0  0  0
 30 52  1  0  0  0
 31 32  2  0  0  0
 31 33  1  0  0  0
 33 34  1  0  0  0
 34 53  1  0  0  0
 34 54  1  0  0  0
 34 55  1  0  0  0
M  END
> <i_i_glide_confnum>
286

> <i_i_glide_lignum>
3107

> <i_i_glide_posenum>
77

> <i_i_glide_rotatable_bonds>
13

> <i_m_Source_File_Index>
5111

> <b_m_subgroup_collapsed>
0

> <r_i_docking_score>
-4.77727

> <r_i_glide_ecoul>
-4.70525

> <r_i_glide_eff_state_penalty>
0

> <r_i_glide_einternal>
6.07351

> <r_i_glide_emodel>
-62.6765

> <r_i_glide_energy>
-48.0985

> <r_i_glide_erotb>
0.80613

> <r_i_glide_esite>
-0.100397

> <r_i_glide_evdw>
-43.3933

> <r_i_glide_gscore>
-4.77727

> <r_i_glide_hbond>
-0.398301

> <r_i_glide_ligand_efficiency>
-0.140508

> <r_i_glide_ligand_efficiency_ln>
-1.05543

> <r_i_glide_ligand_efficiency_sa>
-0.455191

> <r_i_glide_lipo>
-1.81659

> <r_i_glide_metal>
0

> <r_i_glide_rewards>
-0.39266

> <s_i_glide_gridfile>
wee1_glide-grid

> <s_m_Source_File>
wee1_decoys_glide_SP.sdf

> <s_m_Source_Path>
/Users/zhangxujun/Desktop

> <s_m_entry_id>
5386

> <s_m_entry_name>
wee1_decoys_glide_SP.5111

> <s_m_subgroup_title>
wee1_decoys_glide_SP

> <s_m_subgroupid>
wee1_decoys_glide_SP


$$$$
