@<TRIPOS>MOLECULE
ZINC16040838_1546
47   52    1
SMALL
USER_CHARGES


@<TRIPOS>ATOM
      1 C1          5.7301   54.5006   23.3706 C.ar      1 UNK         0.0000 
      2 C2          4.7183   54.4438   24.3239 C.ar      1 UNK         0.0000 
      3 C3          3.5044   53.8321   24.0107 C.ar      1 UNK         0.0000 
      4 C4          3.2820   53.2481   22.7543 C.ar      1 UNK         0.0000 
      5 C5          4.2978   53.3762   21.7827 C.ar      1 UNK         0.0000 
      6 C6          5.5046   54.0045   22.0909 C.ar      1 UNK         0.0000 
      7 C7          4.1167   52.7344   20.4733 C.2       1 UNK         0.0000 
      8 C8          3.1079   51.8790   20.2519 C.2       1 UNK         0.0000 
      9 N9          2.1857   51.5917   21.2416 N.pl3     1 UNK         0.0000 
     10 C10         1.9817   52.4695   22.4126 C.3       1 UNK         0.0000 
     11 H11         1.2195   53.2110   22.1662 H         1 UNK         0.0000 
     12 C12         1.4933   51.4404   23.4582 C.3       1 UNK         0.0000 
     13 H13         2.3037   51.0716   24.0817 H         1 UNK         0.0000 
     14 C14         0.8778   50.2975   22.7066 C.3       1 UNK         0.0000 
     15 H15         1.3835   49.3707   22.9880 H         1 UNK         0.0000 
     16 C16         1.1083   50.5996   21.1873 C.3       1 UNK         0.0000 
     17 H17         1.4733   49.6939   20.6978 H         1 UNK         0.0000 
     18 C18        -0.0950   51.1262   20.3501 C.2       1 UNK         0.0000 
     19 O19        -0.7589   52.0966   20.7154 O.2       1 UNK         0.0000 
     20 N20        -0.3876   50.4847   19.2169 N.am      1 UNK         0.0000 
     21 C21        -0.5590   50.2212   23.2318 C.2       1 UNK         0.0000 
     22 O22        -1.3793   49.3692   22.8836 O.2       1 UNK         0.0000 
     23 N23        -0.7256   51.2097   24.1495 N.am      1 UNK         0.0000 
     24 C24         0.3826   51.9683   24.3460 C.2       1 UNK         0.0000 
     25 O25         0.5165   52.8967   25.1397 O.2       1 UNK         0.0000 
     26 C26        -1.9235   51.4453   24.8420 C.ar      1 UNK         0.0000 
     27 C27        -2.2501   50.6688   25.9752 C.ar      1 UNK         0.0000 
     28 C28        -3.4040   50.9454   26.7207 C.ar      1 UNK         0.0000 
     29 C29        -4.2098   51.9972   26.2937 C.ar      1 UNK         0.0000 
     30 C30        -3.8984   52.7484   25.1931 C.ar      1 UNK         0.0000 
     31 C31        -2.7591   52.5031   24.4360 C.ar      1 UNK         0.0000 
     32 O32        -4.8256   53.7317   25.0413 O.3       1 UNK         0.0000 
     33 C33        -5.8588   53.4057   25.9340 C.3       1 UNK         0.0000 
     34 O34        -5.3455   52.4837   26.8592 O.3       1 UNK         0.0000 
     35 H35         6.6734   54.9695   23.6089 H         1 UNK         0.0000 
     36 H36         4.8746   54.8585   25.3084 H         1 UNK         0.0000 
     37 H37         2.7484   53.7863   24.7751 H         1 UNK         0.0000 
     38 H38         6.2800   54.0965   21.3456 H         1 UNK         0.0000 
     39 H39         4.8189   52.9259   19.6740 H         1 UNK         0.0000 
     40 H40         2.9992   51.3583   19.3093 H         1 UNK         0.0000 
     41 H41         0.1649   49.7009   18.8997 H         1 UNK         0.0000 
     42 H42        -1.1628   50.8087   18.6594 H         1 UNK         0.0000 
     43 H43        -1.6005   49.8653   26.2996 H         1 UNK         0.0000 
     44 H44        -3.6367   50.3578   27.5970 H         1 UNK         0.0000 
     45 H45        -2.5051   53.1179   23.5841 H         1 UNK         0.0000 
     46 H46        -6.6801   52.9422   25.3805 H         1 UNK         0.0000 
     47 H47        -6.2328   54.2942   26.4441 H         1 UNK         0.0000 
@<TRIPOS>BOND
     1    1    6 ar   
     2    1    2 ar   
     3    1   35 1    
     4    2    3 ar   
     5    2   36 1    
     6    3    4 ar   
     7    3   37 1    
     8    4   10 1    
     9    4    5 ar   
    10    5    6 ar   
    11    5    7 1    
    12    6   38 1    
    13    7    8 2    
    14    7   39 1    
    15    8    9 1    
    16    8   40 1    
    17    9   16 1    
    18    9   10 1    
    19   10   11 1    
    20   10   12 1    
    21   12   13 1    
    22   12   24 1    
    23   12   14 1    
    24   14   15 1    
    25   14   16 1    
    26   14   21 1    
    27   16   17 1    
    28   16   18 1    
    29   18   19 2    
    30   18   20 am   BACKBONE|DICT|INTERRES
    31   20   41 1    
    32   20   42 1    
    33   21   22 2    
    34   21   23 am   BACKBONE|DICT|INTERRES
    35   23   24 am   BACKBONE|DICT|INTERRES
    36   23   26 1    
    37   24   25 2    
    38   26   31 ar   
    39   26   27 ar   
    40   27   28 ar   
    41   27   43 1    
    42   28   29 ar   
    43   28   44 1    
    44   29   34 1    
    45   29   30 ar   
    46   30   31 ar   
    47   30   32 1    
    48   31   45 1    
    49   32   33 1    
    50   33   34 1    
    51   33   46 1    
    52   33   47 1    
@<TRIPOS>SUBSTRUCTURE
     1 UNK         1 GROUP             0       ****    0 ROOT    
