@<TRIPOS>MOLECULE
ZINC09598432_563
75   78    1
SMALL
USER_CHARGES


@<TRIPOS>ATOM
      1 C1          2.6505   52.4436   21.0787 C.3       1 UNK         0.0000 
      2 C2          3.7727   53.2964   20.5011 C.ar      1 UNK         0.0000 
      3 C3          3.8483   53.5122   19.1206 C.ar      1 UNK         0.0000 
      4 C4          4.8516   54.3153   18.5685 C.ar      1 UNK         0.0000 
      5 C5          5.7655   54.6934   20.7627 C.ar      1 UNK         0.0000 
      6 C6          4.7294   53.9148   21.3633 C.ar      1 UNK         0.0000 
      7 C7          4.7304   53.8043   22.7870 C.ar      1 UNK         0.0000 
      8 C8          5.7224   54.4212   23.5562 C.ar      1 UNK         0.0000 
      9 C9          6.7081   55.1843   22.9182 C.ar      1 UNK         0.0000 
     10 C10         6.7513   55.3237   21.5379 C.ar      1 UNK         0.0000 
     11 N11         5.7224   54.1815   24.9466 N.am      1 UNK         0.0000 
     12 C12         6.2733   54.9561   25.9089 C.2       1 UNK         0.0000 
     13 O13         6.7043   56.0827   25.6831 O.2       1 UNK         0.0000 
     14 C14         6.4104   54.4242   27.3520 C.3       1 UNK         0.0000 
     15 C15         5.6708   53.1059   27.7088 C.3       1 UNK         0.0000 
     16 C16         4.3317   53.3154   28.4176 C.2       1 UNK         0.0000 
     17 O17         4.3043   53.4361   29.6417 O.2       1 UNK         0.0000 
     18 N18         3.2330   53.3329   27.6434 N.am      1 UNK         0.0000 
     19 C19         1.8525   53.5671   28.0791 C.3       1 UNK         0.0000 
     20 C20         1.3111   52.4780   29.0482 C.3       1 UNK         0.0000 
     21 C21         0.1519   52.8718   29.9800 C.3       1 UNK         0.0000 
     22 C22         0.5934   53.7288   31.1773 C.3       1 UNK         0.0000 
     23 C23         0.8380   55.2198   30.8813 C.3       1 UNK         0.0000 
     24 C24         1.8800   55.5846   29.8099 C.3       1 UNK         0.0000 
     25 C25         1.5759   55.0641   28.3932 C.3       1 UNK         0.0000 
     26 N26         4.9079   54.6475   17.1695 N.pl3     1 UNK         0.0000 
     27 C27         5.9924   55.4804   16.5800 C.3       1 UNK         0.0000 
     28 C28         5.6175   56.9911   16.5177 C.3       1 UNK         0.0000 
     29 H29         6.3452   57.4535   15.8475 H         1 UNK         0.0000 
     30 C30         4.2163   57.1962   15.8982 C.3       1 UNK         0.0000 
     31 C31         3.1576   56.2227   16.4611 C.3       1 UNK         0.0000 
     32 H32         3.0292   56.4470   17.5216 H         1 UNK         0.0000 
     33 C33         3.6719   54.7656   16.3585 C.3       1 UNK         0.0000 
     34 C34         1.7917   56.3968   15.7771 C.3       1 UNK         0.0000 
     35 C35         5.7535   57.6872   17.8844 C.3       1 UNK         0.0000 
     36 H36         2.0323   52.0052   20.2953 H         1 UNK         0.0000 
     37 H37         3.0526   51.6247   21.6768 H         1 UNK         0.0000 
     38 H38         2.0034   53.0516   21.7111 H         1 UNK         0.0000 
     39 H39         3.1128   53.0461   18.4852 H         1 UNK         0.0000 
     40 H40         3.9439   53.2496   23.2719 H         1 UNK         0.0000 
     41 H41         7.4933   55.6647   23.4824 H         1 UNK         0.0000 
     42 H42         7.5384   55.8965   21.0678 H         1 UNK         0.0000 
     43 H43         5.2844   53.3219   25.2399 H         1 UNK         0.0000 
     44 H44         6.1313   55.2303   28.0341 H         1 UNK         0.0000 
     45 H45         7.4795   54.2697   27.5030 H         1 UNK         0.0000 
     46 H46         6.2856   52.5038   28.3788 H         1 UNK         0.0000 
     47 H47         5.5037   52.4964   26.8310 H         1 UNK         0.0000 
     48 H48         3.3559   53.1608   26.6585 H         1 UNK         0.0000 
     49 H49         1.2974   53.4123   27.1507 H         1 UNK         0.0000 
     50 H50         2.1153   52.0537   29.6492 H         1 UNK         0.0000 
     51 H51         0.9855   51.6298   28.4447 H         1 UNK         0.0000 
     52 H52        -0.2955   51.9565   30.3740 H         1 UNK         0.0000 
     53 H53        -0.6431   53.3660   29.4206 H         1 UNK         0.0000 
     54 H54         1.4817   53.2852   31.6252 H         1 UNK         0.0000 
     55 H55        -0.1747   53.6618   31.9523 H         1 UNK         0.0000 
     56 H56         1.1043   55.7143   31.8119 H         1 UNK         0.0000 
     57 H57        -0.0955   55.6782   30.5936 H         1 UNK         0.0000 
     58 H58         2.8735   55.2918   30.1286 H         1 UNK         0.0000 
     59 H59         1.9197   56.6738   29.7604 H         1 UNK         0.0000 
     60 H60         0.5347   55.2818   28.1617 H         1 UNK         0.0000 
     61 H61         2.1470   55.6701   27.6869 H         1 UNK         0.0000 
     62 H62         6.9348   55.2998   17.0952 H         1 UNK         0.0000 
     63 H63         6.1381   55.1098   15.5646 H         1 UNK         0.0000 
     64 H64         3.8887   58.2345   15.9811 H         1 UNK         0.0000 
     65 H65         4.2924   57.0330   14.8230 H         1 UNK         0.0000 
     66 H66         3.9215   54.5333   15.3247 H         1 UNK         0.0000 
     67 H67         2.9250   54.0339   16.6659 H         1 UNK         0.0000 
     68 H68         1.8442   56.1718   14.7102 H         1 UNK         0.0000 
     69 H69         1.0404   55.7403   16.2181 H         1 UNK         0.0000 
     70 H70         1.4275   57.4202   15.8817 H         1 UNK         0.0000 
     71 H71         5.0277   57.3078   18.6047 H         1 UNK         0.0000 
     72 H72         6.7497   57.5512   18.3071 H         1 UNK         0.0000 
     73 H73         5.5902   58.7628   17.7893 H         1 UNK         0.0000 
     74 N74         5.7774   54.8226   19.3972 N.pl3     1 UNK         0.0000 
     75 H75         6.5012   55.3848   18.9761 H         1 UNK         0.0000 
@<TRIPOS>BOND
     1    1    2 1    
     2    1   36 1    
     3    1   37 1    
     4    1   38 1    
     5    2    6 ar   
     6    2    3 ar   
     7    3    4 ar   
     8    3   39 1    
     9    4   26 1    
    10    4   74 ar   
    11    5   10 ar   
    12    5    6 ar   
    13    5   74 ar   
    14    6    7 ar   
    15    7    8 ar   
    16    7   40 1    
    17    8    9 ar   
    18    8   11 1    
    19    9   10 ar   
    20    9   41 1    
    21   10   42 1    
    22   11   12 am   BACKBONE|DICT|INTERRES
    23   11   43 1    
    24   12   13 2    
    25   12   14 1    
    26   14   15 1    
    27   14   44 1    
    28   14   45 1    
    29   15   16 1    
    30   15   46 1    
    31   15   47 1    
    32   16   17 2    
    33   16   18 am   BACKBONE|DICT|INTERRES
    34   18   19 1    
    35   18   48 1    
    36   19   25 1    
    37   19   20 1    
    38   19   49 1    
    39   20   21 1    
    40   20   50 1    
    41   20   51 1    
    42   21   22 1    
    43   21   52 1    
    44   21   53 1    
    45   22   23 1    
    46   22   54 1    
    47   22   55 1    
    48   23   24 1    
    49   23   56 1    
    50   23   57 1    
    51   24   25 1    
    52   24   58 1    
    53   24   59 1    
    54   25   60 1    
    55   25   61 1    
    56   26   33 1    
    57   26   27 1    
    58   27   28 1    
    59   27   62 1    
    60   27   63 1    
    61   28   29 1    
    62   28   30 1    
    63   28   35 1    
    64   30   31 1    
    65   30   64 1    
    66   30   65 1    
    67   31   32 1    
    68   31   33 1    
    69   31   34 1    
    70   33   66 1    
    71   33   67 1    
    72   34   68 1    
    73   34   69 1    
    74   34   70 1    
    75   35   71 1    
    76   35   72 1    
    77   35   73 1    
    78   74   75 1    
@<TRIPOS>SUBSTRUCTURE
     1 UNK         1 GROUP             0       ****    0 ROOT    
