@<TRIPOS>MOLECULE
ZINC09252896_717
58   62    1
SMALL
USER_CHARGES


@<TRIPOS>ATOM
      1 C1         -1.5308   50.2528   23.6556 C.ar      1 UNK         0.0000 
      2 C2         -1.3516   49.2936   22.6623 C.ar      1 UNK         0.0000 
      3 C3         -1.4448   47.9421   22.9812 C.ar      1 UNK         0.0000 
      4 C4         -1.6983   47.5391   24.2889 C.ar      1 UNK         0.0000 
      5 C5         -1.8819   48.4957   25.2820 C.ar      1 UNK         0.0000 
      6 C6         -1.8093   49.8563   24.9687 C.ar      1 UNK         0.0000 
      7 C7         -2.0362   50.9125   26.0516 C.3       1 UNK         0.0000 
      8 C8         -3.4923   50.9634   26.5330 C.ar      1 UNK         0.0000 
      9 C9         -4.3573   51.9375   26.0173 C.ar      1 UNK         0.0000 
     10 C10        -5.6680   52.0256   26.4827 C.ar      1 UNK         0.0000 
     11 C11        -6.1114   51.1511   27.4730 C.ar      1 UNK         0.0000 
     12 C12        -5.2578   50.1834   27.9953 C.ar      1 UNK         0.0000 
     13 C13        -3.9524   50.0865   27.5238 C.ar      1 UNK         0.0000 
     14 F14        -7.3793   51.2465   27.9326 F         1 UNK         0.0000 
     15 C15        -1.2411   52.0675   28.1810 C.3       1 UNK         0.0000 
     16 C16        -0.1687   52.1943   29.2764 C.3       1 UNK         0.0000 
     17 N17         1.0914   52.4705   28.5776 N.am      1 UNK         0.0000 
     18 C18         1.5044   51.3684   27.7027 C.3       1 UNK         0.0000 
     19 C19         0.4538   51.1192   26.5950 C.3       1 UNK         0.0000 
     20 C20         1.9511   53.4352   29.0122 C.2       1 UNK         0.0000 
     21 O21         1.7880   54.0299   30.0808 O.2       1 UNK         0.0000 
     22 C22         3.1527   53.7972   28.1593 C.ar      1 UNK         0.0000 
     23 C23         4.3668   54.1294   28.7767 C.ar      1 UNK         0.0000 
     24 C24         5.4728   54.4970   28.0133 C.ar      1 UNK         0.0000 
     25 C25         5.3808   54.5535   26.6240 C.ar      1 UNK         0.0000 
     26 C26         4.1885   54.2028   25.9870 C.ar      1 UNK         0.0000 
     27 C27         3.0772   53.8511   26.7565 C.ar      1 UNK         0.0000 
     28 N28         4.0771   54.1712   24.5946 N.am      1 UNK         0.0000 
     29 C29         5.0298   54.1547   23.6415 C.2       1 UNK         0.0000 
     30 O30         4.7351   53.9638   22.4665 O.2       1 UNK         0.0000 
     31 C31         6.4868   54.2829   24.1363 C.3       1 UNK         0.0000 
     32 S32         6.7043   55.2309   25.6810 S.3       1 UNK         0.0000 
     33 F33        -1.2957   47.0127   22.0106 F         1 UNK         0.0000 
     34 H34        -1.4680   51.2998   23.3959 H         1 UNK         0.0000 
     35 H35        -1.1480   49.5952   21.6467 H         1 UNK         0.0000 
     36 H36        -1.7581   46.4909   24.5352 H         1 UNK         0.0000 
     37 H37        -2.0926   48.1706   26.2899 H         1 UNK         0.0000 
     38 H38        -1.8386   51.8853   25.5948 H         1 UNK         0.0000 
     39 H39        -4.0201   52.6256   25.2548 H         1 UNK         0.0000 
     40 H40        -6.3395   52.7722   26.0832 H         1 UNK         0.0000 
     41 H41        -5.6048   49.5117   28.7681 H         1 UNK         0.0000 
     42 H42        -3.2960   49.3363   27.9413 H         1 UNK         0.0000 
     43 H43        -1.2957   52.9855   27.5947 H         1 UNK         0.0000 
     44 H44        -2.1954   51.8379   28.6543 H         1 UNK         0.0000 
     45 H45        -0.0990   51.2752   29.8533 H         1 UNK         0.0000 
     46 H46        -0.4350   52.9808   29.9842 H         1 UNK         0.0000 
     47 H47         2.4914   51.5234   27.2827 H         1 UNK         0.0000 
     48 H48         1.5993   50.4967   28.3343 H         1 UNK         0.0000 
     49 H49         0.4271   51.9374   25.8738 H         1 UNK         0.0000 
     50 H50         0.6868   50.1908   26.0702 H         1 UNK         0.0000 
     51 H51         4.4586   54.1174   29.8535 H         1 UNK         0.0000 
     52 H52         6.3885   54.7888   28.5055 H         1 UNK         0.0000 
     53 H53         2.1475   53.6207   26.2561 H         1 UNK         0.0000 
     54 H54         3.1613   54.0227   24.2009 H         1 UNK         0.0000 
     55 H55         6.9140   53.2969   24.2816 H         1 UNK         0.0000 
     56 H56         7.0761   54.7756   23.3635 H         1 UNK         0.0000 
     57 N57        -0.9627   50.9139   27.1858 N.4       1 UNK         0.0000 
     58 H58        -0.9992   50.0219   27.6829 H         1 UNK         0.0000 
@<TRIPOS>BOND
     1    1    6 ar   
     2    1    2 ar   
     3    1   34 1    
     4    2    3 ar   
     5    2   35 1    
     6    3    4 ar   
     7    3   33 1    
     8    4    5 ar   
     9    4   36 1    
    10    5    6 ar   
    11    5   37 1    
    12    6    7 1    
    13    7    8 1    
    14    7   38 1    
    15    7   57 1    
    16    8   13 ar   
    17    8    9 ar   
    18    9   10 ar   
    19    9   39 1    
    20   10   11 ar   
    21   10   40 1    
    22   11   12 ar   
    23   11   14 1    
    24   12   13 ar   
    25   12   41 1    
    26   13   42 1    
    27   15   16 1    
    28   15   43 1    
    29   15   44 1    
    30   15   57 1    
    31   16   17 1    
    32   16   45 1    
    33   16   46 1    
    34   17   18 1    
    35   17   20 am   BACKBONE|DICT|INTERRES
    36   18   19 1    
    37   18   47 1    
    38   18   48 1    
    39   19   49 1    
    40   19   50 1    
    41   19   57 1    
    42   20   21 2    
    43   20   22 1    
    44   22   27 ar   
    45   22   23 ar   
    46   23   24 ar   
    47   23   51 1    
    48   24   25 ar   
    49   24   52 1    
    50   25   32 1    
    51   25   26 ar   
    52   26   27 ar   
    53   26   28 1    
    54   27   53 1    
    55   28   29 am   BACKBONE|DICT|INTERRES
    56   28   54 1    
    57   29   30 2    
    58   29   31 1    
    59   31   32 1    
    60   31   55 1    
    61   31   56 1    
    62   57   58 1    
@<TRIPOS>SUBSTRUCTURE
     1 UNK         1 GROUP             0       ****    0 ROOT    
