ZINC56753544_233
                    3D
 Schrodinger Suite 2024-2.
 57 59  0  0  1  0            999 V2000
    7.8000   57.2584   17.4438 C   0  0  0  0  0  0
    6.2920   57.0013   17.6477 C   0  0  1  0  0  0
    5.8495   57.9231   18.0391 H   0  0  0  0  0  0
    5.5914   56.7065   16.3029 C   0  0  0  0  0  0
    4.0680   56.6403   16.3899 C   0  0  0  0  0  0
    3.3019   57.7587   16.0417 C   0  0  0  0  0  0
    1.9089   57.6971   16.0817 C   0  0  0  0  0  0
    1.2706   56.5228   16.4811 C   0  0  0  0  0  0
    2.0286   55.4097   16.8439 C   0  0  0  0  0  0
    3.4216   55.4651   16.7972 C   0  0  0  0  0  0
    4.1396   54.3734   17.1513 F   0  0  0  0  0  0
    6.0487   55.9360   18.6286 N   0  0  0  0  0  0
    6.2139   56.0541   19.9537 C   0  0  0  0  0  0
    6.7044   57.0543   20.4819 O   0  0  0  0  0  0
    5.7414   54.9782   20.6190 N   0  0  0  0  0  0
    5.7569   54.7863   22.0128 C   0  0  0  0  0  0
    4.7158   54.0646   22.5983 C   0  0  0  0  0  0
    4.6636   53.9084   23.9866 C   0  0  0  0  0  0
    5.6456   54.4789   24.8169 C   0  0  0  0  0  0
    6.7039   55.1584   24.2049 C   0  0  0  0  0  0
    6.7691   55.2968   22.8260 C   0  0  0  0  0  0
    5.6722   54.3133   26.3328 C   0  0  0  0  0  0
    6.7710   54.3903   26.8931 O   0  0  0  0  0  0
    4.5316   54.0853   27.0496 N   0  0  0  0  0  0
    4.6358   53.7551   28.4934 C   0  0  0  0  0  0
    3.5771   52.6833   28.8669 C   0  0  0  0  0  0
    2.1667   53.0821   28.3710 N   0  3  0  0  0  0
    2.2065   53.3937   26.8603 C   0  0  0  0  0  0
    3.1967   54.5499   26.6324 C   0  0  0  0  0  0
    1.1480   51.9556   28.6638 C   0  0  0  0  0  0
    7.9623   58.0263   16.6866 H   0  0  0  0  0  0
    8.2811   57.6147   18.3551 H   0  0  0  0  0  0
    8.3174   56.3628   17.0975 H   0  0  0  0  0  0
    5.9623   55.7732   15.8749 H   0  0  0  0  0  0
    5.8606   57.4769   15.5784 H   0  0  0  0  0  0
    3.7804   58.6813   15.7406 H   0  0  0  0  0  0
    1.3252   58.5674   15.8200 H   0  0  0  0  0  0
    0.1926   56.4797   16.5199 H   0  0  0  0  0  0
    1.5402   54.5009   17.1645 H   0  0  0  0  0  0
    5.6083   55.1028   18.2653 H   0  0  0  0  0  0
    5.1956   54.3146   20.0899 H   0  0  0  0  0  0
    3.9377   53.6331   21.9838 H   0  0  0  0  0  0
    3.8688   53.3017   24.3968 H   0  0  0  0  0  0
    7.5051   55.5853   24.7895 H   0  0  0  0  0  0
    7.6169   55.8189   22.4071 H   0  0  0  0  0  0
    5.6262   53.3701   28.7480 H   0  0  0  0  0  0
    4.4632   54.6499   29.0919 H   0  0  0  0  0  0
    3.4954   52.6169   29.9522 H   0  0  0  0  0  0
    3.8262   51.6968   28.4815 H   0  0  0  0  0  0
    1.1981   53.6965   26.5798 H   0  0  0  0  0  0
    2.4778   52.4922   26.3127 H   0  0  0  0  0  0
    2.9196   55.3825   27.2817 H   0  0  0  0  0  0
    3.1492   54.9617   25.6256 H   0  0  0  0  0  0
    1.4608   51.0543   28.1328 H   0  0  0  0  0  0
    1.1280   51.7928   29.7429 H   0  0  0  0  0  0
    0.1690   52.2906   28.3142 H   0  0  0  0  0  0
    1.8771   53.9245   28.8503 H   0  0  0  0  0  0
  1  2  1  0  0  0
  1 31  1  0  0  0
  1 32  1  0  0  0
  1 33  1  0  0  0
  2  3  1  0  0  0
  2  4  1  0  0  0
  2 12  1  0  0  0
  4  5  1  0  0  0
  4 34  1  0  0  0
  4 35  1  0  0  0
  5 10  2  0  0  0
  5  6  1  0  0  0
  6  7  2  0  0  0
  6 36  1  0  0  0
  7  8  1  0  0  0
  7 37  1  0  0  0
  8  9  2  0  0  0
  8 38  1  0  0  0
  9 10  1  0  0  0
  9 39  1  0  0  0
 10 11  1  0  0  0
 12 13  1  0  0  0
 12 40  1  0  0  0
 13 14  2  0  0  0
 13 15  1  0  0  0
 15 16  1  0  0  0
 15 41  1  0  0  0
 16 21  2  0  0  0
 16 17  1  0  0  0
 17 18  2  0  0  0
 17 42  1  0  0  0
 18 19  1  0  0  0
 18 43  1  0  0  0
 19 20  2  0  0  0
 19 22  1  0  0  0
 20 21  1  0  0  0
 20 44  1  0  0  0
 21 45  1  0  0  0
 22 23  2  0  0  0
 22 24  1  0  0  0
 24 29  1  0  0  0
 24 25  1  0  0  0
 25 26  1  0  0  0
 25 46  1  0  0  0
 25 47  1  0  0  0
 26 27  1  0  0  0
 26 48  1  0  0  0
 26 49  1  0  0  0
 27 28  1  0  0  0
 27 30  1  0  0  0
 27 57  1  0  0  0
 28 29  1  0  0  0
 28 50  1  0  0  0
 28 51  1  0  0  0
 29 52  1  0  0  0
 29 53  1  0  0  0
 30 54  1  0  0  0
 30 55  1  0  0  0
 30 56  1  0  0  0
M  CHG  1  27   1
M  END
> <i_i_glide_confnum>
43

> <i_i_glide_lignum>
234

> <i_i_glide_posenum>
200

> <i_i_glide_rotatable_bonds>
8

> <i_m_Source_File_Index>
4293

> <b_m_subgroup_collapsed>
0

> <r_i_docking_score>
-5.84308

> <r_i_glide_ecoul>
-4.69583

> <r_i_glide_eff_state_penalty>
0

> <r_i_glide_einternal>
5.65777

> <r_i_glide_emodel>
-60.1165

> <r_i_glide_energy>
-41.0038

> <r_i_glide_erotb>
0.859503

> <r_i_glide_esite>
-0.00697981

> <r_i_glide_evdw>
-36.308

> <r_i_glide_gscore>
-5.84308

> <r_i_glide_hbond>
-0.329684

> <r_i_glide_ligand_efficiency>
-0.201486

> <r_i_glide_ligand_efficiency_ln>
-1.33792

> <r_i_glide_ligand_efficiency_sa>
-0.619028

> <r_i_glide_lipo>
-2.47961

> <r_i_glide_metal>
0

> <r_i_glide_rewards>
-1.36654

> <s_i_glide_gridfile>
wee1_glide-grid

> <s_m_Source_File>
wee1_decoys_glide_SP.sdf

> <s_m_Source_Path>
/Users/zhangxujun/Desktop

> <s_m_entry_id>
4568

> <s_m_entry_name>
wee1_decoys_glide_SP.4293

> <s_m_subgroup_title>
wee1_decoys_glide_SP

> <s_m_subgroupid>
wee1_decoys_glide_SP


$$$$
