ZINC44910617_5260
                    3D
 Schrodinger Suite 2024-2.
 63 66  0  0  1  0            999 V2000
    2.7564   52.2030   19.3103 C   0  0  0  0  0  0
    3.6023   53.2968   19.1322 C   0  0  0  0  0  0
    4.6720   53.5309   20.0092 C   0  0  0  0  0  0
    4.8457   52.6601   21.0897 C   0  0  0  0  0  0
    4.0080   51.5710   21.2675 C   0  0  0  0  0  0
    2.9704   51.3201   20.3698 C   0  0  0  0  0  0
    2.0840   50.0903   20.5533 C   0  0  0  0  0  0
    1.7168   49.8229   21.9477 N   0  0  0  0  0  0
    0.8405   50.5614   22.6528 C   0  0  0  0  0  0
    0.1696   51.4672   22.1523 O   0  0  0  0  0  0
    0.7098   50.2530   24.1573 C   0  0  2  0  0  0
    1.5038   49.5437   24.4056 H   0  0  0  0  0  0
   -0.6655   49.5960   24.4123 C   0  0  0  0  0  0
   -0.8543   49.3858   25.9267 C   0  0  0  0  0  0
   -0.7037   50.6957   26.7278 C   0  0  0  0  0  0
    0.7041   51.2876   26.4659 N   0  3  1  0  0  0
    0.9012   51.5689   24.9512 C   0  0  0  0  0  0
    0.9038   52.5693   27.3124 C   0  0  0  0  0  0
    2.3238   53.1237   27.3219 C   0  0  0  0  0  0
    2.7690   53.9317   26.2721 C   0  0  0  0  0  0
    4.0717   54.4159   26.2635 C   0  0  0  0  0  0
    4.9263   54.1073   27.3178 C   0  0  0  0  0  0
    4.4809   53.3352   28.3876 C   0  0  0  0  0  0
    3.1773   52.8482   28.3941 C   0  0  0  0  0  0
    6.7165   54.7412   27.2791 Br  0  0  0  0  0  0
    5.6002   54.5540   19.7957 N   0  0  0  0  0  0
    5.6234   55.3619   18.5595 C   0  0  0  0  0  0
    7.0361   55.8820   18.2176 C   0  0  0  0  0  0
    7.6828   56.6368   19.3862 C   0  0  0  0  0  0
    7.5938   55.7850   20.6573 C   0  0  0  0  0  0
    6.1406   55.3457   20.9185 C   0  0  0  0  0  0
    1.9517   52.0344   18.6095 H   0  0  0  0  0  0
    3.4128   53.9498   18.2957 H   0  0  0  0  0  0
    5.6639   52.7806   21.7820 H   0  0  0  0  0  0
    4.1889   50.8963   22.0811 H   0  0  0  0  0  0
    1.1845   50.1736   19.9395 H   0  0  0  0  0  0
    2.6367   49.2304   20.1749 H   0  0  0  0  0  0
    2.2519   49.1144   22.4272 H   0  0  0  0  0  0
   -1.4830   50.2500   24.0985 H   0  0  0  0  0  0
   -0.7368   48.6141   23.9383 H   0  0  0  0  0  0
   -1.8448   48.9658   26.1071 H   0  0  0  0  0  0
   -0.1455   48.6437   26.3008 H   0  0  0  0  0  0
   -1.4465   51.4491   26.4465 H   0  0  0  0  0  0
   -0.7706   50.4990   27.7997 H   0  0  0  0  0  0
    1.9254   51.9206   24.8301 H   0  0  0  0  0  0
    0.1804   52.3488   24.6921 H   0  0  0  0  0  0
    0.1905   53.2916   26.9161 H   0  0  0  0  0  0
    0.5853   52.3014   28.3230 H   0  0  0  0  0  0
    2.1130   54.1688   25.4464 H   0  0  0  0  0  0
    4.4184   55.0224   25.4405 H   0  0  0  0  0  0
    5.1466   53.1097   29.2073 H   0  0  0  0  0  0
    2.8380   52.2383   29.2200 H   0  0  0  0  0  0
    4.9036   56.1782   18.6365 H   0  0  0  0  0  0
    5.3198   54.7418   17.7162 H   0  0  0  0  0  0
    6.9768   56.5422   17.3523 H   0  0  0  0  0  0
    7.6661   55.0517   17.8948 H   0  0  0  0  0  0
    8.7222   56.8794   19.1596 H   0  0  0  0  0  0
    7.1633   57.5864   19.5344 H   0  0  0  0  0  0
    8.2341   54.9040   20.5792 H   0  0  0  0  0  0
    7.9681   56.3469   21.5138 H   0  0  0  0  0  0
    5.5059   56.2216   21.0575 H   0  0  0  0  0  0
    6.1156   54.8057   21.8637 H   0  0  0  0  0  0
    1.3869   50.6018   26.7620 H   0  0  0  0  0  0
  1  6  2  0  0  0
  1  2  1  0  0  0
  1 32  1  0  0  0
  2  3  2  0  0  0
  2 33  1  0  0  0
  3  4  1  0  0  0
  3 26  1  0  0  0
  4  5  2  0  0  0
  4 34  1  0  0  0
  5  6  1  0  0  0
  5 35  1  0  0  0
  6  7  1  0  0  0
  7  8  1  0  0  0
  7 36  1  0  0  0
  7 37  1  0  0  0
  8  9  1  0  0  0
  8 38  1  0  0  0
  9 10  2  0  0  0
  9 11  1  0  0  0
 11 12  1  0  0  0
 11 17  1  0  0  0
 11 13  1  0  0  0
 13 14  1  0  0  0
 13 39  1  0  0  0
 13 40  1  0  0  0
 14 15  1  0  0  0
 14 41  1  0  0  0
 14 42  1  0  0  0
 15 16  1  0  0  0
 15 43  1  0  0  0
 15 44  1  0  0  0
 16 17  1  0  0  0
 16 18  1  0  0  0
 16 63  1  0  0  0
 17 45  1  0  0  0
 17 46  1  0  0  0
 18 19  1  0  0  0
 18 47  1  0  0  0
 18 48  1  0  0  0
 19 24  2  0  0  0
 19 20  1  0  0  0
 20 21  2  0  0  0
 20 49  1  0  0  0
 21 22  1  0  0  0
 21 50  1  0  0  0
 22 23  2  0  0  0
 22 25  1  0  0  0
 23 24  1  0  0  0
 23 51  1  0  0  0
 24 52  1  0  0  0
 26 31  1  0  0  0
 26 27  1  0  0  0
 27 28  1  0  0  0
 27 53  1  0  0  0
 27 54  1  0  0  0
 28 29  1  0  0  0
 28 55  1  0  0  0
 28 56  1  0  0  0
 29 30  1  0  0  0
 29 57  1  0  0  0
 29 58  1  0  0  0
 30 31  1  0  0  0
 30 59  1  0  0  0
 30 60  1  0  0  0
 31 61  1  0  0  0
 31 62  1  0  0  0
M  CHG  1  16   1
M  END
> <i_i_glide_confnum>
93

> <i_i_glide_lignum>
5261

> <i_i_glide_posenum>
359

> <i_i_glide_rotatable_bonds>
7

> <i_m_Source_File_Index>
5539

> <b_m_subgroup_collapsed>
0

> <r_i_docking_score>
-4.07479

> <r_i_glide_ecoul>
-1.23782

> <r_i_glide_eff_state_penalty>
0

> <r_i_glide_einternal>
1.43936

> <r_i_glide_emodel>
-51.6737

> <r_i_glide_energy>
-39.4519

> <r_i_glide_erotb>
0.636569

> <r_i_glide_esite>
-0.00864703

> <r_i_glide_evdw>
-38.214

> <r_i_glide_gscore>
-4.07479

> <r_i_glide_hbond>
0

> <r_i_glide_ligand_efficiency>
-0.135826

> <r_i_glide_ligand_efficiency_ln>
-0.925838

> <r_i_glide_ligand_efficiency_sa>
-0.422044

> <r_i_glide_lipo>
-2.27312

> <r_i_glide_metal>
0

> <r_i_glide_rewards>
-0.333218

> <s_i_glide_gridfile>
wee1_glide-grid

> <s_m_Source_File>
wee1_decoys_glide_SP.sdf

> <s_m_Source_Path>
/Users/zhangxujun/Desktop

> <s_m_entry_id>
5814

> <s_m_entry_name>
wee1_decoys_glide_SP.5539

> <s_m_subgroup_title>
wee1_decoys_glide_SP

> <s_m_subgroupid>
wee1_decoys_glide_SP


$$$$
