@<TRIPOS>MOLECULE
ZINC51144767_4961
57   61    1
SMALL
USER_CHARGES


@<TRIPOS>ATOM
      1 C1          1.7611   56.0159   29.1910 C.ar      1 UNK         0.0000 
      2 C2          2.2582   55.2951   28.1113 C.ar      1 UNK         0.0000 
      3 C3          2.1902   53.9037   28.0657 C.ar      1 UNK         0.0000 
      4 C4          1.6550   53.2242   29.1660 C.ar      1 UNK         0.0000 
      5 C5          1.1659   53.9335   30.2745 C.ar      1 UNK         0.0000 
      6 C6          1.1959   55.3353   30.2610 C.ar      1 UNK         0.0000 
      7 N7          0.6725   53.2222   31.4669 N.pl3     1 UNK         0.0000 
      8 O8         -0.0948   53.8211   32.2102 O.co2     1 UNK         0.0000 
      9 O9          1.1044   52.0967   31.6817 O.co2     1 UNK         0.0000 
     10 C10         2.6854   53.1544   26.8048 C.3       1 UNK         0.0000 
     11 H11         2.9471   52.1652   27.1899 H         1 UNK         0.0000 
     12 C12         3.9882   53.6967   26.1856 C.2       1 UNK         0.0000 
     13 C13         4.1863   53.7958   24.8336 C.2       1 UNK         0.0000 
     14 C14         5.5449   54.2669   24.2490 C.3       1 UNK         0.0000 
     15 C15         6.7044   54.2153   25.2499 C.3       1 UNK         0.0000 
     16 C16         6.3209   54.6691   26.6519 C.3       1 UNK         0.0000 
     17 C17         5.1040   53.9055   27.1531 C.2       1 UNK         0.0000 
     18 O18         5.1226   53.3928   28.2726 O.2       1 UNK         0.0000 
     19 N19         3.1997   53.3679   23.9073 N.pl3     1 UNK         0.0000 
     20 C20         1.9453   53.0049   24.2863 C.2       1 UNK         0.0000 
     21 C21         1.5405   53.0982   25.7518 C.3       1 UNK         0.0000 
     22 C22         0.4318   52.0899   26.1777 C.2       1 UNK         0.0000 
     23 O23         0.7044   51.0473   26.7807 O.2       1 UNK         0.0000 
     24 N24        -0.8360   52.4496   25.7377 N.am      1 UNK         0.0000 
     25 C25        -1.9029   51.9321   26.2236 C.2       1 UNK         0.0000 
     26 N26        -2.1045   50.8967   27.1266 N.pl3     1 UNK         0.0000 
     27 C27        -3.3967   50.5818   27.4534 C.2       1 UNK         0.0000 
     28 C28        -4.3118   51.3286   26.8278 C.2       1 UNK         0.0000 
     29 S29        -3.5398   52.4965   25.7546 S.3       1 UNK         0.0000 
     30 N30         1.0016   52.6716   23.3887 N.pl3     1 UNK         0.0000 
     31 C31         3.5275   53.2327   22.4817 C.ar      1 UNK         0.0000 
     32 C32         3.4249   51.9938   21.8262 C.ar      1 UNK         0.0000 
     33 C33         3.7569   51.8720   20.4768 C.ar      1 UNK         0.0000 
     34 C34         4.1934   52.9888   19.7691 C.ar      1 UNK         0.0000 
     35 C35         4.3042   54.2183   20.4010 C.ar      1 UNK         0.0000 
     36 C36         3.9360   54.3390   21.7368 C.ar      1 UNK         0.0000 
     37 F37         4.4936   52.8967   18.4557 F         1 UNK         0.0000 
     38 H38         1.8169   57.0954   29.2007 H         1 UNK         0.0000 
     39 H39         2.7044   55.8049   27.2817 H         1 UNK         0.0000 
     40 H40         1.6154   52.1432   29.1588 H         1 UNK         0.0000 
     41 H41         0.8277   55.9033   31.1045 H         1 UNK         0.0000 
     42 H42         5.8683   53.6811   23.3877 H         1 UNK         0.0000 
     43 H43         5.4449   55.2961   23.9072 H         1 UNK         0.0000 
     44 H44         7.1044   53.2053   25.3038 H         1 UNK         0.0000 
     45 H45         7.5211   54.8322   24.8765 H         1 UNK         0.0000 
     46 H46         7.1352   54.5649   27.3703 H         1 UNK         0.0000 
     47 H47         6.0349   55.7145   26.6409 H         1 UNK         0.0000 
     48 H48        -3.5543   49.7734   28.1589 H         1 UNK         0.0000 
     49 H49        -5.3864   51.2629   26.9163 H         1 UNK         0.0000 
     50 H50         1.2265   52.6315   22.4026 H         1 UNK         0.0000 
     51 H51         3.1043   51.1110   22.3625 H         1 UNK         0.0000 
     52 H52         3.6825   50.9211   19.9666 H         1 UNK         0.0000 
     53 H53         4.6294   55.0807   19.8383 H         1 UNK         0.0000 
     54 H54         3.9729   55.2967   22.2064 H         1 UNK         0.0000 
     55 H55        -1.3253   50.3382   27.4623 H         1 UNK         0.0000 
     56 H56         1.1044   54.0890   25.7906 H         1 UNK         0.0000 
     57 H57         0.0629   52.4679   23.7162 H         1 UNK         0.0000 
@<TRIPOS>BOND
     1    1    6 ar   
     2    1    2 ar   
     3    1   38 1    
     4    2    3 ar   
     5    2   39 1    
     6    3    4 ar   
     7    3   10 1    
     8    4    5 ar   
     9    4   40 1    
    10    5    6 ar   
    11    5    7 1    
    12    6   41 1    
    13    7    8 2    
    14    7    9 1    
    15   10   11 1    
    16   10   12 1    
    17   10   21 1    
    18   12   17 1    
    19   12   13 2    
    20   13   14 1    
    21   13   19 1    
    22   14   15 1    
    23   14   42 1    
    24   14   43 1    
    25   15   16 1    
    26   15   44 1    
    27   15   45 1    
    28   16   17 1    
    29   16   46 1    
    30   16   47 1    
    31   17   18 2    
    32   19   31 1    
    33   19   20 1    
    34   20   30 2    
    35   20   21 1    
    36   21   22 1    
    37   21   56 1    
    38   22   23 2    
    39   22   24 am   BACKBONE|DICT|INTERRES
    40   24   25 2    BACKBONE|DICT|INTERRES
    41   25   29 1    
    42   25   26 1    
    43   26   27 1    
    44   26   55 1    
    45   27   28 2    
    46   27   48 1    
    47   28   29 1    
    48   28   49 1    
    49   30   50 1    
    50   30   57 1    
    51   31   36 ar   
    52   31   32 ar   
    53   32   33 ar   
    54   32   51 1    
    55   33   34 ar   
    56   33   52 1    
    57   34   35 ar   
    58   34   37 1    
    59   35   36 ar   
    60   35   53 1    
    61   36   54 1    
@<TRIPOS>SUBSTRUCTURE
     1 UNK         1 GROUP             0       ****    0 ROOT    
