@<TRIPOS>MOLECULE
ZINC39596408_3056
66   70    1
SMALL
USER_CHARGES


@<TRIPOS>ATOM
      1 C1         -1.7414   46.8090   22.4212 C.3       1 UNK         0.0000 
      2 C2         -1.2856   48.0426   23.2243 C.3       1 UNK         0.0000 
      3 H3         -2.1580   48.5737   23.6150 H         1 UNK         0.0000 
      4 C4         -0.3841   47.6787   24.4312 C.3       1 UNK         0.0000 
      5 N5         -0.3521   48.6744   25.5068 N.am      1 UNK         0.0000 
      6 C6          0.1608   49.9094   25.4211 C.2       1 UNK         0.0000 
      7 O7          0.7085   50.3394   24.4079 O.2       1 UNK         0.0000 
      8 C8          0.0662   50.7632   26.7112 C.3       1 UNK         0.0000 
      9 H9          0.1456   50.0973   27.5707 H         1 UNK         0.0000 
     10 C10         1.2436   51.7556   26.7520 C.3       1 UNK         0.0000 
     11 N11         0.7163   52.9077   27.4782 N.am      1 UNK         0.0000 
     12 C12        -0.7203   52.7721   27.7404 C.3       1 UNK         0.0000 
     13 C13        -1.2197   51.6269   26.8327 C.3       1 UNK         0.0000 
     14 C14        -1.7215   52.2226   25.4770 C.3       1 UNK         0.0000 
     15 C15        -3.0393   53.0044   25.6246 C.3       1 UNK         0.0000 
     16 N16        -4.1188   52.0190   26.1057 N.4       1 UNK         0.0000 
     17 C17        -3.7802   51.3621   27.4602 C.3       1 UNK         0.0000 
     18 C18        -2.3680   50.7662   27.4286 C.3       1 UNK         0.0000 
     19 C19         1.4881   53.8221   28.1256 C.2       1 UNK         0.0000 
     20 O20         1.0422   54.5505   29.0151 O.2       1 UNK         0.0000 
     21 C21         2.8892   53.9310   27.7608 C.2       1 UNK         0.0000 
     22 C22         3.8903   54.0375   28.7137 C.2       1 UNK         0.0000 
     23 S23         5.5100   54.0957   28.0825 S.3       1 UNK         0.0000 
     24 C24         4.8736   54.0754   26.4521 C.ar      1 UNK         0.0000 
     25 C25         3.4422   54.0239   26.4319 C.ar      1 UNK         0.0000 
     26 C26         2.8121   54.0854   25.1701 C.ar      1 UNK         0.0000 
     27 C27         3.5734   54.1113   24.0017 C.ar      1 UNK         0.0000 
     28 C28         4.9609   54.1099   24.0557 C.ar      1 UNK         0.0000 
     29 C29         5.6324   54.1035   25.2726 C.ar      1 UNK         0.0000 
     30 O30        -0.5174   48.8952   22.3771 O.3       1 UNK         0.0000 
     31 C31        -1.1128   49.8032   21.5262 C.ar      1 UNK         0.0000 
     32 C32        -0.2451   50.6744   20.8657 C.ar      1 UNK         0.0000 
     33 C33        -0.7392   51.6255   19.9775 C.ar      1 UNK         0.0000 
     34 C34        -2.1092   51.6970   19.7414 C.ar      1 UNK         0.0000 
     35 C35        -2.9862   50.8335   20.3920 C.ar      1 UNK         0.0000 
     36 C36        -2.4925   49.8905   21.2899 C.ar      1 UNK         0.0000 
     37 F37        -2.5964   52.6182   18.8814 F         1 UNK         0.0000 
     38 H38        -2.2710   46.0988   23.0534 H         1 UNK         0.0000 
     39 H39        -2.4154   47.0849   21.6128 H         1 UNK         0.0000 
     40 H40        -0.8980   46.2921   21.9676 H         1 UNK         0.0000 
     41 H41        -0.7320   46.7516   24.8858 H         1 UNK         0.0000 
     42 H42         0.6365   47.4890   24.0912 H         1 UNK         0.0000 
     43 H43        -0.7004   48.3698   26.4098 H         1 UNK         0.0000 
     44 H44         2.0808   51.2969   27.2818 H         1 UNK         0.0000 
     45 H45         1.4652   52.0921   25.7449 H         1 UNK         0.0000 
     46 H46        -1.2782   53.7033   27.6780 H         1 UNK         0.0000 
     47 H47        -0.8049   52.4472   28.7802 H         1 UNK         0.0000 
     48 H48        -0.9542   52.8625   25.0387 H         1 UNK         0.0000 
     49 H49        -1.8847   51.4375   24.7373 H         1 UNK         0.0000 
     50 H50        -3.0062   53.7991   26.3691 H         1 UNK         0.0000 
     51 H51        -3.3910   53.4081   24.6730 H         1 UNK         0.0000 
     52 H52        -5.0152   52.4860   26.1669 H         1 UNK         0.0000 
     53 H53        -3.8824   52.0967   28.2474 H         1 UNK         0.0000 
     54 H54        -4.5364   50.5930   27.6288 H         1 UNK         0.0000 
     55 H55        -2.4368   49.8244   26.8815 H         1 UNK         0.0000 
     56 H56        -2.0936   50.4965   28.4489 H         1 UNK         0.0000 
     57 H57         3.7585   54.0357   29.7848 H         1 UNK         0.0000 
     58 H58         1.7362   54.0965   25.0956 H         1 UNK         0.0000 
     59 H59         3.0788   54.1383   23.0403 H         1 UNK         0.0000 
     60 H60         5.5268   54.1289   23.1337 H         1 UNK         0.0000 
     61 H61         6.7128   54.1164   25.3065 H         1 UNK         0.0000 
     62 H62         0.8190   50.6088   21.0479 H         1 UNK         0.0000 
     63 H63        -0.0630   52.2970   19.4679 H         1 UNK         0.0000 
     64 H64        -4.0461   50.8953   20.2006 H         1 UNK         0.0000 
     65 H65        -3.1924   49.2297   21.7752 H         1 UNK         0.0000 
     66 H66        -4.2217   51.2909   25.4123 H         1 UNK         0.0000 
@<TRIPOS>BOND
     1    1    2 1    
     2    1   38 1    
     3    1   39 1    
     4    1   40 1    
     5    2    3 1    
     6    2    4 1    
     7    2   30 1    
     8    4    5 1    
     9    4   41 1    
    10    4   42 1    
    11    5    6 am   BACKBONE|DICT|INTERRES
    12    5   43 1    
    13    6    7 2    
    14    6    8 1    
    15    8    9 1    
    16    8   13 1    
    17    8   10 1    
    18   10   11 1    
    19   10   44 1    
    20   10   45 1    
    21   11   12 1    
    22   11   19 am   BACKBONE|DICT|INTERRES
    23   12   13 1    
    24   12   46 1    
    25   12   47 1    
    26   13   18 1    
    27   13   14 1    
    28   14   15 1    
    29   14   48 1    
    30   14   49 1    
    31   15   16 1    
    32   15   50 1    
    33   15   51 1    
    34   16   17 1    
    35   16   52 1    
    36   16   66 1    
    37   17   18 1    
    38   17   53 1    
    39   17   54 1    
    40   18   55 1    
    41   18   56 1    
    42   19   20 2    
    43   19   21 1    
    44   21   25 1    
    45   21   22 2    
    46   22   23 1    
    47   22   57 1    
    48   23   24 1    
    49   24   29 ar   
    50   24   25 ar   
    51   25   26 ar   
    52   26   27 ar   
    53   26   58 1    
    54   27   28 ar   
    55   27   59 1    
    56   28   29 ar   
    57   28   60 1    
    58   29   61 1    
    59   30   31 1    
    60   31   36 ar   
    61   31   32 ar   
    62   32   33 ar   
    63   32   62 1    
    64   33   34 ar   
    65   33   63 1    
    66   34   35 ar   
    67   34   37 1    
    68   35   36 ar   
    69   35   64 1    
    70   36   65 1    
@<TRIPOS>SUBSTRUCTURE
     1 UNK         1 GROUP             0       ****    0 ROOT    
