ZINC39684955_1295
                    3D
 Schrodinger Suite 2024-2.
 64 68  0  0  1  0            999 V2000
    3.5902   54.2472   24.2556 C   0  0  0  0  0  0
    3.6958   54.3762   25.6356 C   0  0  0  0  0  0
    4.9495   54.3455   26.2450 C   0  0  0  0  0  0
    6.1042   54.2165   25.4700 C   0  0  0  0  0  0
    5.9985   54.0979   24.0845 C   0  0  0  0  0  0
    4.7401   54.0965   23.4698 C   0  0  0  0  0  0
    4.6560   53.9164   21.9500 C   0  0  0  0  0  0
    3.3388   53.5702   21.4005 N   0  0  0  0  0  0
    2.7276   52.3805   21.5243 C   0  0  0  0  0  0
    3.2523   51.4207   22.0816 O   0  0  0  0  0  0
    1.2680   52.2874   21.0282 C   0  0  2  0  0  0
    0.9131   53.2939   20.7978 H   0  0  0  0  0  0
    0.4097   51.7580   22.1918 C   0  0  0  0  0  0
   -0.7379   51.1559   21.5110 N   0  0  0  0  0  0
   -0.5248   51.0864   20.0588 C   0  0  0  0  0  0
    0.9940   51.3160   19.8478 C   0  0  0  0  0  0
    1.3719   51.9151   18.4721 C   0  0  0  0  0  0
    0.8656   51.0262   17.3148 C   0  0  0  0  0  0
    1.5045   49.6230   17.4444 N   0  3  0  0  0  0
    1.3515   48.9615   18.8356 C   0  0  0  0  0  0
    1.7946   49.9743   19.9119 C   0  0  0  0  0  0
   -1.8930   50.6987   22.0716 C   0  0  0  0  0  0
   -2.8243   50.2819   21.3768 O   0  0  0  0  0  0
   -2.0459   50.6622   23.5182 C   0  0  0  0  0  0
   -3.1202   50.1992   24.2695 C   0  0  0  0  0  0
   -2.7809   50.3471   25.6133 C   0  0  0  0  0  0
   -1.5147   50.9172   25.6544 C   0  0  0  0  0  0
   -1.0752   51.0989   24.3756 O   0  0  0  0  0  0
   -0.6236   51.3373   26.7788 C   0  0  0  0  0  0
   -1.1219   51.2989   28.0857 C   0  0  0  0  0  0
   -0.3248   51.6969   29.1562 C   0  0  0  0  0  0
    0.9875   52.0985   28.9283 C   0  0  0  0  0  0
    1.5005   52.1253   27.6341 C   0  0  0  0  0  0
    0.6943   51.7547   26.5584 C   0  0  0  0  0  0
    1.7758   52.4473   29.9706 F   0  0  0  0  0  0
    5.0404   54.4254   27.6962 C   0  0  0  0  0  0
    5.1039   54.4895   28.8499 N   0  0  0  0  0  0
    2.6066   54.2651   23.8076 H   0  0  0  0  0  0
    2.7952   54.4902   26.2208 H   0  0  0  0  0  0
    7.0808   54.1860   25.9317 H   0  0  0  0  0  0
    6.8978   53.9906   23.4928 H   0  0  0  0  0  0
    4.9706   54.8542   21.4922 H   0  0  0  0  0  0
    5.3836   53.1675   21.6339 H   0  0  0  0  0  0
    2.8262   54.3162   20.9462 H   0  0  0  0  0  0
    0.9125   50.9364   22.7123 H   0  0  0  0  0  0
    0.1416   52.5692   22.8724 H   0  0  0  0  0  0
   -1.0539   51.9356   19.6264 H   0  0  0  0  0  0
   -0.9182   50.1983   19.5649 H   0  0  0  0  0  0
    0.8984   52.8912   18.3626 H   0  0  0  0  0  0
    2.4450   52.1071   18.4006 H   0  0  0  0  0  0
   -0.2159   50.8834   17.3161 H   0  0  0  0  0  0
    1.1675   51.4070   16.3385 H   0  0  0  0  0  0
    1.1528   49.0096   16.7231 H   0  0  0  0  0  0
    0.3164   48.6355   18.9230 H   0  0  0  0  0  0
    1.9945   48.0786   18.8241 H   0  0  0  0  0  0
    2.8720   50.1365   19.8415 H   0  0  0  0  0  0
    1.6388   49.5026   20.8835 H   0  0  0  0  0  0
   -4.0419   49.7848   23.8829 H   0  0  0  0  0  0
   -3.3854   50.0661   26.4645 H   0  0  0  0  0  0
   -2.1258   50.9517   28.2881 H   0  0  0  0  0  0
   -0.7146   51.6570   30.1649 H   0  0  0  0  0  0
    2.5257   52.4166   27.4722 H   0  0  0  0  0  0
    1.1038   51.7807   25.5585 H   0  0  0  0  0  0
    2.5059   49.6921   17.2520 H   0  0  0  0  0  0
  1  6  2  0  0  0
  1  2  1  0  0  0
  1 38  1  0  0  0
  2  3  2  0  0  0
  2 39  1  0  0  0
  3  4  1  0  0  0
  3 36  1  0  0  0
  4  5  2  0  0  0
  4 40  1  0  0  0
  5  6  1  0  0  0
  5 41  1  0  0  0
  6  7  1  0  0  0
  7  8  1  0  0  0
  7 42  1  0  0  0
  7 43  1  0  0  0
  8  9  1  0  0  0
  8 44  1  0  0  0
  9 10  2  0  0  0
  9 11  1  0  0  0
 11 12  1  0  0  0
 11 16  1  0  0  0
 11 13  1  0  0  0
 13 14  1  0  0  0
 13 45  1  0  0  0
 13 46  1  0  0  0
 14 15  1  0  0  0
 14 22  1  0  0  0
 15 16  1  0  0  0
 15 47  1  0  0  0
 15 48  1  0  0  0
 16 21  1  0  0  0
 16 17  1  0  0  0
 17 18  1  0  0  0
 17 49  1  0  0  0
 17 50  1  0  0  0
 18 19  1  0  0  0
 18 51  1  0  0  0
 18 52  1  0  0  0
 19 20  1  0  0  0
 19 53  1  0  0  0
 19 64  1  0  0  0
 20 21  1  0  0  0
 20 54  1  0  0  0
 20 55  1  0  0  0
 21 56  1  0  0  0
 21 57  1  0  0  0
 22 23  2  0  0  0
 22 24  1  0  0  0
 24 28  1  0  0  0
 24 25  2  0  0  0
 25 26  1  0  0  0
 25 58  1  0  0  0
 26 27  2  0  0  0
 26 59  1  0  0  0
 27 28  1  0  0  0
 27 29  1  0  0  0
 29 34  2  0  0  0
 29 30  1  0  0  0
 30 31  2  0  0  0
 30 60  1  0  0  0
 31 32  1  0  0  0
 31 61  1  0  0  0
 32 33  2  0  0  0
 32 35  1  0  0  0
 33 34  1  0  0  0
 33 62  1  0  0  0
 34 63  1  0  0  0
 36 37  3  0  0  0
M  CHG  1  19   1
M  END
> <i_i_glide_confnum>
42

> <i_i_glide_lignum>
1296

> <i_i_glide_posenum>
58

> <i_i_glide_rotatable_bonds>
8

> <i_m_Source_File_Index>
1763

> <b_m_subgroup_collapsed>
0

> <r_i_docking_score>
-6.11036

> <r_i_glide_ecoul>
-7.85377

> <r_i_glide_eff_state_penalty>
0

> <r_i_glide_einternal>
3.69714

> <r_i_glide_emodel>
-71.1862

> <r_i_glide_energy>
-49.2207

> <r_i_glide_erotb>
0.598698

> <r_i_glide_esite>
-0.104833

> <r_i_glide_evdw>
-41.3669

> <r_i_glide_gscore>
-6.11036

> <r_i_glide_hbond>
-0.52

> <r_i_glide_ligand_efficiency>
-0.169732

> <r_i_glide_ligand_efficiency_ln>
-1.33312

> <r_i_glide_ligand_efficiency_sa>
-0.560443

> <r_i_glide_lipo>
-2.18484

> <r_i_glide_metal>
0

> <r_i_glide_rewards>
-0.652969

> <s_i_glide_gridfile>
wee1_glide-grid

> <s_m_Source_File>
wee1_decoys_glide_SP.sdf

> <s_m_Source_Path>
/Users/zhangxujun/Desktop

> <s_m_entry_id>
2038

> <s_m_entry_name>
wee1_decoys_glide_SP.1763

> <s_m_subgroup_title>
wee1_decoys_glide_SP

> <s_m_subgroupid>
wee1_decoys_glide_SP


$$$$
