ZINC02661613_3459
                    3D
 Schrodinger Suite 2024-2.
 53 56  0  0  1  0            999 V2000
    1.8384   52.3135   19.6058 C   0  0  0  0  0  0
    1.3791   50.9751   20.1497 C   0  0  0  0  0  0
    1.2247   49.8271   19.3799 C   0  0  0  0  0  0
    0.5772   48.4933   20.3040 S   0  0  0  0  0  0
    0.6365   49.4146   21.7803 C   0  0  0  0  0  0
    1.0542   50.7531   21.5372 C   0  0  0  0  0  0
    1.0677   51.5899   22.6826 C   0  0  0  0  0  0
    0.7597   51.0927   23.9143 N   0  0  0  0  0  0
    0.4022   49.7857   24.0001 C   0  0  0  0  0  0
    0.3045   48.9025   22.9728 N   0  0  0  0  0  0
    0.1316   49.2287   25.3996 C   0  0  0  0  0  0
   -1.3049   51.1861   26.4489 C   0  0  0  0  0  0
   -0.3815   51.6305   27.5732 C   0  0  0  0  0  0
   -0.8583   51.6966   28.8859 C   0  0  0  0  0  0
   -0.0092   52.0968   29.9148 C   0  0  0  0  0  0
    1.3140   52.4252   29.6237 C   0  0  0  0  0  0
    1.7909   52.3696   28.3184 C   0  0  0  0  0  0
    0.9379   51.9861   27.2910 C   0  0  0  0  0  0
    2.3889   52.8963   30.8816 Cl  0  0  0  0  0  0
    1.3799   52.9558   22.5485 N   0  0  0  0  0  0
    1.5059   53.8830   23.6708 C   0  0  0  0  0  0
    2.9441   54.0210   24.1646 C   0  0  0  0  0  0
    3.1715   54.1918   25.5314 C   0  0  0  0  0  0
    4.4564   54.4292   26.0081 C   0  0  0  0  0  0
    5.5202   54.4973   25.1127 C   0  0  0  0  0  0
    5.3117   54.3172   23.7474 C   0  0  0  0  0  0
    4.0210   54.0961   23.2708 C   0  0  0  0  0  0
    7.1044   54.8301   25.7015 Cl  0  0  0  0  0  0
    1.5045   49.6243   17.9066 C   0  0  0  0  0  0
    2.1544   52.2688   18.5641 H   0  0  0  0  0  0
    1.0280   53.0392   19.6435 H   0  0  0  0  0  0
    2.6884   52.7191   20.1550 H   0  0  0  0  0  0
    0.9364   49.4748   26.0936 H   0  0  0  0  0  0
    0.0443   48.1390   25.3883 H   0  0  0  0  0  0
   -2.3523   51.2813   26.7420 H   0  0  0  0  0  0
   -1.1527   51.7549   25.5308 H   0  0  0  0  0  0
   -1.8752   51.4122   29.1185 H   0  0  0  0  0  0
   -0.3720   52.1249   30.9343 H   0  0  0  0  0  0
    2.8207   52.6159   28.1027 H   0  0  0  0  0  0
    1.3181   51.9467   26.2826 H   0  0  0  0  0  0
    1.5421   53.3264   21.6206 H   0  0  0  0  0  0
    1.1615   54.8654   23.3454 H   0  0  0  0  0  0
    0.8484   53.5850   24.4890 H   0  0  0  0  0  0
    2.3453   54.1783   26.2242 H   0  0  0  0  0  0
    4.6251   54.5779   27.0650 H   0  0  0  0  0  0
    6.1418   54.3775   23.0590 H   0  0  0  0  0  0
    3.8613   53.9971   22.2069 H   0  0  0  0  0  0
    2.3031   50.2726   17.5427 H   0  0  0  0  0  0
    1.8334   48.6064   17.6871 H   0  0  0  0  0  0
    0.6229   49.8213   17.2949 H   0  0  0  0  0  0
   -1.1764   49.6943   26.0817 N   0  3  0  0  0  0
   -1.2953   49.1624   26.9569 H   0  0  0  0  0  0
   -1.9479   49.4363   25.4843 H   0  0  0  0  0  0
  1  2  1  0  0  0
  1 30  1  0  0  0
  1 31  1  0  0  0
  1 32  1  0  0  0
  2  6  1  0  0  0
  2  3  2  0  0  0
  3  4  1  0  0  0
  3 29  1  0  0  0
  4  5  1  0  0  0
  5 10  2  0  0  0
  5  6  1  0  0  0
  6  7  2  0  0  0
  7  8  1  0  0  0
  7 20  1  0  0  0
  8  9  2  0  0  0
  9 10  1  0  0  0
  9 11  1  0  0  0
 11 33  1  0  0  0
 11 34  1  0  0  0
 11 51  1  0  0  0
 12 13  1  0  0  0
 12 35  1  0  0  0
 12 36  1  0  0  0
 12 51  1  0  0  0
 13 18  2  0  0  0
 13 14  1  0  0  0
 14 15  2  0  0  0
 14 37  1  0  0  0
 15 16  1  0  0  0
 15 38  1  0  0  0
 16 17  2  0  0  0
 16 19  1  0  0  0
 17 18  1  0  0  0
 17 39  1  0  0  0
 18 40  1  0  0  0
 20 21  1  0  0  0
 20 41  1  0  0  0
 21 22  1  0  0  0
 21 42  1  0  0  0
 21 43  1  0  0  0
 22 27  2  0  0  0
 22 23  1  0  0  0
 23 24  2  0  0  0
 23 44  1  0  0  0
 24 25  1  0  0  0
 24 45  1  0  0  0
 25 26  2  0  0  0
 25 28  1  0  0  0
 26 27  1  0  0  0
 26 46  1  0  0  0
 27 47  1  0  0  0
 29 48  1  0  0  0
 29 49  1  0  0  0
 29 50  1  0  0  0
 51 52  1  0  0  0
 51 53  1  0  0  0
M  CHG  1  51   1
M  END
> <i_i_glide_confnum>
50

> <i_i_glide_lignum>
3460

> <i_i_glide_posenum>
318

> <i_i_glide_rotatable_bonds>
7

> <i_m_Source_File_Index>
3323

> <b_m_subgroup_collapsed>
0

> <r_i_docking_score>
-5.53561

> <r_i_glide_ecoul>
-8.0641

> <r_i_glide_eff_state_penalty>
0

> <r_i_glide_einternal>
3.27083

> <r_i_glide_emodel>
-64.2741

> <r_i_glide_energy>
-47.1835

> <r_i_glide_erotb>
0.574223

> <r_i_glide_esite>
-0.1

> <r_i_glide_evdw>
-39.1194

> <r_i_glide_gscore>
-5.53561

> <r_i_glide_hbond>
-0.203778

> <r_i_glide_ligand_efficiency>
-0.18452

> <r_i_glide_ligand_efficiency_ln>
-1.25775

> <r_i_glide_ligand_efficiency_sa>
-0.573348

> <r_i_glide_lipo>
-2.23832

> <r_i_glide_metal>
0

> <r_i_glide_rewards>
-0.402154

> <s_i_glide_gridfile>
wee1_glide-grid

> <s_m_Source_File>
wee1_decoys_glide_SP.sdf

> <s_m_Source_Path>
/Users/zhangxujun/Desktop

> <s_m_entry_id>
3598

> <s_m_entry_name>
wee1_decoys_glide_SP.3323

> <s_m_subgroup_title>
wee1_decoys_glide_SP

> <s_m_subgroupid>
wee1_decoys_glide_SP


$$$$
