@<TRIPOS>MOLECULE
ZINC20745141_1232
51   53    1
SMALL
USER_CHARGES


@<TRIPOS>ATOM
      1 C1          1.6507   56.2055   29.5644 C.3       1 UNK         0.0000 
      2 O2          2.3988   55.5080   28.5776 O.3       1 UNK         0.0000 
      3 C3          3.2716   54.5268   28.9278 C.2       1 UNK         0.0000 
      4 O4          3.5014   54.1691   30.0816 O.2       1 UNK         0.0000 
      5 C5          4.0161   53.9039   27.7536 C.3       1 UNK         0.0000 
      6 H6          4.2954   52.8840   28.0254 H         1 UNK         0.0000 
      7 C7          5.3225   54.6753   27.4355 C.3       1 UNK         0.0000 
      8 C8          6.1718   54.0426   26.3164 C.3       1 UNK         0.0000 
      9 S9          6.3041   55.0818   24.8390 S.3       1 UNK         0.0000 
     10 C10         7.0306   53.9176   23.6531 C.3       1 UNK         0.0000 
     11 N11         3.1463   53.8185   26.5638 N.am      1 UNK         0.0000 
     12 C12         2.1164   52.9583   26.4231 C.2       1 UNK         0.0000 
     13 O13         1.7460   52.2498   27.3610 O.2       1 UNK         0.0000 
     14 N14         1.5615   52.8977   25.1820 N.am      1 UNK         0.0000 
     15 C15         1.8209   53.8987   24.1093 C.3       1 UNK         0.0000 
     16 C16         2.7043   53.2441   23.0085 C.3       1 UNK         0.0000 
     17 C17         2.0992   51.8959   22.6331 C.ar      1 UNK         0.0000 
     18 C18         1.1821   51.2562   23.4635 C.ar      1 UNK         0.0000 
     19 N19         0.8915   50.0820   22.8258 N.pl3     1 UNK         0.0000 
     20 H20         0.2687   49.3545   23.1510 H         1 UNK         0.0000 
     21 C21         1.6266   50.1039   21.6682 C.ar      1 UNK         0.0000 
     22 N22         2.3524   51.1933   21.5404 N.2       1 UNK         0.0000 
     23 C23         0.6626   51.7687   24.8086 C.3       1 UNK         0.0000 
     24 H24         0.7719   50.9734   25.5500 H         1 UNK         0.0000 
     25 C25        -0.8296   52.1222   24.8517 C.ar      1 UNK         0.0000 
     26 C26        -1.5037   52.4995   23.6820 C.ar      1 UNK         0.0000 
     27 C27        -2.8357   52.8972   23.7329 C.ar      1 UNK         0.0000 
     28 C28        -3.5260   52.8943   24.9400 C.ar      1 UNK         0.0000 
     29 C29        -2.8836   52.4757   26.1017 C.ar      1 UNK         0.0000 
     30 C30        -1.5400   52.0974   26.0640 C.ar      1 UNK         0.0000 
     31 F31        -0.9451   51.7027   27.2110 F         1 UNK         0.0000 
     32 Br32       -5.3366   53.4810   25.0048 Br        1 UNK         0.0000 
     33 H33         1.0848   55.5186   30.1980 H         1 UNK         0.0000 
     34 H34         2.3039   56.8053   30.2017 H         1 UNK         0.0000 
     35 H35         0.9460   56.8857   29.0852 H         1 UNK         0.0000 
     36 H36         5.0879   55.6964   27.1450 H         1 UNK         0.0000 
     37 H37         5.9328   54.7683   28.3376 H         1 UNK         0.0000 
     38 H38         7.1778   53.8412   26.6870 H         1 UNK         0.0000 
     39 H39         5.7556   53.0789   26.0342 H         1 UNK         0.0000 
     40 H40         7.3502   54.4572   22.7582 H         1 UNK         0.0000 
     41 H41         7.9016   53.4205   24.0798 H         1 UNK         0.0000 
     42 H42         6.3008   53.1664   23.3507 H         1 UNK         0.0000 
     43 H43         3.4779   54.3121   25.7474 H         1 UNK         0.0000 
     44 H44         0.8469   54.1637   23.6909 H         1 UNK         0.0000 
     45 H45         2.1898   54.8557   24.4797 H         1 UNK         0.0000 
     46 H46         2.7639   53.9012   22.1388 H         1 UNK         0.0000 
     47 H47         3.7249   53.1336   23.3702 H         1 UNK         0.0000 
     48 H48         1.5681   49.2810   20.9704 H         1 UNK         0.0000 
     49 H49        -0.9855   52.5280   22.7340 H         1 UNK         0.0000 
     50 H50        -3.3224   53.2279   22.8348 H         1 UNK         0.0000 
     51 H51        -3.4143   52.4549   27.0412 H         1 UNK         0.0000 
@<TRIPOS>BOND
     1    1    2 1    
     2    1   33 1    
     3    1   34 1    
     4    1   35 1    
     5    2    3 1    
     6    3    4 2    
     7    3    5 1    
     8    5    6 1    
     9    5    7 1    
    10    5   11 1    
    11    7    8 1    
    12    7   36 1    
    13    7   37 1    
    14    8    9 1    
    15    8   38 1    
    16    8   39 1    
    17    9   10 1    
    18   10   40 1    
    19   10   41 1    
    20   10   42 1    
    21   11   12 am   BACKBONE|DICT|INTERRES
    22   11   43 1    
    23   12   13 2    
    24   12   14 am   BACKBONE|DICT|INTERRES
    25   14   23 1    
    26   14   15 1    
    27   15   16 1    
    28   15   44 1    
    29   15   45 1    
    30   16   17 1    
    31   16   46 1    
    32   16   47 1    
    33   17   22 ar   
    34   17   18 ar   
    35   18   19 ar   
    36   18   23 1    
    37   19   20 1    
    38   19   21 ar   
    39   21   22 ar   
    40   21   48 1    
    41   23   24 1    
    42   23   25 1    
    43   25   30 ar   
    44   25   26 ar   
    45   26   27 ar   
    46   26   49 1    
    47   27   28 ar   
    48   27   50 1    
    49   28   29 ar   
    50   28   32 1    
    51   29   30 ar   
    52   29   51 1    
    53   30   31 1    
@<TRIPOS>SUBSTRUCTURE
     1 UNK         1 GROUP             0       ****    0 ROOT    
