@<TRIPOS>MOLECULE
ZINC13031436_2008
47   50    1
SMALL
USER_CHARGES


@<TRIPOS>ATOM
      1 C1          1.0021   47.6306   18.4403 C.3       1 UNK         0.0000 
      2 C2         -0.0558   47.2927   19.4864 C.ar      1 UNK         0.0000 
      3 C3         -0.3921   45.9500   19.6670 C.ar      1 UNK         0.0000 
      4 C4         -1.3286   45.5525   20.6240 C.ar      1 UNK         0.0000 
      5 C5         -1.9780   46.5494   21.3642 C.ar      1 UNK         0.0000 
      6 C6         -1.6888   47.9101   21.1839 C.ar      1 UNK         0.0000 
      7 C7         -0.6931   48.2878   20.2537 C.ar      1 UNK         0.0000 
      8 C8         -0.2722   49.7480   20.0826 C.3       1 UNK         0.0000 
      9 S9         -2.6482   49.1087   22.1577 S.o2      1 UNK         0.0000 
     10 O10        -2.9096   50.2026   21.2135 O.2       1 UNK         0.0000 
     11 O11        -3.8519   48.3674   22.5517 O.2       1 UNK         0.0000 
     12 N12        -1.4594   49.3368   23.4516 N.2       1 UNK         0.0000 
     13 C13        -1.0699   50.5009   23.7877 C.2       1 UNK         0.0000 
     14 N14        -0.1899   50.7888   24.8161 N.pl3     1 UNK         0.0000 
     15 C15         0.2157   52.0980   24.9555 C.2       1 UNK         0.0000 
     16 C16        -0.3505   52.9358   24.0809 C.2       1 UNK         0.0000 
     17 S17        -1.5185   52.0964   23.0741 S.3       1 UNK         0.0000 
     18 C18         1.2373   52.5037   25.9436 C.ar      1 UNK         0.0000 
     19 C19         1.1438   52.0994   27.2847 C.ar      1 UNK         0.0000 
     20 C20         2.1052   52.4961   28.2196 C.ar      1 UNK         0.0000 
     21 C21         3.1828   53.2754   27.8027 C.ar      1 UNK         0.0000 
     22 C22         3.2914   53.6951   26.4772 C.ar      1 UNK         0.0000 
     23 C23         2.3088   53.3263   25.5541 C.ar      1 UNK         0.0000 
     24 N24         4.4262   54.4168   26.1045 N.am      1 UNK         0.0000 
     25 C25         5.5775   54.4965   26.8031 C.2       1 UNK         0.0000 
     26 O26         6.5753   55.0895   26.3942 O.2       1 UNK         0.0000 
     27 C27         5.4889   53.7655   28.1769 C.3       1 UNK         0.0000 
     28 O28         4.1447   53.6611   28.7142 O.3       1 UNK         0.0000 
     29 C29        -1.5985   44.0968   20.8742 C.2       1 UNK         0.0000 
     30 O30        -2.4940   43.7932   21.6930 O.co2     1 UNK         0.0000 
     31 O31        -0.8946   43.2420   20.2852 O.co2     1 UNK         0.0000 
     32 H32         1.9306   47.9452   18.9185 H         1 UNK         0.0000 
     33 H33         1.2196   46.7879   17.7829 H         1 UNK         0.0000 
     34 H34         0.6621   48.4461   17.8014 H         1 UNK         0.0000 
     35 H35         0.1171   45.2002   19.0765 H         1 UNK         0.0000 
     36 H36        -2.7175   46.2605   22.0981 H         1 UNK         0.0000 
     37 H37        -0.8932   50.2421   19.3363 H         1 UNK         0.0000 
     38 H38        -0.3409   50.3001   21.0149 H         1 UNK         0.0000 
     39 H39         0.7718   49.8462   19.7887 H         1 UNK         0.0000 
     40 H40        -0.1789   53.9973   23.9813 H         1 UNK         0.0000 
     41 H41         0.3176   51.4815   27.6093 H         1 UNK         0.0000 
     42 H42         2.0233   52.1859   29.2508 H         1 UNK         0.0000 
     43 H43         2.3987   53.6382   24.5231 H         1 UNK         0.0000 
     44 H44         4.4750   54.8327   25.1870 H         1 UNK         0.0000 
     45 H45         6.1549   54.2632   28.8817 H         1 UNK         0.0000 
     46 H46         5.8710   52.7593   27.9972 H         1 UNK         0.0000 
     47 H47         0.1530   50.0403   25.4007 H         1 UNK         0.0000 
@<TRIPOS>BOND
     1    1    2 1    
     2    1   32 1    
     3    1   33 1    
     4    1   34 1    
     5    2    7 ar   
     6    2    3 ar   
     7    3    4 ar   
     8    3   35 1    
     9    4    5 ar   
    10    4   29 1    
    11    5    6 ar   
    12    5   36 1    
    13    6    7 ar   
    14    6    9 1    
    15    7    8 1    
    16    8   37 1    
    17    8   38 1    
    18    8   39 1    
    19    9   10 2    
    20    9   11 2    
    21    9   12 1    
    22   12   13 2    
    23   13   17 1    
    24   13   14 1    
    25   14   15 1    
    26   14   47 1    
    27   15   16 2    
    28   15   18 1    
    29   16   17 1    
    30   16   40 1    
    31   18   23 ar   
    32   18   19 ar   
    33   19   20 ar   
    34   19   41 1    
    35   20   21 ar   
    36   20   42 1    
    37   21   28 1    
    38   21   22 ar   
    39   22   23 ar   
    40   22   24 1    
    41   23   43 1    
    42   24   25 am   BACKBONE|DICT|INTERRES
    43   24   44 1    
    44   25   26 2    
    45   25   27 1    
    46   27   28 1    
    47   27   45 1    
    48   27   46 1    
    49   29   30 2    
    50   29   31 1    
@<TRIPOS>SUBSTRUCTURE
     1 UNK         1 GROUP             0       ****    0 ROOT    
