@<TRIPOS>MOLECULE
ZINC32961862_5918
59   62    1
SMALL
USER_CHARGES


@<TRIPOS>ATOM
      1 C1          6.4574   54.6233   26.5677 C.3       1 UNK         0.0000 
      2 C2          5.2883   53.9536   27.2868 C.ar      1 UNK         0.0000 
      3 C3          5.5506   53.2970   28.4818 C.ar      1 UNK         0.0000 
      4 C4          4.5361   52.6529   29.1789 C.ar      1 UNK         0.0000 
      5 C5          3.2412   52.6615   28.6779 C.ar      1 UNK         0.0000 
      6 C6          2.9222   53.3255   27.4844 C.ar      1 UNK         0.0000 
      7 C7          3.9717   53.9819   26.7833 C.ar      1 UNK         0.0000 
      8 C8          3.7385   54.7878   25.5105 C.3       1 UNK         0.0000 
      9 N9          1.5971   53.2927   27.0351 N.pl3     1 UNK         0.0000 
     10 C10         0.4371   53.1011   27.9237 C.3       1 UNK         0.0000 
     11 C11        -0.1430   51.6687   27.8674 C.3       1 UNK         0.0000 
     12 N12        -0.6163   51.3241   26.5264 N.pl3     1 UNK         0.0000 
     13 C13         0.4302   51.5597   25.5303 C.3       1 UNK         0.0000 
     14 C14         1.2590   52.8589   25.6693 C.3       1 UNK         0.0000 
     15 C15        -1.9569   51.3952   26.1645 C.ar      1 UNK         0.0000 
     16 C16        -2.6063   52.6320   26.1514 C.ar      1 UNK         0.0000 
     17 C17        -3.9305   52.7495   25.7433 C.ar      1 UNK         0.0000 
     18 C18        -4.6513   51.6233   25.3305 C.ar      1 UNK         0.0000 
     19 C19        -4.0001   50.3812   25.3235 C.ar      1 UNK         0.0000 
     20 C20        -2.6618   50.2598   25.7175 C.ar      1 UNK         0.0000 
     21 N21        -2.0441   49.0008   25.6809 N.pl3     1 UNK         0.0000 
     22 S22        -1.8206   48.1285   24.1600 S.o2      1 UNK         0.0000 
     23 O23        -3.1283   48.0346   23.4993 O.2       1 UNK         0.0000 
     24 O24        -1.0522   46.9209   24.4813 O.2       1 UNK         0.0000 
     25 C25        -0.7766   49.1906   23.1622 C.ar      1 UNK         0.0000 
     26 C26        -1.3596   50.1089   22.2840 C.ar      1 UNK         0.0000 
     27 C27        -0.5504   50.9541   21.5275 C.ar      1 UNK         0.0000 
     28 C28         0.8355   50.8743   21.6489 C.ar      1 UNK         0.0000 
     29 C29         1.4211   49.9655   22.5283 C.ar      1 UNK         0.0000 
     30 C30         0.6110   49.1297   23.2936 C.ar      1 UNK         0.0000 
     31 C31        -6.0823   51.7494   24.9048 C.2       1 UNK         0.0000 
     32 O32        -6.7207   52.7489   25.3087 O.co2     1 UNK         0.0000 
     33 O33        -6.5518   50.8538   24.1693 O.co2     1 UNK         0.0000 
     34 H34         6.5703   54.2118   25.5619 H         1 UNK         0.0000 
     35 H35         6.2905   55.6961   26.4705 H         1 UNK         0.0000 
     36 H36         7.4041   54.4818   27.0918 H         1 UNK         0.0000 
     37 H37         6.5540   53.2965   28.8815 H         1 UNK         0.0000 
     38 H38         4.7519   52.1340   30.1012 H         1 UNK         0.0000 
     39 H39         2.4877   52.1245   29.2343 H         1 UNK         0.0000 
     40 H40         4.2893   54.3526   24.6754 H         1 UNK         0.0000 
     41 H41         2.7042   54.8967   25.2132 H         1 UNK         0.0000 
     42 H42         4.1226   55.7918   25.6808 H         1 UNK         0.0000 
     43 H43        -0.3331   53.8274   27.6820 H         1 UNK         0.0000 
     44 H44         0.7114   53.3277   28.9539 H         1 UNK         0.0000 
     45 H45        -0.9724   51.5917   28.5726 H         1 UNK         0.0000 
     46 H46         0.6018   50.9375   28.1868 H         1 UNK         0.0000 
     47 H47         1.1037   50.7094   25.6423 H         1 UNK         0.0000 
     48 H48         0.0239   51.5115   24.5208 H         1 UNK         0.0000 
     49 H49         2.1517   52.7337   25.0566 H         1 UNK         0.0000 
     50 H50         0.7042   53.6878   25.2301 H         1 UNK         0.0000 
     51 H51        -2.0950   53.5185   26.4788 H         1 UNK         0.0000 
     52 H52        -4.3976   53.7249   25.7582 H         1 UNK         0.0000 
     53 H53        -4.5409   49.4991   25.0060 H         1 UNK         0.0000 
     54 H54        -1.3960   48.7860   26.4302 H         1 UNK         0.0000 
     55 H55        -2.4342   50.1704   22.1948 H         1 UNK         0.0000 
     56 H56        -0.9944   51.6662   20.8483 H         1 UNK         0.0000 
     57 H57         1.4637   51.5284   21.0592 H         1 UNK         0.0000 
     58 H58         2.4950   49.9159   22.6305 H         1 UNK         0.0000 
     59 H59         1.0649   48.4502   23.9978 H         1 UNK         0.0000 
@<TRIPOS>BOND
     1    1    2 1    
     2    1   34 1    
     3    1   35 1    
     4    1   36 1    
     5    2    7 ar   
     6    2    3 ar   
     7    3    4 ar   
     8    3   37 1    
     9    4    5 ar   
    10    4   38 1    
    11    5    6 ar   
    12    5   39 1    
    13    6    7 ar   
    14    6    9 1    
    15    7    8 1    
    16    8   40 1    
    17    8   41 1    
    18    8   42 1    
    19    9   14 1    
    20    9   10 1    
    21   10   11 1    
    22   10   43 1    
    23   10   44 1    
    24   11   12 1    
    25   11   45 1    
    26   11   46 1    
    27   12   13 1    
    28   12   15 1    
    29   13   14 1    
    30   13   47 1    
    31   13   48 1    
    32   14   49 1    
    33   14   50 1    
    34   15   20 ar   
    35   15   16 ar   
    36   16   17 ar   
    37   16   51 1    
    38   17   18 ar   
    39   17   52 1    
    40   18   19 ar   
    41   18   31 1    
    42   19   20 ar   
    43   19   53 1    
    44   20   21 1    
    45   21   22 1    
    46   21   54 1    
    47   22   23 2    
    48   22   24 2    
    49   22   25 1    
    50   25   30 ar   
    51   25   26 ar   
    52   26   27 ar   
    53   26   55 1    
    54   27   28 ar   
    55   27   56 1    
    56   28   29 ar   
    57   28   57 1    
    58   29   30 ar   
    59   29   58 1    
    60   30   59 1    
    61   31   32 2    
    62   31   33 1    
@<TRIPOS>SUBSTRUCTURE
     1 UNK         1 GROUP             0       ****    0 ROOT    
