@<TRIPOS>MOLECULE
ZINC01408540_5285
41   44    1
SMALL
USER_CHARGES


@<TRIPOS>ATOM
      1 C1          1.5029   53.4504   22.9150 C.ar      1 UNK         0.0000 
      2 C2          1.4095   52.3530   22.0654 C.ar      1 UNK         0.0000 
      3 C3          0.8892   51.1389   22.5282 C.ar      1 UNK         0.0000 
      4 C4          0.4946   51.0246   23.8693 C.ar      1 UNK         0.0000 
      5 C5          0.6338   52.1088   24.7429 C.ar      1 UNK         0.0000 
      6 C6          1.0993   53.3343   24.2421 C.ar      1 UNK         0.0000 
      7 N7          0.3041   51.9300   26.1045 N.pl3     1 UNK         0.0000 
      8 C8          0.9222   52.4313   27.2177 C.2       1 UNK         0.0000 
      9 S9          0.1562   52.2182   28.6858 S.2       1 UNK         0.0000 
     10 N10         2.1527   52.9956   26.9968 N.am      1 UNK         0.0000 
     11 C11         3.0360   53.6774   27.7664 C.2       1 UNK         0.0000 
     12 O12         2.8762   53.9820   28.9519 O.2       1 UNK         0.0000 
     13 C13         4.3128   54.0518   27.0420 C.ar      1 UNK         0.0000 
     14 C14         5.4773   54.3447   27.7676 C.ar      1 UNK         0.0000 
     15 C15         6.6663   54.6541   27.1068 C.ar      1 UNK         0.0000 
     16 C16         6.7045   54.6832   25.7135 C.ar      1 UNK         0.0000 
     17 C17         5.5631   54.4011   24.9775 C.ar      1 UNK         0.0000 
     18 C18         4.3766   54.0981   25.6356 C.ar      1 UNK         0.0000 
     19 I19         5.6420   54.3790   22.8881 I         1 UNK         0.0000 
     20 C20         0.7652   50.0012   21.5750 C.2       1 UNK         0.0000 
     21 N21        -0.1440   49.0439   21.5933 N.2       1 UNK         0.0000 
     22 C22         0.1489   48.3043   20.4810 C.ar      1 UNK         0.0000 
     23 C23         1.2811   48.8425   19.8476 C.ar      1 UNK         0.0000 
     24 O24         1.6693   49.9393   20.5468 O.3       1 UNK         0.0000 
     25 C25         1.8310   48.2751   18.6946 C.ar      1 UNK         0.0000 
     26 C26         1.1675   47.1410   18.2157 C.ar      1 UNK         0.0000 
     27 C27         0.0370   46.6589   18.8910 C.ar      1 UNK         0.0000 
     28 N28        -0.4867   47.2208   20.0199 N.ar      1 UNK         0.0000 
     29 H29         1.8799   54.3911   22.5375 H         1 UNK         0.0000 
     30 H30         1.7209   52.4599   21.0351 H         1 UNK         0.0000 
     31 H31         0.1180   50.0800   24.2381 H         1 UNK         0.0000 
     32 H32         1.1584   54.2057   24.8770 H         1 UNK         0.0000 
     33 H33        -0.5041   51.3481   26.2779 H         1 UNK         0.0000 
     34 H34         2.4956   52.8353   26.0622 H         1 UNK         0.0000 
     35 H35         5.4756   54.3264   28.8491 H         1 UNK         0.0000 
     36 H36         7.5542   54.8681   27.6827 H         1 UNK         0.0000 
     37 H37         7.6216   54.9021   25.1893 H         1 UNK         0.0000 
     38 H38         3.5216   53.8841   25.0188 H         1 UNK         0.0000 
     39 H39         2.7038   48.6883   18.2065 H         1 UNK         0.0000 
     40 H40         1.5280   46.6473   17.3251 H         1 UNK         0.0000 
     41 H41        -0.4812   45.7866   18.5202 H         1 UNK         0.0000 
@<TRIPOS>BOND
     1    1    6 ar   
     2    1    2 ar   
     3    1   29 1    
     4    2    3 ar   
     5    2   30 1    
     6    3    4 ar   
     7    3   20 1    
     8    4    5 ar   
     9    4   31 1    
    10    5    6 ar   
    11    5    7 1    
    12    6   32 1    
    13    7    8 1    
    14    7   33 1    
    15    8    9 2    
    16    8   10 am   BACKBONE|DICT|INTERRES
    17   10   11 am   BACKBONE|DICT|INTERRES
    18   10   34 1    
    19   11   12 2    
    20   11   13 1    
    21   13   18 ar   
    22   13   14 ar   
    23   14   15 ar   
    24   14   35 1    
    25   15   16 ar   
    26   15   36 1    
    27   16   17 ar   
    28   16   37 1    
    29   17   18 ar   
    30   17   19 1    
    31   18   38 1    
    32   20   24 1    
    33   20   21 2    
    34   21   22 1    
    35   22   28 ar   
    36   22   23 ar   
    37   23   24 1    
    38   23   25 ar   
    39   25   26 ar   
    40   25   39 1    
    41   26   27 ar   
    42   26   40 1    
    43   27   28 ar   
    44   27   41 1    
@<TRIPOS>SUBSTRUCTURE
     1 UNK         1 GROUP             0       ****    0 ROOT    
