@<TRIPOS>MOLECULE
ZINC64775297_4257
52   55    1
SMALL
USER_CHARGES


@<TRIPOS>ATOM
      1 C1          5.9034   54.4960   27.6809 C.ar      1 UNK         0.0000 
      2 C2          4.8796   54.4272   28.6201 C.ar      1 UNK         0.0000 
      3 C3          3.5605   54.2203   28.2097 C.ar      1 UNK         0.0000 
      4 C4          3.2829   54.0890   26.8432 C.ar      1 UNK         0.0000 
      5 C5          4.2937   54.1789   25.8692 C.ar      1 UNK         0.0000 
      6 C6          5.6119   54.3744   26.3238 C.ar      1 UNK         0.0000 
      7 N7          4.0082   54.0416   24.5045 N.pl3     1 UNK         0.0000 
      8 C8          5.0738   54.0934   23.4815 C.3       1 UNK         0.0000 
      9 C9          4.6492   53.8819   22.0070 C.3       1 UNK         0.0000 
     10 N10         3.5055   52.9605   21.9473 N.am      1 UNK         0.0000 
     11 C11         2.3061   53.3685   22.7043 C.3       1 UNK         0.0000 
     12 C12         2.6790   54.2785   23.9066 C.3       1 UNK         0.0000 
     13 C13         3.6153   51.7641   21.3007 C.2       1 UNK         0.0000 
     14 O14         4.7042   51.3677   20.8828 O.2       1 UNK         0.0000 
     15 C15         2.3263   50.9541   20.9604 C.3       1 UNK         0.0000 
     16 H16         1.6269   51.7148   20.6041 H         1 UNK         0.0000 
     17 N17         2.5848   50.0004   19.8758 N.pl3     1 UNK         0.0000 
     18 C18         1.6527   48.9757   19.6135 C.ar      1 UNK         0.0000 
     19 C19         1.8519   48.1846   18.4813 C.ar      1 UNK         0.0000 
     20 C20         0.9671   47.1527   18.1475 C.ar      1 UNK         0.0000 
     21 C21        -0.1321   46.9109   18.9781 C.ar      1 UNK         0.0000 
     22 C22        -0.3505   47.6961   20.1087 C.ar      1 UNK         0.0000 
     23 C23         0.5327   48.7296   20.4334 C.ar      1 UNK         0.0000 
     24 S24         0.1723   49.7173   21.8829 S.o2      1 UNK         0.0000 
     25 O25        -0.2418   48.8320   22.9742 O.2       1 UNK         0.0000 
     26 O26        -0.7024   50.8251   21.4816 O.2       1 UNK         0.0000 
     27 N27         1.7809   50.3240   22.1747 N.pl3     1 UNK         0.0000 
     28 C28         1.1978   46.2878   16.9074 C.3       1 UNK         0.0000 
     29 F29         2.4626   46.3318   16.4850 F         1 UNK         0.0000 
     30 F30         0.8932   45.0120   17.1615 F         1 UNK         0.0000 
     31 F31         0.4112   46.7208   15.9221 F         1 UNK         0.0000 
     32 C32         2.4480   54.1351   29.2536 C.3       1 UNK         0.0000 
     33 F33         1.2920   53.7098   28.7406 F         1 UNK         0.0000 
     34 F34         2.2506   55.3463   29.7746 F         1 UNK         0.0000 
     35 F35         2.8022   53.2958   30.2284 F         1 UNK         0.0000 
     36 H36         6.9217   54.6462   28.0139 H         1 UNK         0.0000 
     37 H37         5.1166   54.5340   29.6688 H         1 UNK         0.0000 
     38 H38         2.2629   53.9020   26.5546 H         1 UNK         0.0000 
     39 H39         6.4321   54.4357   25.6273 H         1 UNK         0.0000 
     40 H40         5.6020   55.0440   23.5479 H         1 UNK         0.0000 
     41 H41         5.7401   53.2637   23.7212 H         1 UNK         0.0000 
     42 H42         4.2697   54.8301   21.6238 H         1 UNK         0.0000 
     43 H43         5.4881   53.6228   21.3610 H         1 UNK         0.0000 
     44 H44         1.8852   52.4872   23.1808 H         1 UNK         0.0000 
     45 H45         1.5501   53.8445   22.0806 H         1 UNK         0.0000 
     46 H46         1.8650   54.2849   24.6269 H         1 UNK         0.0000 
     47 H47         2.7500   55.2965   23.5400 H         1 UNK         0.0000 
     48 H48         3.3000   50.2614   19.2032 H         1 UNK         0.0000 
     49 H49         2.7044   48.3741   17.8488 H         1 UNK         0.0000 
     50 H50        -0.8307   46.1194   18.7428 H         1 UNK         0.0000 
     51 H51        -1.2100   47.5055   20.7374 H         1 UNK         0.0000 
     52 H52         2.3943   49.6209   22.5932 H         1 UNK         0.0000 
@<TRIPOS>BOND
     1    1    6 ar   
     2    1    2 ar   
     3    1   36 1    
     4    2    3 ar   
     5    2   37 1    
     6    3    4 ar   
     7    3   32 1    
     8    4    5 ar   
     9    4   38 1    
    10    5    6 ar   
    11    5    7 1    
    12    6   39 1    
    13    7   12 1    
    14    7    8 1    
    15    8    9 1    
    16    8   40 1    
    17    8   41 1    
    18    9   10 1    
    19    9   42 1    
    20    9   43 1    
    21   10   11 1    
    22   10   13 am   BACKBONE|DICT|INTERRES
    23   11   12 1    
    24   11   44 1    
    25   11   45 1    
    26   12   46 1    
    27   12   47 1    
    28   13   14 2    
    29   13   15 1    
    30   15   16 1    
    31   15   27 1    
    32   15   17 1    
    33   17   18 1    
    34   17   48 1    
    35   18   23 ar   
    36   18   19 ar   
    37   19   20 ar   
    38   19   49 1    
    39   20   21 ar   
    40   20   28 1    
    41   21   22 ar   
    42   21   50 1    
    43   22   23 ar   
    44   22   51 1    
    45   23   24 1    
    46   24   25 2    
    47   24   26 2    
    48   24   27 1    
    49   27   52 1    
    50   28   29 1    
    51   28   30 1    
    52   28   31 1    
    53   32   33 1    
    54   32   34 1    
    55   32   35 1    
@<TRIPOS>SUBSTRUCTURE
     1 UNK         1 GROUP             0       ****    0 ROOT    
