@<TRIPOS>MOLECULE
ZINC39668956_384
68   72    1
SMALL
USER_CHARGES


@<TRIPOS>ATOM
      1 C1         -2.8890   49.0175   17.4429 C.ar      1 UNK         0.0000 
      2 C2         -2.5522   49.2094   18.7786 C.ar      1 UNK         0.0000 
      3 C3         -1.3751   49.8759   19.1064 C.ar      1 UNK         0.0000 
      4 C4         -0.5148   50.3591   18.1112 C.ar      1 UNK         0.0000 
      5 C5         -0.8753   50.1969   16.7584 C.ar      1 UNK         0.0000 
      6 C6         -2.0540   49.5131   16.4419 C.ar      1 UNK         0.0000 
      7 C7         -0.0061   50.7990   15.6624 C.3       1 UNK         0.0000 
      8 C8          1.4357   51.0201   16.1436 C.3       1 UNK         0.0000 
      9 O9          1.3928   51.7425   17.3709 O.3       1 UNK         0.0000 
     10 C10         0.8096   51.0375   18.4765 C.3       1 UNK         0.0000 
     11 H11         0.5906   51.7982   19.2257 H         1 UNK         0.0000 
     12 C12         1.8251   50.0457   19.1040 C.3       1 UNK         0.0000 
     13 N13         3.1044   50.6781   19.4296 N.am      1 UNK         0.0000 
     14 C14         3.3239   51.4942   20.4706 C.2       1 UNK         0.0000 
     15 O15         2.4612   51.6739   21.3311 O.2       1 UNK         0.0000 
     16 C16         4.6982   52.2428   20.4972 C.3       1 UNK         0.0000 
     17 H17         5.4988   51.5090   20.3777 H         1 UNK         0.0000 
     18 C18         4.8429   52.8766   21.9052 C.3       1 UNK         0.0000 
     19 N19         5.5832   54.1159   21.6915 N.am      1 UNK         0.0000 
     20 C20         5.8052   54.3894   20.2720 C.3       1 UNK         0.0000 
     21 C21         4.8552   53.4429   19.5023 C.3       1 UNK         0.0000 
     22 C22         5.3682   53.0528   18.0954 C.3       1 UNK         0.0000 
     23 C23         5.6712   54.2856   17.2247 C.3       1 UNK         0.0000 
     24 N24         4.3516   55.0668   17.0419 N.4       1 UNK         0.0000 
     25 C25         3.6492   55.4342   18.3667 C.3       1 UNK         0.0000 
     26 C26         3.5063   54.1523   19.2224 C.3       1 UNK         0.0000 
     27 C27         6.2413   54.7968   22.6657 C.2       1 UNK         0.0000 
     28 O28         7.1038   55.6364   22.4014 O.2       1 UNK         0.0000 
     29 C29         5.8637   54.5574   24.1155 C.ar      1 UNK         0.0000 
     30 C30         4.5240   54.4968   24.5247 C.ar      1 UNK         0.0000 
     31 C31         4.1983   54.3173   25.8683 C.ar      1 UNK         0.0000 
     32 C32         5.2092   54.2158   26.8349 C.ar      1 UNK         0.0000 
     33 C33         6.5385   54.3024   26.4305 C.ar      1 UNK         0.0000 
     34 C34         6.8630   54.4781   25.0873 C.ar      1 UNK         0.0000 
     35 O35         4.9964   54.0428   28.1890 O.3       1 UNK         0.0000 
     36 C36         3.6731   53.9138   28.7041 C.3       1 UNK         0.0000 
     37 F37         3.7691   53.7556   30.0245 F         1 UNK         0.0000 
     38 F38         3.0573   52.8363   28.2150 F         1 UNK         0.0000 
     39 F39         2.9451   55.0099   28.4867 F         1 UNK         0.0000 
     40 H40        -3.7962   48.4968   17.1799 H         1 UNK         0.0000 
     41 H41        -3.2003   48.8368   19.5583 H         1 UNK         0.0000 
     42 H42        -1.1210   50.0098   20.1483 H         1 UNK         0.0000 
     43 H43        -2.3355   49.3815   15.4084 H         1 UNK         0.0000 
     44 H44        -0.4299   51.7632   15.3824 H         1 UNK         0.0000 
     45 H45        -0.0152   50.1805   14.7647 H         1 UNK         0.0000 
     46 H46         2.0162   51.5776   15.4092 H         1 UNK         0.0000 
     47 H47         1.9369   50.0614   16.2688 H         1 UNK         0.0000 
     48 H48         2.0285   49.2249   18.4155 H         1 UNK         0.0000 
     49 H49         1.4065   49.5843   20.0003 H         1 UNK         0.0000 
     50 H50         3.8685   50.5048   18.7760 H         1 UNK         0.0000 
     51 H51         5.3900   52.1840   22.5421 H         1 UNK         0.0000 
     52 H52         3.8794   53.1900   22.3016 H         1 UNK         0.0000 
     53 H53         5.7761   55.4398   19.9901 H         1 UNK         0.0000 
     54 H54         6.8275   54.0968   20.0471 H         1 UNK         0.0000 
     55 H55         6.2993   52.4973   18.1966 H         1 UNK         0.0000 
     56 H56         4.6660   52.3925   17.5873 H         1 UNK         0.0000 
     57 H57         6.3956   54.9734   17.6635 H         1 UNK         0.0000 
     58 H58         6.0058   54.0081   16.2232 H         1 UNK         0.0000 
     59 H59         4.5021   55.8983   16.4832 H         1 UNK         0.0000 
     60 H60         4.2364   56.2266   18.8276 H         1 UNK         0.0000 
     61 H61         2.6789   55.8386   18.0818 H         1 UNK         0.0000 
     62 H62         2.7681   53.4924   18.7700 H         1 UNK         0.0000 
     63 H63         3.1152   54.4050   20.2053 H         1 UNK         0.0000 
     64 H64         3.7203   54.6181   23.8124 H         1 UNK         0.0000 
     65 H65         3.1551   54.2702   26.1381 H         1 UNK         0.0000 
     66 H66         7.3243   54.2295   27.1689 H         1 UNK         0.0000 
     67 H67         7.9030   54.5288   24.8014 H         1 UNK         0.0000 
     68 H68         3.7191   54.4768   16.5143 H         1 UNK         0.0000 
@<TRIPOS>BOND
     1    1    6 ar   
     2    1    2 ar   
     3    1   40 1    
     4    2    3 ar   
     5    2   41 1    
     6    3    4 ar   
     7    3   42 1    
     8    4   10 1    
     9    4    5 ar   
    10    5    6 ar   
    11    5    7 1    
    12    6   43 1    
    13    7    8 1    
    14    7   44 1    
    15    7   45 1    
    16    8    9 1    
    17    8   46 1    
    18    8   47 1    
    19    9   10 1    
    20   10   11 1    
    21   10   12 1    
    22   12   13 1    
    23   12   48 1    
    24   12   49 1    
    25   13   14 am   BACKBONE|DICT|INTERRES
    26   13   50 1    
    27   14   15 2    
    28   14   16 1    
    29   16   17 1    
    30   16   21 1    
    31   16   18 1    
    32   18   19 1    
    33   18   51 1    
    34   18   52 1    
    35   19   20 1    
    36   19   27 am   BACKBONE|DICT|INTERRES
    37   20   21 1    
    38   20   53 1    
    39   20   54 1    
    40   21   26 1    
    41   21   22 1    
    42   22   23 1    
    43   22   55 1    
    44   22   56 1    
    45   23   24 1    
    46   23   57 1    
    47   23   58 1    
    48   24   25 1    
    49   24   59 1    
    50   24   68 1    
    51   25   26 1    
    52   25   60 1    
    53   25   61 1    
    54   26   62 1    
    55   26   63 1    
    56   27   28 2    
    57   27   29 1    
    58   29   34 ar   
    59   29   30 ar   
    60   30   31 ar   
    61   30   64 1    
    62   31   32 ar   
    63   31   65 1    
    64   32   33 ar   
    65   32   35 1    
    66   33   34 ar   
    67   33   66 1    
    68   34   67 1    
    69   35   36 1    
    70   36   37 1    
    71   36   38 1    
    72   36   39 1    
@<TRIPOS>SUBSTRUCTURE
     1 UNK         1 GROUP             0       ****    0 ROOT    
