@<TRIPOS>MOLECULE
ZINC16801287_4178
57   61    1
SMALL
USER_CHARGES


@<TRIPOS>ATOM
      1 C1          2.0680   50.0186   22.6990 C.ar      1 UNK         0.0000 
      2 C2          1.0602   49.8961   23.6484 C.ar      1 UNK         0.0000 
      3 C3         -0.1695   50.5384   23.4797 C.ar      1 UNK         0.0000 
      4 C4         -0.4038   51.2804   22.2960 C.ar      1 UNK         0.0000 
      5 C5          0.6196   51.3637   21.3321 C.ar      1 UNK         0.0000 
      6 C6          1.8648   50.7530   21.5313 C.ar      1 UNK         0.0000 
      7 C7          2.9948   50.9037   20.5442 C.2       1 UNK         0.0000 
      8 O8          4.1462   51.1143   20.9153 O.2       1 UNK         0.0000 
      9 N9          2.7004   50.7503   19.2561 N.am      1 UNK         0.0000 
     10 N10        -1.6758   51.9963   22.0376 N.pl3     1 UNK         0.0000 
     11 O11        -2.0532   52.0955   20.8724 O.co2     1 UNK         0.0000 
     12 O12        -2.2911   52.4923   22.9748 O.co2     1 UNK         0.0000 
     13 C13        -1.1970   50.3780   24.6076 C.3       1 UNK         0.0000 
     14 S14        -1.2407   51.6271   25.9752 S.3       1 UNK         0.0000 
     15 C15         0.3620   52.4964   26.0278 C.ar      1 UNK         0.0000 
     16 N16         0.8886   52.7996   24.8956 N.2       1 UNK         0.0000 
     17 C17         2.1272   53.3378   24.8833 C.ar      1 UNK         0.0000 
     18 C18         2.8869   53.6073   26.0087 C.ar      1 UNK         0.0000 
     19 C19         4.1740   54.0825   25.6861 C.2       1 UNK         0.0000 
     20 C20         4.3586   54.1588   24.2942 C.2       1 UNK         0.0000 
     21 S21         2.9416   53.6976   23.4054 S.3       1 UNK         0.0000 
     22 C22         5.6709   54.5118   23.6189 C.3       1 UNK         0.0000 
     23 C23         6.5274   55.3011   24.6283 C.3       1 UNK         0.0000 
     24 C24         6.6518   54.5360   25.9600 C.3       1 UNK         0.0000 
     25 C25         5.2953   54.3874   26.6827 C.3       1 UNK         0.0000 
     26 C26         2.3049   53.3519   27.3256 C.ar      1 UNK         0.0000 
     27 O27         2.8895   53.5511   28.3936 O.2       1 UNK         0.0000 
     28 N28         0.9914   52.8703   27.2312 N.pl3     1 UNK         0.0000 
     29 C29         0.2189   52.7647   28.5138 C.3       1 UNK         0.0000 
     30 C30         0.7041   51.6433   29.4520 C.3       1 UNK         0.0000 
     31 C31         0.5234   52.1713   30.8775 C.3       1 UNK         0.0000 
     32 C32         0.7746   53.6694   30.7518 C.3       1 UNK         0.0000 
     33 C33         0.1574   54.0417   29.4012 C.3       1 UNK         0.0000 
     34 H34         3.0147   49.5342   22.8814 H         1 UNK         0.0000 
     35 H35         1.2480   49.3166   24.5408 H         1 UNK         0.0000 
     36 H36         0.4583   51.9528   20.4390 H         1 UNK         0.0000 
     37 H37         1.7693   50.5181   18.9538 H         1 UNK         0.0000 
     38 H38         3.4654   50.7516   18.5864 H         1 UNK         0.0000 
     39 H39        -2.1989   50.2914   24.1901 H         1 UNK         0.0000 
     40 H40        -1.0330   49.4150   25.0940 H         1 UNK         0.0000 
     41 H41         6.1908   53.5973   23.3296 H         1 UNK         0.0000 
     42 H42         5.5209   55.0715   22.6961 H         1 UNK         0.0000 
     43 H43         7.5043   55.4886   24.1961 H         1 UNK         0.0000 
     44 H44         6.0885   56.2842   24.8081 H         1 UNK         0.0000 
     45 H45         7.0633   53.5443   25.7647 H         1 UNK         0.0000 
     46 H46         7.3597   55.0246   26.6276 H         1 UNK         0.0000 
     47 H47         5.0590   55.2967   27.2312 H         1 UNK         0.0000 
     48 H48         5.3724   53.6026   27.4364 H         1 UNK         0.0000 
     49 H49        -0.8364   52.5486   28.3466 H         1 UNK         0.0000 
     50 H50         0.1419   50.7298   29.2746 H         1 UNK         0.0000 
     51 H51         1.7553   51.4016   29.2910 H         1 UNK         0.0000 
     52 H52        -0.4961   51.9877   31.2202 H         1 UNK         0.0000 
     53 H53         1.1977   51.6980   31.5933 H         1 UNK         0.0000 
     54 H54         0.3419   54.2316   31.5803 H         1 UNK         0.0000 
     55 H55         1.8459   53.8663   30.7438 H         1 UNK         0.0000 
     56 H56         0.6359   54.9180   28.9624 H         1 UNK         0.0000 
     57 H57        -0.8844   54.2895   29.6007 H         1 UNK         0.0000 
@<TRIPOS>BOND
     1    1    6 ar   
     2    1    2 ar   
     3    1   34 1    
     4    2    3 ar   
     5    2   35 1    
     6    3    4 ar   
     7    3   13 1    
     8    4    5 ar   
     9    4   10 1    
    10    5    6 ar   
    11    5   36 1    
    12    6    7 1    
    13    7    8 2    
    14    7    9 am   BACKBONE|DICT|INTERRES
    15    9   37 1    
    16    9   38 1    
    17   10   11 2    
    18   10   12 1    
    19   13   14 1    
    20   13   39 1    
    21   13   40 1    
    22   14   15 1    
    23   15   28 ar   
    24   15   16 ar   
    25   16   17 ar   
    26   17   21 1    
    27   17   18 ar   
    28   18   19 1    
    29   18   26 ar   
    30   19   25 1    
    31   19   20 2    
    32   20   21 1    
    33   20   22 1    
    34   22   23 1    
    35   22   41 1    
    36   22   42 1    
    37   23   24 1    
    38   23   43 1    
    39   23   44 1    
    40   24   25 1    
    41   24   45 1    
    42   24   46 1    
    43   25   47 1    
    44   25   48 1    
    45   26   27 2    
    46   26   28 ar   
    47   28   29 1    
    48   29   33 1    
    49   29   30 1    
    50   29   49 1    
    51   30   31 1    
    52   30   50 1    
    53   30   51 1    
    54   31   32 1    
    55   31   52 1    
    56   31   53 1    
    57   32   33 1    
    58   32   54 1    
    59   32   55 1    
    60   33   56 1    
    61   33   57 1    
@<TRIPOS>SUBSTRUCTURE
     1 UNK         1 GROUP             0       ****    0 ROOT    
