@<TRIPOS>MOLECULE
ZINC09781159_1234
59   63    1
SMALL
USER_CHARGES


@<TRIPOS>ATOM
      1 C1         -0.8113   54.6728   16.8544 C.3       1 UNK         0.0000 
      2 C2         -1.8995   53.6289   17.0878 C.ar      1 UNK         0.0000 
      3 C3         -3.0832   53.7133   16.3473 C.ar      1 UNK         0.0000 
      4 C4         -4.0989   52.7735   16.5226 C.ar      1 UNK         0.0000 
      5 C5         -3.9459   51.7501   17.4570 C.ar      1 UNK         0.0000 
      6 C6         -2.7726   51.6566   18.2047 C.ar      1 UNK         0.0000 
      7 C7         -1.7388   52.5900   18.0250 C.ar      1 UNK         0.0000 
      8 N8         -0.5086   52.4966   18.7025 N.am      1 UNK         0.0000 
      9 C9         -0.2258   51.9395   19.8986 C.2       1 UNK         0.0000 
     10 O10        -1.0742   51.4761   20.6619 O.2       1 UNK         0.0000 
     11 C11         1.1869   51.9972   20.2439 C.2       1 UNK         0.0000 
     12 C12         2.1738   51.6172   19.3739 C.2       1 UNK         0.0000 
     13 N13         3.5011   51.7596   19.7337 N.pl3     1 UNK         0.0000 
     14 C14         3.8729   52.3828   20.8538 C.ar      1 UNK         0.0000 
     15 N15         5.1043   52.6248   21.2565 N.2       1 UNK         0.0000 
     16 C16         4.9687   53.2966   22.3337 C.ar      1 UNK         0.0000 
     17 N17         3.6066   53.5032   22.6638 N.pl3     1 UNK         0.0000 
     18 N18         2.9596   52.8176   21.6919 N.pl3     1 UNK         0.0000 
     19 C19         1.5094   52.6177   21.6316 C.3       1 UNK         0.0000 
     20 H20         1.0759   53.6172   21.6824 H         1 UNK         0.0000 
     21 C21         1.0328   51.8335   22.8606 C.ar      1 UNK         0.0000 
     22 C22         1.1380   50.4377   22.9311 C.ar      1 UNK         0.0000 
     23 C23         0.7042   49.7927   24.0921 C.ar      1 UNK         0.0000 
     24 C24         0.1904   50.5462   25.1474 C.ar      1 UNK         0.0000 
     25 C25         0.1288   51.9338   25.0058 C.ar      1 UNK         0.0000 
     26 N26         0.5453   52.5817   23.8864 N.ar      1 UNK         0.0000 
     27 S27         6.3195   53.8906   23.3783 S.3       1 UNK         0.0000 
     28 C28         5.4695   54.9807   24.5668 C.3       1 UNK         0.0000 
     29 C29         5.2832   54.3543   25.9388 C.ar      1 UNK         0.0000 
     30 C30         6.3749   54.2147   26.7998 C.ar      1 UNK         0.0000 
     31 C31         6.1899   53.6959   28.0770 C.ar      1 UNK         0.0000 
     32 C32         4.9142   53.3087   28.4835 C.ar      1 UNK         0.0000 
     33 C33         3.8214   53.4464   27.6321 C.ar      1 UNK         0.0000 
     34 C34         4.0051   53.9719   26.3576 C.ar      1 UNK         0.0000 
     35 C35         1.9895   50.9971   17.9966 C.3       1 UNK         0.0000 
     36 H36         0.0828   54.2010   16.4413 H         1 UNK         0.0000 
     37 H37        -1.1295   55.4621   16.1713 H         1 UNK         0.0000 
     38 H38        -0.5312   55.1480   17.7960 H         1 UNK         0.0000 
     39 H39        -3.2183   54.5041   15.6209 H         1 UNK         0.0000 
     40 H40        -5.0061   52.8439   15.9396 H         1 UNK         0.0000 
     41 H41        -4.7308   51.0200   17.5937 H         1 UNK         0.0000 
     42 H42        -2.6704   50.8352   18.8978 H         1 UNK         0.0000 
     43 H43         0.2524   52.9934   18.2621 H         1 UNK         0.0000 
     44 H44         1.5444   49.8655   22.1102 H         1 UNK         0.0000 
     45 H45         0.7738   48.7174   24.1761 H         1 UNK         0.0000 
     46 H46        -0.1503   50.0613   26.0523 H         1 UNK         0.0000 
     47 H47        -0.2643   52.5497   25.8000 H         1 UNK         0.0000 
     48 H48         6.0642   55.8888   24.6738 H         1 UNK         0.0000 
     49 H49         4.5038   55.2967   24.1882 H         1 UNK         0.0000 
     50 H50         7.3657   54.5007   26.4842 H         1 UNK         0.0000 
     51 H51         7.0322   53.5910   28.7474 H         1 UNK         0.0000 
     52 H52         4.7684   52.8967   29.4706 H         1 UNK         0.0000 
     53 H53         2.8368   53.1414   27.9564 H         1 UNK         0.0000 
     54 H54         3.1518   54.0774   25.7021 H         1 UNK         0.0000 
     55 H55         1.1867   50.2565   17.9934 H         1 UNK         0.0000 
     56 H56         1.7717   51.7626   17.2480 H         1 UNK         0.0000 
     57 H57         2.8982   50.4966   17.6816 H         1 UNK         0.0000 
     58 H58         4.2200   51.4000   19.1083 H         1 UNK         0.0000 
     59 H59         3.2168   54.4185   22.8246 H         1 UNK         0.0000 
@<TRIPOS>BOND
     1    1    2 1    
     2    1   36 1    
     3    1   37 1    
     4    1   38 1    
     5    2    7 ar   
     6    2    3 ar   
     7    3    4 ar   
     8    3   39 1    
     9    4    5 ar   
    10    4   40 1    
    11    5    6 ar   
    12    5   41 1    
    13    6    7 ar   
    14    6   42 1    
    15    7    8 1    
    16    8    9 am   BACKBONE|DICT|INTERRES
    17    8   43 1    
    18    9   10 2    
    19    9   11 1    
    20   11   19 1    
    21   11   12 2    
    22   12   13 1    
    23   12   35 1    
    24   13   14 2    
    25   13   58 1    
    26   14   18 ar   
    27   14   15 ar   
    28   15   16 ar   
    29   16   17 ar   
    30   16   27 1    
    31   17   18 1    
    32   17   59 1    
    33   18   19 1    
    34   19   20 1    
    35   19   21 1    
    36   21   26 ar   
    37   21   22 ar   
    38   22   23 ar   
    39   22   44 1    
    40   23   24 ar   
    41   23   45 1    
    42   24   25 ar   
    43   24   46 1    
    44   25   26 ar   
    45   25   47 1    
    46   27   28 1    
    47   28   29 1    
    48   28   48 1    
    49   28   49 1    
    50   29   34 ar   
    51   29   30 ar   
    52   30   31 ar   
    53   30   50 1    
    54   31   32 ar   
    55   31   51 1    
    56   32   33 ar   
    57   32   52 1    
    58   33   34 ar   
    59   33   53 1    
    60   34   54 1    
    61   35   55 1    
    62   35   56 1    
    63   35   57 1    
@<TRIPOS>SUBSTRUCTURE
     1 UNK         1 GROUP             0       ****    0 ROOT    
