@<TRIPOS>MOLECULE
ZINC34756481_619
65   69    1
SMALL
USER_CHARGES


@<TRIPOS>ATOM
      1 C1         -5.8840   50.8779   23.2082 C.3       1 UNK         0.0000 
      2 C2         -4.7934   51.0221   24.2536 C.ar      1 UNK         0.0000 
      3 C3         -5.1144   51.4562   25.5386 C.ar      1 UNK         0.0000 
      4 C4         -4.1224   51.5497   26.5114 C.ar      1 UNK         0.0000 
      5 C5         -2.7957   51.2172   26.2186 C.ar      1 UNK         0.0000 
      6 C6         -2.4585   50.8064   24.9096 C.ar      1 UNK         0.0000 
      7 C7         -3.4675   50.7150   23.9419 C.ar      1 UNK         0.0000 
      8 C8         -1.0469   50.3793   24.5034 C.3       1 UNK         0.0000 
      9 N9         -0.1679   51.4935   23.8777 N.4       1 UNK         0.0000 
     10 C10         1.1601   50.8951   23.3629 C.3       1 UNK         0.0000 
     11 C11         2.1037   52.0093   22.8667 C.3       1 UNK         0.0000 
     12 N12         2.3595   53.0439   23.8860 N.pl3     1 UNK         0.0000 
     13 C13         1.1036   53.6582   24.3213 C.3       1 UNK         0.0000 
     14 C14         0.0855   52.6388   24.8795 C.3       1 UNK         0.0000 
     15 C15         3.5862   53.6968   23.9817 C.ar      1 UNK         0.0000 
     16 C16         4.2246   54.0372   25.2152 C.ar      1 UNK         0.0000 
     17 C17         3.8932   53.9004   26.6179 C.2       1 UNK         0.0000 
     18 C18         4.9642   54.2963   27.4236 C.2       1 UNK         0.0000 
     19 S19         6.3458   54.8967   26.5625 S.3       1 UNK         0.0000 
     20 C20         5.5452   54.5732   25.0572 C.ar      1 UNK         0.0000 
     21 N21         6.1614   54.8028   23.8998 N.ar      1 UNK         0.0000 
     22 C22         5.4325   54.4967   22.8059 C.ar      1 UNK         0.0000 
     23 N23         4.1938   53.9552   22.7939 N.ar      1 UNK         0.0000 
     24 S24         6.0932   55.1038   21.2815 S.3       1 UNK         0.0000 
     25 C25         4.9212   54.6726   19.9619 C.3       1 UNK         0.0000 
     26 C26         4.9734   53.1960   19.5942 C.2       1 UNK         0.0000 
     27 O27         4.9989   52.3175   20.4547 O.2       1 UNK         0.0000 
     28 N28         5.0013   52.8967   18.3027 N.am      1 UNK         0.0000 
     29 C29         4.9802   54.2550   28.9362 C.3       1 UNK         0.0000 
     30 C30         3.9860   53.1797   29.4089 C.3       1 UNK         0.0000 
     31 C31         2.6066   53.4063   28.7741 C.3       1 UNK         0.0000 
     32 C32         2.6139   53.3136   27.2287 C.3       1 UNK         0.0000 
     33 C33        -1.7885   51.2809   27.3628 C.3       1 UNK         0.0000 
     34 H34        -5.4803   50.8967   22.1957 H         1 UNK         0.0000 
     35 H35        -6.4278   49.9443   23.3544 H         1 UNK         0.0000 
     36 H36        -6.5996   51.6969   23.2818 H         1 UNK         0.0000 
     37 H37        -6.1361   51.6991   25.7925 H         1 UNK         0.0000 
     38 H38        -4.3957   51.8608   27.5091 H         1 UNK         0.0000 
     39 H39        -3.2256   50.3775   22.9441 H         1 UNK         0.0000 
     40 H40        -1.1001   49.6065   23.7336 H         1 UNK         0.0000 
     41 H41        -0.4744   49.9491   25.3255 H         1 UNK         0.0000 
     42 H42         1.6049   50.3106   24.1701 H         1 UNK         0.0000 
     43 H43         0.8918   50.2362   22.5351 H         1 UNK         0.0000 
     44 H44         1.6475   52.5280   22.0210 H         1 UNK         0.0000 
     45 H45         3.0340   51.5846   22.4821 H         1 UNK         0.0000 
     46 H46         1.2765   54.4965   24.9889 H         1 UNK         0.0000 
     47 H47         0.6918   54.1124   23.4192 H         1 UNK         0.0000 
     48 H48         0.4256   52.1820   25.8085 H         1 UNK         0.0000 
     49 H49        -0.8862   53.1137   25.0192 H         1 UNK         0.0000 
     50 H50         3.9039   54.8967   20.2748 H         1 UNK         0.0000 
     51 H51         5.1424   55.2957   19.0953 H         1 UNK         0.0000 
     52 H52         4.9690   53.5875   17.5710 H         1 UNK         0.0000 
     53 H53         5.1044   51.8956   18.0817 H         1 UNK         0.0000 
     54 H54         4.7152   55.2319   29.3430 H         1 UNK         0.0000 
     55 H55         5.9911   54.0446   29.2817 H         1 UNK         0.0000 
     56 H56         3.9075   53.1980   30.4963 H         1 UNK         0.0000 
     57 H57         4.3562   52.1863   29.1469 H         1 UNK         0.0000 
     58 H58         2.2420   54.3913   29.0716 H         1 UNK         0.0000 
     59 H59         1.8862   52.6934   29.1783 H         1 UNK         0.0000 
     60 H60         2.5031   52.2736   26.9242 H         1 UNK         0.0000 
     61 H61         1.7294   53.8412   26.8894 H         1 UNK         0.0000 
     62 H62        -2.2829   51.1127   28.3214 H         1 UNK         0.0000 
     63 H63        -1.0359   50.4969   27.3044 H         1 UNK         0.0000 
     64 H64        -1.2955   52.2513   27.4032 H         1 UNK         0.0000 
     65 H65        -0.6364   51.8988   23.0794 H         1 UNK         0.0000 
@<TRIPOS>BOND
     1    1    2 1    
     2    1   34 1    
     3    1   35 1    
     4    1   36 1    
     5    2    7 ar   
     6    2    3 ar   
     7    3    4 ar   
     8    3   37 1    
     9    4    5 ar   
    10    4   38 1    
    11    5    6 ar   
    12    5   33 1    
    13    6    7 ar   
    14    6    8 1    
    15    7   39 1    
    16    8    9 1    
    17    8   40 1    
    18    8   41 1    
    19    9   14 1    
    20    9   10 1    
    21    9   65 1    
    22   10   11 1    
    23   10   42 1    
    24   10   43 1    
    25   11   12 1    
    26   11   44 1    
    27   11   45 1    
    28   12   13 1    
    29   12   15 1    
    30   13   14 1    
    31   13   46 1    
    32   13   47 1    
    33   14   48 1    
    34   14   49 1    
    35   15   23 ar   
    36   15   16 ar   
    37   16   20 ar   
    38   16   17 1    
    39   17   32 1    
    40   17   18 2    
    41   18   19 1    
    42   18   29 1    
    43   19   20 1    
    44   20   21 ar   
    45   21   22 ar   
    46   22   23 ar   
    47   22   24 1    
    48   24   25 1    
    49   25   26 1    
    50   25   50 1    
    51   25   51 1    
    52   26   27 2    
    53   26   28 am   BACKBONE|DICT|INTERRES
    54   28   52 1    
    55   28   53 1    
    56   29   30 1    
    57   29   54 1    
    58   29   55 1    
    59   30   31 1    
    60   30   56 1    
    61   30   57 1    
    62   31   32 1    
    63   31   58 1    
    64   31   59 1    
    65   32   60 1    
    66   32   61 1    
    67   33   62 1    
    68   33   63 1    
    69   33   64 1    
@<TRIPOS>SUBSTRUCTURE
     1 UNK         1 GROUP             0       ****    0 ROOT    
