@<TRIPOS>MOLECULE
ZINC35646853_323
78   80    1
SMALL
USER_CHARGES


@<TRIPOS>ATOM
      1 C1          0.2626   48.6395   21.1035 C.3       1 UNK         0.0000 
      2 C2         -0.0306   49.9714   20.3937 C.3       1 UNK         0.0000 
      3 N3          0.4383   51.1543   21.1613 N.am      1 UNK         0.0000 
      4 C4          1.7681   51.5555   21.3013 C.2       1 UNK         0.0000 
      5 C5          2.1199   52.4438   22.2870 C.2       1 UNK         0.0000 
      6 C6          1.0544   52.8918   23.3396 C.3       1 UNK         0.0000 
      7 H7          1.0245   53.9833   23.2995 H         1 UNK         0.0000 
      8 N8         -0.2868   52.4981   22.8752 N.am      1 UNK         0.0000 
      9 C9         -0.5951   51.8604   21.7266 C.2       1 UNK         0.0000 
     10 O10        -1.7046   52.0614   21.2314 O.2       1 UNK         0.0000 
     11 C11         1.2493   52.5608   24.8436 C.ar      1 UNK         0.0000 
     12 C12         1.8264   53.5380   25.6709 C.ar      1 UNK         0.0000 
     13 C13         1.8669   53.3884   27.0557 C.ar      1 UNK         0.0000 
     14 C14         1.2914   52.2724   27.6571 C.ar      1 UNK         0.0000 
     15 C15         0.7050   51.2910   26.8575 C.ar      1 UNK         0.0000 
     16 C16         0.7047   51.4044   25.4625 C.ar      1 UNK         0.0000 
     17 C17         0.1885   50.2038   24.6798 C.3       1 UNK         0.0000 
     18 C18         1.2852   52.1313   29.1680 C.3       1 UNK         0.0000 
     19 C19         3.5106   52.9512   22.4818 C.2       1 UNK         0.0000 
     20 O20         4.5158   52.4521   21.9828 O.2       1 UNK         0.0000 
     21 O21         3.6049   54.0355   23.2901 O.3       1 UNK         0.0000 
     22 C22         4.8521   54.4795   23.8393 C.3       1 UNK         0.0000 
     23 C23         5.9186   54.8964   22.8033 C.3       1 UNK         0.0000 
     24 C24         2.7465   50.9387   20.2456 C.3       1 UNK         0.0000 
     25 N25         2.9811   51.6960   18.9001 N.4       1 UNK         0.0000 
     26 C26         3.6854   53.0667   19.0740 C.3       1 UNK         0.0000 
     27 C27         4.1139   53.7540   17.7627 C.3       1 UNK         0.0000 
     28 C28         3.0197   54.5778   17.0464 C.3       1 UNK         0.0000 
     29 N29         1.7551   53.8577   16.7940 N.am      1 UNK         0.0000 
     30 C30         1.8592   52.3963   16.6618 C.3       1 UNK         0.0000 
     31 C31         1.7225   51.6551   17.9985 C.3       1 UNK         0.0000 
     32 C32         0.5307   54.4533   16.8824 C.2       1 UNK         0.0000 
     33 O33        -0.5200   53.8071   16.9394 O.2       1 UNK         0.0000 
     34 N34         0.5164   55.7895   16.6842 N.am      1 UNK         0.0000 
     35 C35        -0.6854   56.6061   16.4832 C.3       1 UNK         0.0000 
     36 C36        -1.4570   56.8667   17.7904 C.3       1 UNK         0.0000 
     37 C37        -0.3164   57.9169   15.7735 C.3       1 UNK         0.0000 
     38 H38        -0.0530   47.8006   20.4836 H         1 UNK         0.0000 
     39 H39         1.3238   48.5064   21.3101 H         1 UNK         0.0000 
     40 H40        -0.2815   48.5645   22.0466 H         1 UNK         0.0000 
     41 H41        -1.1100   49.9852   20.2275 H         1 UNK         0.0000 
     42 H42         0.3777   49.9575   19.3899 H         1 UNK         0.0000 
     43 H43        -1.0691   52.7980   23.4367 H         1 UNK         0.0000 
     44 H44         2.2079   54.4629   25.2606 H         1 UNK         0.0000 
     45 H45         2.3123   54.1647   27.6617 H         1 UNK         0.0000 
     46 H46         0.2706   50.4154   27.3198 H         1 UNK         0.0000 
     47 H47         0.2888   49.2779   25.2516 H         1 UNK         0.0000 
     48 H48        -0.8603   50.3246   24.4048 H         1 UNK         0.0000 
     49 H49         0.7804   50.0523   23.7785 H         1 UNK         0.0000 
     50 H50         0.4688   51.4920   29.5074 H         1 UNK         0.0000 
     51 H51         2.2277   51.7106   29.5163 H         1 UNK         0.0000 
     52 H52         1.1428   53.1036   29.6405 H         1 UNK         0.0000 
     53 H53         4.6267   55.3249   24.4889 H         1 UNK         0.0000 
     54 H54         5.2530   53.7051   24.4957 H         1 UNK         0.0000 
     55 H55         6.6130   55.6289   23.2131 H         1 UNK         0.0000 
     56 H56         6.5168   54.0412   22.4915 H         1 UNK         0.0000 
     57 H57         5.4666   55.3061   21.9023 H         1 UNK         0.0000 
     58 H58         2.4820   49.9300   19.9329 H         1 UNK         0.0000 
     59 H59         3.7491   50.7616   20.6238 H         1 UNK         0.0000 
     60 H60         4.5996   52.7894   19.5980 H         1 UNK         0.0000 
     61 H61         3.0673   53.6954   19.7153 H         1 UNK         0.0000 
     62 H62         4.5348   53.0117   17.0828 H         1 UNK         0.0000 
     63 H63         4.9466   54.4218   17.9834 H         1 UNK         0.0000 
     64 H64         3.4348   54.8545   16.0770 H         1 UNK         0.0000 
     65 H65         2.8347   55.4787   17.6347 H         1 UNK         0.0000 
     66 H66         1.0191   52.0694   16.0447 H         1 UNK         0.0000 
     67 H67         2.7230   52.0769   16.0764 H         1 UNK         0.0000 
     68 H68         0.8776   52.0209   18.5828 H         1 UNK         0.0000 
     69 H69         1.5818   50.5912   17.7965 H         1 UNK         0.0000 
     70 H70         1.3928   56.2526   16.5074 H         1 UNK         0.0000 
     71 H71        -1.3532   56.0618   15.8075 H         1 UNK         0.0000 
     72 H72        -2.3821   57.4036   17.5854 H         1 UNK         0.0000 
     73 H73        -0.8909   57.4899   18.4813 H         1 UNK         0.0000 
     74 H74        -1.7201   55.9399   18.2972 H         1 UNK         0.0000 
     75 H75        -1.1904   58.5601   15.6543 H         1 UNK         0.0000 
     76 H76         0.4152   58.4929   16.3470 H         1 UNK         0.0000 
     77 H77         0.0818   57.7378   14.7728 H         1 UNK         0.0000 
     78 H78         3.6843   51.1350   18.4146 H         1 UNK         0.0000 
@<TRIPOS>BOND
     1    1    2 1    
     2    1   38 1    
     3    1   39 1    
     4    1   40 1    
     5    2    3 1    
     6    2   41 1    
     7    2   42 1    
     8    3    9 am   BACKBONE|DICT|INTERRES
     9    3    4 1    
    10    4    5 2    
    11    4   24 1    
    12    5    6 1    
    13    5   19 1    
    14    6    7 1    
    15    6    8 1    
    16    6   11 1    
    17    8    9 am   BACKBONE|DICT|INTERRES
    18    8   43 1    
    19    9   10 2    
    20   11   16 ar   
    21   11   12 ar   
    22   12   13 ar   
    23   12   44 1    
    24   13   14 ar   
    25   13   45 1    
    26   14   15 ar   
    27   14   18 1    
    28   15   16 ar   
    29   15   46 1    
    30   16   17 1    
    31   17   47 1    
    32   17   48 1    
    33   17   49 1    
    34   18   50 1    
    35   18   51 1    
    36   18   52 1    
    37   19   20 2    
    38   19   21 1    
    39   21   22 1    
    40   22   23 1    
    41   22   53 1    
    42   22   54 1    
    43   23   55 1    
    44   23   56 1    
    45   23   57 1    
    46   24   25 1    
    47   24   58 1    
    48   24   59 1    
    49   25   31 1    
    50   25   26 1    
    51   25   78 1    
    52   26   27 1    
    53   26   60 1    
    54   26   61 1    
    55   27   28 1    
    56   27   62 1    
    57   27   63 1    
    58   28   29 1    
    59   28   64 1    
    60   28   65 1    
    61   29   30 1    
    62   29   32 am   BACKBONE|DICT|INTERRES
    63   30   31 1    
    64   30   66 1    
    65   30   67 1    
    66   31   68 1    
    67   31   69 1    
    68   32   33 2    
    69   32   34 am   BACKBONE|DICT|INTERRES
    70   34   35 1    
    71   34   70 1    
    72   35   36 1    
    73   35   37 1    
    74   35   71 1    
    75   36   72 1    
    76   36   73 1    
    77   36   74 1    
    78   37   75 1    
    79   37   76 1    
    80   37   77 1    
@<TRIPOS>SUBSTRUCTURE
     1 UNK         1 GROUP             0       ****    0 ROOT    
