ZINC35294154_363
                    3D
 Schrodinger Suite 2024-2.
 70 72  0  0  1  0            999 V2000
    0.6781   49.9483   24.4974 C   0  0  0  0  0  0
   -0.1228   51.2665   24.4549 C   0  0  2  0  0  0
   -0.4197   51.4061   23.4134 H   0  0  0  0  0  0
    0.7092   52.5084   24.8513 C   0  0  0  0  0  0
    1.1076   52.5765   26.2774 N   0  0  0  0  0  0
   -0.0038   52.2321   27.2009 C   0  0  0  0  0  0
   -1.0097   51.1350   26.7479 C   0  0  0  0  0  0
   -1.3140   51.3270   25.3196 N   0  0  0  0  0  0
   -2.4513   51.9519   24.9023 C   0  0  0  0  0  0
   -2.5493   52.4403   23.7730 O   0  0  0  0  0  0
   -3.6612   52.0043   25.8699 C   0  0  0  0  0  0
   -5.0479   52.5034   25.3440 C   0  0  0  0  0  0
   -4.9994   53.9943   24.9226 C   0  0  0  0  0  0
   -6.0654   52.3636   26.4998 C   0  0  0  0  0  0
   -5.5590   51.6389   24.1651 C   0  0  0  0  0  0
    2.2425   53.2868   26.6940 C   0  0  0  0  0  0
    2.6145   53.3888   28.0456 C   0  0  0  0  0  0
    3.8250   54.0159   28.3477 C   0  0  0  0  0  0
    4.6491   54.4966   27.3846 N   0  0  0  0  0  0
    4.2422   54.3340   26.1037 C   0  0  0  0  0  0
    3.0793   53.7517   25.7218 N   0  0  0  0  0  0
    5.3451   54.8954   24.8451 S   0  0  0  0  0  0
    4.6630   54.3418   23.2427 C   0  0  0  0  0  0
    5.6233   54.4979   22.0413 C   0  0  0  0  0  0
    6.7744   54.8968   22.2316 O   0  0  0  0  0  0
    5.1449   54.2960   20.7816 N   0  0  0  0  0  0
    5.3535   55.4436   19.8584 C   0  0  0  0  0  0
    6.4415   55.2550   18.7884 C   0  0  0  0  0  0
    5.9557   54.4667   17.5648 C   0  0  0  0  0  0
    5.4887   53.0409   17.8936 C   0  0  0  0  0  0
    4.3250   52.8826   18.9041 C   0  0  1  0  0  0
    3.9049   51.8771   18.7975 H   0  0  0  0  0  0
    4.6223   53.0797   20.4123 C   0  0  0  0  0  0
    4.3981   52.1337   21.1753 O   0  0  0  0  0  0
    3.1023   53.7017   18.4786 N   0  3  0  0  0  0
    4.3025   54.1714   29.9942 Cl  0  0  0  0  0  0
    1.5205   49.9930   23.8070 H   0  0  0  0  0  0
    1.1028   49.7478   25.4803 H   0  0  0  0  0  0
    0.0626   49.0962   24.2082 H   0  0  0  0  0  0
    0.0960   53.3916   24.6598 H   0  0  0  0  0  0
    1.5562   52.5908   24.1706 H   0  0  0  0  0  0
   -0.5823   53.1509   27.2960 H   0  0  0  0  0  0
    0.3701   51.9390   28.1808 H   0  0  0  0  0  0
   -1.8781   51.0418   27.4010 H   0  0  0  0  0  0
   -0.5106   50.1709   26.8508 H   0  0  0  0  0  0
   -3.3673   52.6398   26.7065 H   0  0  0  0  0  0
   -3.7932   50.9976   26.2722 H   0  0  0  0  0  0
   -5.9898   54.3606   24.6432 H   0  0  0  0  0  0
   -4.3494   54.1652   24.0652 H   0  0  0  0  0  0
   -4.6328   54.6251   25.7327 H   0  0  0  0  0  0
   -6.1794   51.3241   26.8100 H   0  0  0  0  0  0
   -5.7550   52.9272   27.3786 H   0  0  0  0  0  0
   -7.0545   52.7228   26.2153 H   0  0  0  0  0  0
   -5.6172   50.5861   24.4411 H   0  0  0  0  0  0
   -6.5564   51.9474   23.8501 H   0  0  0  0  0  0
   -4.9223   51.6988   23.2838 H   0  0  0  0  0  0
    2.0061   53.0028   28.8463 H   0  0  0  0  0  0
    4.3932   53.2951   23.3579 H   0  0  0  0  0  0
    3.7459   54.8963   23.0456 H   0  0  0  0  0  0
    4.4160   55.6979   19.3660 H   0  0  0  0  0  0
    5.5974   56.3498   20.4197 H   0  0  0  0  0  0
    6.7573   56.2396   18.4391 H   0  0  0  0  0  0
    7.3340   54.7989   19.2215 H   0  0  0  0  0  0
    5.1606   55.0158   17.0605 H   0  0  0  0  0  0
    6.7696   54.4040   16.8388 H   0  0  0  0  0  0
    6.3526   52.4957   18.2703 H   0  0  0  0  0  0
    5.2244   52.5291   16.9644 H   0  0  0  0  0  0
    2.3445   53.6005   19.1419 H   0  0  0  0  0  0
    3.3296   54.6810   18.4013 H   0  0  0  0  0  0
    2.7788   53.3816   17.5772 H   0  0  0  0  0  0
  1  2  1  0  0  0
  1 37  1  0  0  0
  1 38  1  0  0  0
  1 39  1  0  0  0
  2  3  1  0  0  0
  2  8  1  0  0  0
  2  4  1  0  0  0
  4  5  1  0  0  0
  4 40  1  0  0  0
  4 41  1  0  0  0
  5  6  1  0  0  0
  5 16  1  0  0  0
  6  7  1  0  0  0
  6 42  1  0  0  0
  6 43  1  0  0  0
  7  8  1  0  0  0
  7 44  1  0  0  0
  7 45  1  0  0  0
  8  9  1  0  0  0
  9 10  2  0  0  0
  9 11  1  0  0  0
 11 12  1  0  0  0
 11 46  1  0  0  0
 11 47  1  0  0  0
 12 13  1  0  0  0
 12 14  1  0  0  0
 12 15  1  0  0  0
 13 48  1  0  0  0
 13 49  1  0  0  0
 13 50  1  0  0  0
 14 51  1  0  0  0
 14 52  1  0  0  0
 14 53  1  0  0  0
 15 54  1  0  0  0
 15 55  1  0  0  0
 15 56  1  0  0  0
 16 21  2  0  0  0
 16 17  1  0  0  0
 17 18  2  0  0  0
 17 57  1  0  0  0
 18 19  1  0  0  0
 18 36  1  0  0  0
 19 20  2  0  0  0
 20 21  1  0  0  0
 20 22  1  0  0  0
 22 23  1  0  0  0
 23 24  1  0  0  0
 23 58  1  0  0  0
 23 59  1  0  0  0
 24 25  2  0  0  0
 24 26  1  0  0  0
 26 33  1  0  0  0
 26 27  1  0  0  0
 27 28  1  0  0  0
 27 60  1  0  0  0
 27 61  1  0  0  0
 28 29  1  0  0  0
 28 62  1  0  0  0
 28 63  1  0  0  0
 29 30  1  0  0  0
 29 64  1  0  0  0
 29 65  1  0  0  0
 30 31  1  0  0  0
 30 66  1  0  0  0
 30 67  1  0  0  0
 31 32  1  0  0  0
 31 33  1  0  0  0
 31 35  1  0  0  0
 33 34  2  0  0  0
 35 68  1  0  0  0
 35 69  1  0  0  0
 35 70  1  0  0  0
M  CHG  1  35   1
M  END
> <i_i_glide_confnum>
510

> <i_i_glide_lignum>
364

> <i_i_glide_posenum>
97

> <i_i_glide_rotatable_bonds>
8

> <i_m_Source_File_Index>
2095

> <b_m_subgroup_collapsed>
0

> <r_i_docking_score>
-2.3118

> <r_i_glide_ecoul>
-6.38006

> <r_i_glide_eff_state_penalty>
0

> <r_i_glide_einternal>
6.31438

> <r_i_glide_emodel>
-47.2601

> <r_i_glide_energy>
-49.0759

> <r_i_glide_erotb>
0.547147

> <r_i_glide_esite>
-0.0445064

> <r_i_glide_evdw>
-42.6958

> <r_i_glide_gscore>
-2.3118

> <r_i_glide_hbond>
0

> <r_i_glide_ligand_efficiency>
-0.0679942

> <r_i_glide_ligand_efficiency_ln>
-0.510742

> <r_i_glide_ligand_efficiency_sa>
-0.220275

> <r_i_glide_lipo>
-1.45129

> <r_i_glide_metal>
0

> <r_i_glide_rewards>
1.72864

> <s_i_glide_gridfile>
wee1_glide-grid

> <s_m_Source_File>
wee1_decoys_glide_SP.sdf

> <s_m_Source_Path>
/Users/zhangxujun/Desktop

> <s_m_entry_id>
2370

> <s_m_entry_name>
wee1_decoys_glide_SP.2095

> <s_m_subgroup_title>
wee1_decoys_glide_SP

> <s_m_subgroupid>
wee1_decoys_glide_SP


$$$$
