@<TRIPOS>MOLECULE
ZINC34921062_980
53   57    1
SMALL
USER_CHARGES


@<TRIPOS>ATOM
      1 C1          7.2247   53.5404   28.2436 C.3       1 UNK         0.0000 
      2 C2          5.7996   53.8116   27.8580 C.2       1 UNK         0.0000 
      3 C3          4.6520   54.1917   28.5330 C.2       1 UNK         0.0000 
      4 C4          3.6590   54.3615   27.5622 C.2       1 UNK         0.0000 
      5 C5          4.2516   54.0987   26.3320 C.2       1 UNK         0.0000 
      6 O6          5.5273   53.6961   26.5388 O.3       1 UNK         0.0000 
      7 C7          3.7281   54.1498   24.9664 C.2       1 UNK         0.0000 
      8 O8          2.5087   54.0967   24.8165 O.2       1 UNK         0.0000 
      9 C9          4.6325   54.3420   23.8012 C.2       1 UNK         0.0000 
     10 C10         5.9106   54.7619   23.7324 C.2       1 UNK         0.0000 
     11 C11         6.3889   54.8967   22.3660 C.2       1 UNK         0.0000 
     12 O12         7.4975   55.2969   21.9930 O.2       1 UNK         0.0000 
     13 N13         5.3404   54.5685   21.5649 N.am      1 UNK         0.0000 
     14 C14         4.1521   54.2218   22.3701 C.3       1 UNK         0.0000 
     15 H15         3.4093   54.9970   22.1682 H         1 UNK         0.0000 
     16 C16         3.4367   52.9100   21.9865 C.ar      1 UNK         0.0000 
     17 C17         4.0884   51.8964   21.2814 C.ar      1 UNK         0.0000 
     18 C18         3.3738   50.8104   20.7916 C.ar      1 UNK         0.0000 
     19 C19         2.0050   50.6561   21.0594 C.ar      1 UNK         0.0000 
     20 C20         1.3491   51.6444   21.8068 C.ar      1 UNK         0.0000 
     21 C21         2.0605   52.7843   22.2086 C.ar      1 UNK         0.0000 
     22 O22         0.0086   51.4655   22.0944 O.3       1 UNK         0.0000 
     23 C23        -0.5030   52.0389   23.2960 C.3       1 UNK         0.0000 
     24 O24         1.2622   49.5699   20.6280 O.3       1 UNK         0.0000 
     25 C25         1.8984   48.5547   19.8554 C.3       1 UNK         0.0000 
     26 C26         5.3140   54.6370   20.1564 C.2       1 UNK         0.0000 
     27 N27         4.2090   54.4970   19.4791 N.2       1 UNK         0.0000 
     28 C28         4.4009   54.5731   18.1393 C.ar      1 UNK         0.0000 
     29 C29         3.3844   54.4543   17.1822 C.ar      1 UNK         0.0000 
     30 C30         3.7302   54.5484   15.8324 C.ar      1 UNK         0.0000 
     31 C31         5.0522   54.7635   15.4361 C.ar      1 UNK         0.0000 
     32 C32         6.0776   54.8923   16.3750 C.ar      1 UNK         0.0000 
     33 C33         5.7398   54.7941   17.7319 C.ar      1 UNK         0.0000 
     34 S34         6.7523   54.8992   19.1624 S.3       1 UNK         0.0000 
     35 Cl35        5.4273   54.8728   13.7553 Cl        1 UNK         0.0000 
     36 O36         6.7044   55.1699   24.6625 O.co2     1 UNK         0.0000 
     37 H37         7.4240   53.7751   29.2830 H         1 UNK         0.0000 
     38 H38         7.5037   52.4994   28.0809 H         1 UNK         0.0000 
     39 H39         7.9015   54.1565   27.6509 H         1 UNK         0.0000 
     40 H40         4.5564   54.3533   29.5953 H         1 UNK         0.0000 
     41 H41         2.6375   54.6752   27.7265 H         1 UNK         0.0000 
     42 H42         5.1397   51.9752   21.0495 H         1 UNK         0.0000 
     43 H43         3.9044   50.0966   20.1876 H         1 UNK         0.0000 
     44 H44         1.5366   53.5955   22.6848 H         1 UNK         0.0000 
     45 H45        -1.5129   51.6673   23.4633 H         1 UNK         0.0000 
     46 H46         0.0981   51.7499   24.1589 H         1 UNK         0.0000 
     47 H47        -0.5588   53.1256   23.2614 H         1 UNK         0.0000 
     48 H48         1.1694   47.7879   19.5937 H         1 UNK         0.0000 
     49 H49         2.7005   48.0697   20.4144 H         1 UNK         0.0000 
     50 H50         2.3039   48.9532   18.9232 H         1 UNK         0.0000 
     51 H51         2.3616   54.2867   17.4874 H         1 UNK         0.0000 
     52 H52         2.9617   54.4490   15.0789 H         1 UNK         0.0000 
     53 H53         7.0981   55.0585   16.0624 H         1 UNK         0.0000 
@<TRIPOS>BOND
     1    1    2 1    
     2    1   37 1    
     3    1   38 1    
     4    1   39 1    
     5    2    6 1    
     6    2    3 2    
     7    3    4 1    
     8    3   40 1    
     9    4    5 2    
    10    4   41 1    
    11    5    6 1    
    12    5    7 1    
    13    7    8 2    
    14    7    9 1    
    15    9   14 1    
    16    9   10 2    
    17   10   11 1    
    18   10   36 1    
    19   11   12 2    
    20   11   13 am   BACKBONE|DICT|INTERRES
    21   13   14 1    
    22   13   26 am   BACKBONE|DICT|INTERRES
    23   14   15 1    
    24   14   16 1    
    25   16   21 ar   
    26   16   17 ar   
    27   17   18 ar   
    28   17   42 1    
    29   18   19 ar   
    30   18   43 1    
    31   19   20 ar   
    32   19   24 1    
    33   20   21 ar   
    34   20   22 1    
    35   21   44 1    
    36   22   23 1    
    37   23   45 1    
    38   23   46 1    
    39   23   47 1    
    40   24   25 1    
    41   25   48 1    
    42   25   49 1    
    43   25   50 1    
    44   26   34 1    
    45   26   27 2    
    46   27   28 1    
    47   28   33 ar   
    48   28   29 ar   
    49   29   30 ar   
    50   29   51 1    
    51   30   31 ar   
    52   30   52 1    
    53   31   32 ar   
    54   31   35 1    
    55   32   33 ar   
    56   32   53 1    
    57   33   34 1    
@<TRIPOS>SUBSTRUCTURE
     1 UNK         1 GROUP             0       ****    0 ROOT    
