@<TRIPOS>MOLECULE
ZINC06057116_1609
32   33    1
SMALL
USER_CHARGES


@<TRIPOS>ATOM
      1 C1          2.6760   53.7964   29.0397 C.2       1 UNK         0.0000 
      2 C2          2.6133   54.1172   27.6800 C.2       1 UNK         0.0000 
      3 C3          3.8559   54.0971   27.0485 C.2       1 UNK         0.0000 
      4 S4          5.1240   53.6963   28.1776 S.3       1 UNK         0.0000 
      5 C5          3.9696   53.5328   29.4617 C.2       1 UNK         0.0000 
      6 C6          4.1187   54.3569   25.6372 C.2       1 UNK         0.0000 
      7 N7          5.2665   54.1926   25.1070 N.2       1 UNK         0.0000 
      8 C8          5.4753   54.4526   23.7441 C.ar      1 UNK         0.0000 
      9 C9          6.7043   54.9977   23.3676 C.ar      1 UNK         0.0000 
     10 C10         6.9865   55.2968   22.0382 C.ar      1 UNK         0.0000 
     11 C11         6.0340   55.0416   21.0498 C.ar      1 UNK         0.0000 
     12 C12         4.8342   54.4141   21.3928 C.ar      1 UNK         0.0000 
     13 C13         4.5723   54.0971   22.7241 C.ar      1 UNK         0.0000 
     14 S14         6.3914   55.4676   19.3373 S.o2      1 UNK         0.0000 
     15 O15         7.4294   54.4967   18.9829 O.2       1 UNK         0.0000 
     16 O16         5.1034   55.3131   18.6486 O.2       1 UNK         0.0000 
     17 N17         6.9527   57.1128   19.6305 N.2       1 UNK         0.0000 
     18 C18         6.7044   57.9917   18.7560 C.2       1 UNK         0.0000 
     19 N19         7.1988   59.2967   18.8816 N.pl3     1 UNK         0.0000 
     20 N20         5.9493   57.8461   17.5746 N.pl3     1 UNK         0.0000 
     21 H21         1.8087   53.7494   29.6824 H         1 UNK         0.0000 
     22 H22         1.6864   54.3424   27.1729 H         1 UNK         0.0000 
     23 H23         4.3035   53.2501   30.4488 H         1 UNK         0.0000 
     24 H24         3.2415   54.6977   25.0921 H         1 UNK         0.0000 
     25 H25         7.4477   55.2181   24.1199 H         1 UNK         0.0000 
     26 H26         7.9417   55.7336   21.7824 H         1 UNK         0.0000 
     27 H27         4.1024   54.1695   20.6351 H         1 UNK         0.0000 
     28 H28         3.6403   53.6084   22.9657 H         1 UNK         0.0000 
     29 H29         7.6164   59.5748   19.7534 H         1 UNK         0.0000 
     30 H30         5.3755   57.0147   17.5118 H         1 UNK         0.0000 
     31 H31         5.4378   58.6524   17.2444 H         1 UNK         0.0000 
     32 H32         6.7045   60.0649   18.4269 H         1 UNK         0.0000 
@<TRIPOS>BOND
     1    1    5 2    
     2    1    2 1    
     3    1   21 1    
     4    2    3 2    
     5    2   22 1    
     6    3    4 1    
     7    3    6 1    
     8    4    5 1    
     9    5   23 1    
    10    6    7 2    
    11    6   24 1    
    12    7    8 1    
    13    8   13 ar   
    14    8    9 ar   
    15    9   10 ar   
    16    9   25 1    
    17   10   11 ar   
    18   10   26 1    
    19   11   12 ar   
    20   11   14 1    
    21   12   13 ar   
    22   12   27 1    
    23   13   28 1    
    24   14   15 2    
    25   14   16 2    
    26   14   17 1    
    27   17   18 2    
    28   18   19 1    
    29   18   20 1    
    30   19   29 1    
    31   19   32 1    
    32   20   30 1    
    33   20   31 1    
@<TRIPOS>SUBSTRUCTURE
     1 UNK         1 GROUP             0       ****    0 ROOT    
