@<TRIPOS>MOLECULE
ZINC31818108_1970
38   41    1
SMALL
USER_CHARGES


@<TRIPOS>ATOM
      1 C1         -0.4963   51.7027   29.0940 C.3       1 UNK         0.0000 
      2 C2          0.0580   52.0957   27.7499 C.ar      1 UNK         0.0000 
      3 C3         -0.5306   51.9990   26.4894 C.ar      1 UNK         0.0000 
      4 C4          0.4144   52.4969   25.6104 C.ar      1 UNK         0.0000 
      5 N5          1.5053   52.8978   26.3687 N.pl3     1 UNK         0.0000 
      6 N6          1.2564   52.6290   27.6713 N.2       1 UNK         0.0000 
      7 C7          2.7201   53.5181   25.9984 C.ar      1 UNK         0.0000 
      8 C8          3.1151   53.7078   24.6138 C.ar      1 UNK         0.0000 
      9 C9          4.3115   54.2821   24.3410 C.ar      1 UNK         0.0000 
     10 C10         5.1953   54.7133   25.4185 C.ar      1 UNK         0.0000 
     11 O11         6.2534   55.2459   25.0838 O.2       1 UNK         0.0000 
     12 N12         4.7669   54.4992   26.6684 N.2       1 UNK         0.0000 
     13 N13         3.5626   53.9205   26.9162 N.ar      1 UNK         0.0000 
     14 N14         0.1593   52.6520   24.2550 N.am      1 UNK         0.0000 
     15 C15        -1.0622   52.4939   23.6910 C.2       1 UNK         0.0000 
     16 O16        -1.2352   52.4964   22.4765 O.2       1 UNK         0.0000 
     17 C17        -2.2217   52.3928   24.7240 C.3       1 UNK         0.0000 
     18 C18        -1.8616   51.4892   25.9497 C.3       1 UNK         0.0000 
     19 H19        -2.6325   51.6116   26.7128 H         1 UNK         0.0000 
     20 C20        -1.8905   50.0116   25.5596 C.ar      1 UNK         0.0000 
     21 C21        -0.7178   49.2883   25.2952 C.ar      1 UNK         0.0000 
     22 C22        -0.7894   47.9673   24.8635 C.ar      1 UNK         0.0000 
     23 C23        -2.0301   47.3560   24.6901 C.ar      1 UNK         0.0000 
     24 C24        -3.2025   48.0555   24.9779 C.ar      1 UNK         0.0000 
     25 C25        -3.1303   49.3776   25.4100 C.ar      1 UNK         0.0000 
     26 Br26       -4.9086   47.2300   24.7615 Br        1 UNK         0.0000 
     27 F27        -2.0897   46.0970   24.2182 F         1 UNK         0.0000 
     28 H28        -0.9145   52.5613   29.6186 H         1 UNK         0.0000 
     29 H29        -1.2827   50.9486   29.0123 H         1 UNK         0.0000 
     30 H30         0.2853   51.2972   29.7340 H         1 UNK         0.0000 
     31 H31         2.5025   53.4083   23.7798 H         1 UNK         0.0000 
     32 H32         4.6310   54.4334   23.3208 H         1 UNK         0.0000 
     33 H33         0.9068   52.6512   23.5779 H         1 UNK         0.0000 
     34 H34        -2.4292   53.4049   25.0580 H         1 UNK         0.0000 
     35 H35        -3.1034   52.0197   24.2012 H         1 UNK         0.0000 
     36 H36         0.2543   49.7423   25.4109 H         1 UNK         0.0000 
     37 H37         0.1208   47.4210   24.6586 H         1 UNK         0.0000 
     38 H38        -4.0445   49.9165   25.6123 H         1 UNK         0.0000 
@<TRIPOS>BOND
     1    1    2 1    
     2    1   28 1    
     3    1   29 1    
     4    1   30 1    
     5    2    6 ar   
     6    2    3 ar   
     7    3   18 1    
     8    3    4 ar   
     9    4    5 ar   
    10    4   14 1    
    11    5    6 ar   
    12    5    7 1    
    13    7   13 ar   
    14    7    8 ar   
    15    8    9 ar   
    16    8   31 1    
    17    9   10 ar   
    18    9   32 1    
    19   10   11 2    
    20   10   12 ar   
    21   12   13 ar   
    22   14   15 am   BACKBONE|DICT|INTERRES
    23   14   33 1    
    24   15   16 2    
    25   15   17 1    
    26   17   18 1    
    27   17   34 1    
    28   17   35 1    
    29   18   19 1    
    30   18   20 1    
    31   20   25 ar   
    32   20   21 ar   
    33   21   22 ar   
    34   21   36 1    
    35   22   23 ar   
    36   22   37 1    
    37   23   24 ar   
    38   23   27 1    
    39   24   25 ar   
    40   24   26 1    
    41   25   38 1    
@<TRIPOS>SUBSTRUCTURE
     1 UNK         1 GROUP             0       ****    0 ROOT    
