ZINC50702236_1905
                    3D
 Schrodinger Suite 2024-2.
 30 31  0  0  1  0            999 V2000
    1.5301   56.1554   29.4583 C   0  0  0  0  0  0
    2.2348   54.8006   29.2801 C   0  0  1  0  0  0
    2.9298   54.6911   30.1149 H   0  0  0  0  0  0
    1.2523   53.6371   29.3153 C   0  0  0  0  0  0
    0.9325   52.6837   28.3384 C   0  0  0  0  0  0
   -0.0419   51.7586   28.7175 C   0  0  0  0  0  0
   -0.4956   51.9755   30.0021 C   0  0  0  0  0  0
    0.3035   53.3172   30.7475 S   0  0  0  0  0  0
    3.0251   54.8023   28.0515 N   0  0  0  0  0  0
    4.1552   54.0967   27.8615 C   0  0  0  0  0  0
    4.7042   53.4556   28.7603 O   0  0  0  0  0  0
    4.7612   54.1886   26.4790 C   0  0  0  0  0  0
    3.9364   54.2552   25.3420 C   0  0  0  0  0  0
    4.4996   54.3540   24.0702 C   0  0  0  0  0  0
    5.8867   54.3854   23.9568 C   0  0  0  0  0  0
    6.7094   54.3039   25.0288 N   0  0  0  0  0  0
    6.1555   54.1995   26.2623 C   0  0  0  0  0  0
    7.0784   54.0967   27.3010 N   0  0  0  0  0  0
    3.3941   54.4606   22.5254 Br  0  0  0  0  0  0
    0.9897   56.2154   30.4035 H   0  0  0  0  0  0
    2.2500   56.9743   29.4505 H   0  0  0  0  0  0
    0.8196   56.3386   28.6521 H   0  0  0  0  0  0
    1.3997   52.6582   27.3642 H   0  0  0  0  0  0
   -0.3999   50.9560   28.0846 H   0  0  0  0  0  0
   -1.2285   51.3956   30.5435 H   0  0  0  0  0  0
    2.5403   55.1266   27.2294 H   0  0  0  0  0  0
    2.8591   54.2151   25.4268 H   0  0  0  0  0  0
    6.3630   54.4728   22.9903 H   0  0  0  0  0  0
    6.7000   53.9200   28.2223 H   0  0  0  0  0  0
    8.0277   53.8501   27.0690 H   0  0  0  0  0  0
  1  2  1  0  0  0
  1 20  1  0  0  0
  1 21  1  0  0  0
  1 22  1  0  0  0
  2  3  1  0  0  0
  2  4  1  0  0  0
  2  9  1  0  0  0
  4  8  1  0  0  0
  4  5  2  0  0  0
  5  6  1  0  0  0
  5 23  1  0  0  0
  6  7  2  0  0  0
  6 24  1  0  0  0
  7  8  1  0  0  0
  7 25  1  0  0  0
  9 10  1  0  0  0
  9 26  1  0  0  0
 10 11  2  0  0  0
 10 12  1  0  0  0
 12 17  2  0  0  0
 12 13  1  0  0  0
 13 14  2  0  0  0
 13 27  1  0  0  0
 14 15  1  0  0  0
 14 19  1  0  0  0
 15 16  2  0  0  0
 15 28  1  0  0  0
 16 17  1  0  0  0
 17 18  1  0  0  0
 18 29  1  0  0  0
 18 30  1  0  0  0
M  END
> <i_i_glide_confnum>
21

> <i_i_glide_lignum>
1906

> <i_i_glide_posenum>
89

> <i_i_glide_rotatable_bonds>
4

> <i_m_Source_File_Index>
4215

> <b_m_subgroup_collapsed>
0

> <r_i_docking_score>
-5.33194

> <r_i_glide_ecoul>
-0.214928

> <r_i_glide_eff_state_penalty>
0

> <r_i_glide_einternal>
4.08349

> <r_i_glide_emodel>
-52.9881

> <r_i_glide_energy>
-41.4292

> <r_i_glide_erotb>
0.528639

> <r_i_glide_esite>
0

> <r_i_glide_evdw>
-41.2143

> <r_i_glide_gscore>
-5.33194

> <r_i_glide_hbond>
0

> <r_i_glide_ligand_efficiency>
-0.296219

> <r_i_glide_ligand_efficiency_ln>
-1.37055

> <r_i_glide_ligand_efficiency_sa>
-0.776313

> <r_i_glide_lipo>
-2.20782

> <r_i_glide_metal>
0

> <r_i_glide_rewards>
-1.55981

> <s_i_glide_gridfile>
wee1_glide-grid

> <s_m_Source_File>
wee1_decoys_glide_SP.sdf

> <s_m_Source_Path>
/Users/zhangxujun/Desktop

> <s_m_entry_id>
4490

> <s_m_entry_name>
wee1_decoys_glide_SP.4215

> <s_m_subgroup_title>
wee1_decoys_glide_SP

> <s_m_subgroupid>
wee1_decoys_glide_SP


$$$$
