@<TRIPOS>MOLECULE
ZINC39532683_2926
69   72    1
SMALL
USER_CHARGES


@<TRIPOS>ATOM
      1 C1          6.6898   54.7912   23.1297 C.3       1 UNK         0.0000 
      2 C2          5.3161   54.2447   23.5456 C.3       1 UNK         0.0000 
      3 C3          4.3780   53.9801   22.3456 C.3       1 UNK         0.0000 
      4 C4          2.9881   53.4345   22.6835 C.ar      1 UNK         0.0000 
      5 C5          2.3065   52.6841   21.7221 C.ar      1 UNK         0.0000 
      6 C6          1.0305   52.1897   21.9832 C.ar      1 UNK         0.0000 
      7 C7          0.4078   52.4337   23.2137 C.ar      1 UNK         0.0000 
      8 C8          1.1028   53.1888   24.1770 C.ar      1 UNK         0.0000 
      9 C9          2.3727   53.6895   23.9125 C.ar      1 UNK         0.0000 
     10 C10        -1.0030   51.8337   23.4790 C.3       1 UNK         0.0000 
     11 H11        -1.3256   51.3627   22.5476 H         1 UNK         0.0000 
     12 C12        -2.0814   52.8967   23.8837 C.3       1 UNK         0.0000 
     13 N13        -3.4235   52.4424   23.7009 N.2       1 UNK         0.0000 
     14 S14        -4.4657   52.6225   24.8817 S.3       1 UNK         0.0000 
     15 O15        -4.5425   53.9778   25.4481 O.2       1 UNK         0.0000 
     16 O16        -5.7348   51.9695   24.5485 O.2       1 UNK         0.0000 
     17 O17        -3.7493   51.6640   26.0666 O.3       1 UNK         0.0000 
     18 C18        -4.3462   51.4394   27.2907 C.ar      1 UNK         0.0000 
     19 C19        -5.6956   51.6968   27.5793 C.ar      1 UNK         0.0000 
     20 C20        -6.2210   51.3808   28.8306 C.ar      1 UNK         0.0000 
     21 C21        -5.4043   50.8013   29.7981 C.ar      1 UNK         0.0000 
     22 C22        -4.0633   50.5486   29.5282 C.ar      1 UNK         0.0000 
     23 C23        -3.5364   50.8859   28.2840 C.ar      1 UNK         0.0000 
     24 N24        -1.0432   50.6614   24.5164 N.4       1 UNK         0.0000 
     25 C25         0.3355   49.9941   24.7695 C.3       1 UNK         0.0000 
     26 C26         0.2067   49.0410   25.9625 C.3       1 UNK         0.0000 
     27 N27        -0.8956   48.0045   25.6817 N.4       1 UNK         0.0000 
     28 C28        -2.2549   48.6405   25.3842 C.3       1 UNK         0.0000 
     29 H29        -2.4822   49.2476   26.2611 H         1 UNK         0.0000 
     30 C30        -2.0833   49.5538   24.1548 C.3       1 UNK         0.0000 
     31 C31        -3.3089   47.5335   25.2682 C.ar      1 UNK         0.0000 
     32 C32        -3.4679   46.8464   24.0542 C.ar      1 UNK         0.0000 
     33 C33        -4.4739   45.8929   23.8990 C.ar      1 UNK         0.0000 
     34 C34        -5.3286   45.6022   24.9592 C.ar      1 UNK         0.0000 
     35 C35        -5.1749   46.2657   26.1738 C.ar      1 UNK         0.0000 
     36 C36        -4.1764   47.2254   26.3383 C.ar      1 UNK         0.0000 
     37 O37        -4.0956   47.8358   27.5652 O.3       1 UNK         0.0000 
     38 H38         7.3142   54.9720   24.0049 H         1 UNK         0.0000 
     39 H39         7.2234   54.0967   22.4830 H         1 UNK         0.0000 
     40 H40         6.5988   55.7349   22.5920 H         1 UNK         0.0000 
     41 H41         4.8677   54.9650   24.2290 H         1 UNK         0.0000 
     42 H42         5.4540   53.3230   24.1131 H         1 UNK         0.0000 
     43 H43         4.8728   53.2728   21.6772 H         1 UNK         0.0000 
     44 H44         4.2398   54.8967   21.7712 H         1 UNK         0.0000 
     45 H45         2.7608   52.4908   20.7604 H         1 UNK         0.0000 
     46 H46         0.5315   51.6143   21.2168 H         1 UNK         0.0000 
     47 H47         0.6635   53.3840   25.1438 H         1 UNK         0.0000 
     48 H48         2.8624   54.2734   24.6758 H         1 UNK         0.0000 
     49 H49        -1.8790   53.2216   24.9060 H         1 UNK         0.0000 
     50 H50        -1.9352   53.7908   23.2817 H         1 UNK         0.0000 
     51 H51        -6.3580   52.1325   26.8493 H         1 UNK         0.0000 
     52 H52        -7.2626   51.5715   29.0437 H         1 UNK         0.0000 
     53 H53        -5.8128   50.5394   30.7636 H         1 UNK         0.0000 
     54 H54        -3.4282   50.0967   30.2788 H         1 UNK         0.0000 
     55 H55        -2.4951   50.6828   28.0848 H         1 UNK         0.0000 
     56 H56         0.6646   49.5161   23.8435 H         1 UNK         0.0000 
     57 H57         1.0489   50.7656   25.0530 H         1 UNK         0.0000 
     58 H58         1.1312   48.4967   26.1593 H         1 UNK         0.0000 
     59 H59        -0.0956   49.5498   26.8816 H         1 UNK         0.0000 
     60 H60        -0.9923   47.4606   26.5374 H         1 UNK         0.0000 
     61 H61        -1.7334   49.0507   23.2523 H         1 UNK         0.0000 
     62 H62        -3.0504   50.0061   23.9462 H         1 UNK         0.0000 
     63 H63        -2.8307   47.0595   23.2089 H         1 UNK         0.0000 
     64 H64        -4.6027   45.3912   22.9506 H         1 UNK         0.0000 
     65 H65        -6.1158   44.8714   24.8403 H         1 UNK         0.0000 
     66 H66        -5.8412   46.0428   26.9944 H         1 UNK         0.0000 
     67 H67        -3.1964   48.0966   27.8414 H         1 UNK         0.0000 
     68 H68        -0.6291   47.3451   24.9676 H         1 UNK         0.0000 
     69 H69        -1.3575   51.1029   25.3717 H         1 UNK         0.0000 
@<TRIPOS>BOND
     1    1    2 1    
     2    1   38 1    
     3    1   39 1    
     4    1   40 1    
     5    2    3 1    
     6    2   41 1    
     7    2   42 1    
     8    3    4 1    
     9    3   43 1    
    10    3   44 1    
    11    4    9 ar   
    12    4    5 ar   
    13    5    6 ar   
    14    5   45 1    
    15    6    7 ar   
    16    6   46 1    
    17    7    8 ar   
    18    7   10 1    
    19    8    9 ar   
    20    8   47 1    
    21    9   48 1    
    22   10   11 1    
    23   10   12 1    
    24   10   24 1    
    25   12   13 1    
    26   12   49 1    
    27   12   50 1    
    28   13   14 1    
    29   14   15 2    
    30   14   16 2    
    31   14   17 1    
    32   17   18 1    
    33   18   23 ar   
    34   18   19 ar   
    35   19   20 ar   
    36   19   51 1    
    37   20   21 ar   
    38   20   52 1    
    39   21   22 ar   
    40   21   53 1    
    41   22   23 ar   
    42   22   54 1    
    43   23   55 1    
    44   24   30 1    
    45   24   25 1    
    46   24   69 1    
    47   25   26 1    
    48   25   56 1    
    49   25   57 1    
    50   26   27 1    
    51   26   58 1    
    52   26   59 1    
    53   27   28 1    
    54   27   60 1    
    55   27   68 1    
    56   28   29 1    
    57   28   30 1    
    58   28   31 1    
    59   30   61 1    
    60   30   62 1    
    61   31   36 ar   
    62   31   32 ar   
    63   32   33 ar   
    64   32   63 1    
    65   33   34 ar   
    66   33   64 1    
    67   34   35 ar   
    68   34   65 1    
    69   35   36 ar   
    70   35   66 1    
    71   36   37 1    
    72   37   67 1    
@<TRIPOS>SUBSTRUCTURE
     1 UNK         1 GROUP             0       ****    0 ROOT    
