ZINC49391904_5616
                    3D
 Schrodinger Suite 2024-2.
 62 66  0  0  1  0            999 V2000
    1.0538   52.7160   30.9594 C   0  0  0  0  0  0
    2.0235   52.9779   29.8220 C   0  0  0  0  0  0
    3.3945   53.0671   30.0812 C   0  0  0  0  0  0
    4.3055   53.3762   29.0710 C   0  0  0  0  0  0
    3.8288   53.5705   27.7692 C   0  0  0  0  0  0
    2.4436   53.4464   27.5028 C   0  0  0  0  0  0
    1.5276   53.1567   28.5261 C   0  0  0  0  0  0
    2.1807   53.6904   25.7852 S   0  0  0  0  0  0
    3.9046   53.9488   25.5922 C   0  0  0  0  0  0
    4.6065   53.8715   26.6949 N   0  0  0  0  0  0
    4.5087   54.1894   24.2316 C   0  0  0  0  0  0
    3.7340   54.0962   23.0679 C   0  0  0  0  0  0
    4.2957   54.3176   21.8148 C   0  0  0  0  0  0
    5.6465   54.6476   21.6967 C   0  0  0  0  0  0
    6.4410   54.7179   22.8523 C   0  0  0  0  0  0
    5.8708   54.4956   24.1045 C   0  0  0  0  0  0
    6.1015   54.8969   20.3870 N   0  0  0  0  0  0
    7.2880   55.3781   19.9630 C   0  0  0  0  0  0
    8.2219   55.6945   20.7026 O   0  0  0  0  0  0
    7.3970   55.5274   18.4272 C   0  0  0  0  0  0
    8.7053   56.0507   17.9966 N   0  0  0  0  0  0
    9.8117   55.1687   17.6962 C   0  0  0  0  0  0
   10.8787   56.1460   17.2822 C   0  0  0  0  0  0
   10.3404   57.4296   17.7101 N   0  0  0  0  0  0
    9.0341   57.3618   18.0845 C   0  0  0  0  0  0
    8.3001   58.2877   18.4448 O   0  0  0  0  0  0
   11.1064   58.6131   17.7548 C   0  0  0  0  0  0
   11.1699   59.3535   18.9450 C   0  0  0  0  0  0
   11.9320   60.5150   19.0446 C   0  0  0  0  0  0
   12.6607   60.9366   17.9209 C   0  0  0  0  0  0
   12.6117   60.2086   16.7328 C   0  0  0  0  0  0
   11.8331   59.0549   16.6345 C   0  0  0  0  0  0
   11.8102   58.3898   15.4313 O   0  0  0  0  0  0
   10.6450   58.6226   14.6527 C   0  0  0  0  0  0
   11.9075   61.1737   20.2585 O   0  0  0  0  0  0
   12.7222   62.3273   20.4383 C   0  0  0  0  0  0
    0.6686   51.6968   30.9203 H   0  0  0  0  0  0
    1.5055   52.8918   31.9372 H   0  0  0  0  0  0
    0.1946   53.3874   30.8895 H   0  0  0  0  0  0
    3.7655   52.8968   31.0839 H   0  0  0  0  0  0
    5.3629   53.4527   29.2804 H   0  0  0  0  0  0
    0.4696   53.0706   28.3205 H   0  0  0  0  0  0
    2.6811   53.8580   23.1160 H   0  0  0  0  0  0
    3.6626   54.2519   20.9406 H   0  0  0  0  0  0
    7.4922   54.9407   22.8134 H   0  0  0  0  0  0
    6.4989   54.5574   24.9802 H   0  0  0  0  0  0
    5.4172   54.7126   19.6680 H   0  0  0  0  0  0
    6.6099   56.2004   18.0880 H   0  0  0  0  0  0
    7.2166   54.5648   17.9557 H   0  0  0  0  0  0
    9.5528   54.4781   16.8946 H   0  0  0  0  0  0
   10.1027   54.6033   18.5832 H   0  0  0  0  0  0
   11.0330   56.1223   16.2033 H   0  0  0  0  0  0
   11.8211   55.9352   17.7919 H   0  0  0  0  0  0
   10.6366   59.0108   19.8216 H   0  0  0  0  0  0
   13.2721   61.8254   17.9480 H   0  0  0  0  0  0
   13.1741   60.5450   15.8746 H   0  0  0  0  0  0
   10.7012   58.0370   13.7370 H   0  0  0  0  0  0
    9.7304   58.3299   15.1723 H   0  0  0  0  0  0
   10.5579   59.6743   14.3735 H   0  0  0  0  0  0
   12.5890   62.7079   21.4508 H   0  0  0  0  0  0
   12.4476   63.1253   19.7485 H   0  0  0  0  0  0
   13.7804   62.0946   20.3127 H   0  0  0  0  0  0
  1  2  1  0  0  0
  1 37  1  0  0  0
  1 38  1  0  0  0
  1 39  1  0  0  0
  2  7  2  0  0  0
  2  3  1  0  0  0
  3  4  2  0  0  0
  3 40  1  0  0  0
  4  5  1  0  0  0
  4 41  1  0  0  0
  5 10  1  0  0  0
  5  6  2  0  0  0
  6  7  1  0  0  0
  6  8  1  0  0  0
  7 42  1  0  0  0
  8  9  1  0  0  0
  9 10  2  0  0  0
  9 11  1  0  0  0
 11 16  2  0  0  0
 11 12  1  0  0  0
 12 13  2  0  0  0
 12 43  1  0  0  0
 13 14  1  0  0  0
 13 44  1  0  0  0
 14 15  2  0  0  0
 14 17  1  0  0  0
 15 16  1  0  0  0
 15 45  1  0  0  0
 16 46  1  0  0  0
 17 18  1  0  0  0
 17 47  1  0  0  0
 18 19  2  0  0  0
 18 20  1  0  0  0
 20 21  1  0  0  0
 20 48  1  0  0  0
 20 49  1  0  0  0
 21 25  1  0  0  0
 21 22  1  0  0  0
 22 23  1  0  0  0
 22 50  1  0  0  0
 22 51  1  0  0  0
 23 24  1  0  0  0
 23 52  1  0  0  0
 23 53  1  0  0  0
 24 25  1  0  0  0
 24 27  1  0  0  0
 25 26  2  0  0  0
 27 32  2  0  0  0
 27 28  1  0  0  0
 28 29  2  0  0  0
 28 54  1  0  0  0
 29 30  1  0  0  0
 29 35  1  0  0  0
 30 31  2  0  0  0
 30 55  1  0  0  0
 31 32  1  0  0  0
 31 56  1  0  0  0
 32 33  1  0  0  0
 33 34  1  0  0  0
 34 57  1  0  0  0
 34 58  1  0  0  0
 34 59  1  0  0  0
 35 36  1  0  0  0
 36 60  1  0  0  0
 36 61  1  0  0  0
 36 62  1  0  0  0
M  END
> <i_i_glide_confnum>
4

> <i_i_glide_lignum>
5617

> <i_i_glide_posenum>
297

> <i_i_glide_rotatable_bonds>
8

> <i_m_Source_File_Index>
220

> <b_m_subgroup_collapsed>
0

> <r_i_docking_score>
-5.47209

> <r_i_glide_ecoul>
-3.92966

> <r_i_glide_eff_state_penalty>
0

> <r_i_glide_einternal>
8.0385

> <r_i_glide_emodel>
-60.1908

> <r_i_glide_energy>
-47.823

> <r_i_glide_erotb>
0.485387

> <r_i_glide_esite>
-0.0117453

> <r_i_glide_evdw>
-43.8933

> <r_i_glide_gscore>
-5.47209

> <r_i_glide_hbond>
0

> <r_i_glide_ligand_efficiency>
-0.152003

> <r_i_glide_ligand_efficiency_ln>
-1.19386

> <r_i_glide_ligand_efficiency_sa>
-0.501901

> <r_i_glide_lipo>
-2.87989

> <r_i_glide_metal>
0

> <r_i_glide_rewards>
-0.281731

> <s_i_glide_gridfile>
wee1_glide-grid

> <s_m_Source_File>
wee1_decoys_glide_SP.sdf

> <s_m_Source_Path>
/Users/zhangxujun/Desktop

> <s_m_entry_id>
495

> <s_m_entry_name>
wee1_decoys_glide_SP.220

> <s_m_subgroup_title>
wee1_decoys_glide_SP

> <s_m_subgroupid>
wee1_decoys_glide_SP


$$$$
