ZINC36050679_5656
                    3D
 Schrodinger Suite 2024-2.
 53 56  0  0  1  0            999 V2000
   -0.2466   52.0598   19.7416 C   0  0  0  0  0  0
    0.6399   50.9667   20.3239 C   0  0  0  0  0  0
    0.4659   49.6571   19.8629 C   0  0  0  0  0  0
    1.2700   48.6258   20.3410 C   0  0  0  0  0  0
    2.2498   48.8961   21.2907 C   0  0  0  0  0  0
    2.4323   50.1908   21.7571 C   0  0  0  0  0  0
    1.6413   51.2392   21.2818 C   0  0  0  0  0  0
    1.9231   52.6565   21.8057 C   0  0  1  0  0  0
    1.2420   53.3138   21.2843 H   0  0  0  0  0  0
    1.6660   52.8441   23.3390 C   0  0  0  0  0  0
    2.6227   53.4126   24.1382 C   0  0  0  0  0  0
    3.7901   53.9231   23.6562 N   0  0  0  0  0  0
    4.0675   53.7717   22.4233 C   0  0  0  0  0  0
    3.3035   53.1254   21.4516 N   0  0  0  0  0  0
    3.8610   53.1577   20.1751 C   0  0  0  0  0  0
    4.9944   53.8775   20.1270 C   0  0  0  0  0  0
    5.5038   54.4975   21.6845 S   0  0  0  0  0  0
    3.3404   52.5043   18.9875 C   0  0  0  0  0  0
    3.1454   53.0662   17.7815 C   0  0  0  0  0  0
    3.2930   54.2926   17.4213 O   0  5  0  0  0  0
    2.7049   52.2564   16.7500 N   0  0  0  0  0  0
    2.6066   52.4282   15.3566 C   0  0  0  0  0  0
    1.7026   51.6024   14.6828 C   0  0  0  0  0  0
    1.5692   51.6826   13.2986 C   0  0  0  0  0  0
    2.3529   52.5832   12.5813 C   0  0  0  0  0  0
    3.2690   53.4018   13.2381 C   0  0  0  0  0  0
    3.3991   53.3222   14.6227 C   0  0  0  0  0  0
    2.2327   52.6550   11.2370 F   0  0  0  0  0  0
    2.5369   53.7060   25.6357 C   0  0  0  0  0  0
    0.3854   52.3268   23.8575 C   0  0  0  0  0  0
   -0.6586   52.3813   23.2030 O   0  0  0  0  0  0
    0.4847   51.7288   25.0686 O   0  0  0  0  0  0
   -0.6470   51.1262   25.6819 C   0  0  0  0  0  0
   -0.8975   51.6874   18.9501 H   0  0  0  0  0  0
   -0.8670   52.4959   20.5231 H   0  0  0  0  0  0
    0.3613   52.8563   19.3103 H   0  0  0  0  0  0
   -0.2870   49.4342   19.1213 H   0  0  0  0  0  0
    1.1365   47.6196   19.9733 H   0  0  0  0  0  0
    2.8720   48.0991   21.6683 H   0  0  0  0  0  0
    3.2049   50.3868   22.4817 H   0  0  0  0  0  0
    5.5923   54.0457   19.2428 H   0  0  0  0  0  0
    3.1329   51.4489   19.0826 H   0  0  0  0  0  0
    2.5293   51.3005   17.0168 H   0  0  0  0  0  0
    1.1003   50.8937   15.2319 H   0  0  0  0  0  0
    0.8653   51.0460   12.7833 H   0  0  0  0  0  0
    3.8800   54.0905   12.6728 H   0  0  0  0  0  0
    4.1320   53.9449   15.1133 H   0  0  0  0  0  0
    1.5112   53.8184   25.9796 H   0  0  0  0  0  0
    3.0047   52.8971   26.1962 H   0  0  0  0  0  0
    3.0550   54.6298   25.9031 H   0  0  0  0  0  0
   -0.3595   50.6751   26.6322 H   0  0  0  0  0  0
   -1.4260   51.8641   25.8768 H   0  0  0  0  0  0
   -1.0636   50.3421   25.0481 H   0  0  0  0  0  0
  1  2  1  0  0  0
  1 34  1  0  0  0
  1 35  1  0  0  0
  1 36  1  0  0  0
  2  7  2  0  0  0
  2  3  1  0  0  0
  3  4  2  0  0  0
  3 37  1  0  0  0
  4  5  1  0  0  0
  4 38  1  0  0  0
  5  6  2  0  0  0
  5 39  1  0  0  0
  6  7  1  0  0  0
  6 40  1  0  0  0
  7  8  1  0  0  0
  8  9  1  0  0  0
  8 14  1  0  0  0
  8 10  1  0  0  0
 10 11  2  0  0  0
 10 30  1  0  0  0
 11 12  1  0  0  0
 11 29  1  0  0  0
 12 13  2  0  0  0
 13 17  1  0  0  0
 13 14  1  0  0  0
 14 15  1  0  0  0
 15 16  2  0  0  0
 15 18  1  0  0  0
 16 17  1  0  0  0
 16 41  1  0  0  0
 18 19  2  0  0  0
 18 42  1  0  0  0
 19 20  1  0  0  0
 19 21  1  0  0  0
 21 22  1  0  0  0
 21 43  1  0  0  0
 22 27  2  0  0  0
 22 23  1  0  0  0
 23 24  2  0  0  0
 23 44  1  0  0  0
 24 25  1  0  0  0
 24 45  1  0  0  0
 25 26  2  0  0  0
 25 28  1  0  0  0
 26 27  1  0  0  0
 26 46  1  0  0  0
 27 47  1  0  0  0
 29 48  1  0  0  0
 29 49  1  0  0  0
 29 50  1  0  0  0
 30 31  2  0  0  0
 30 32  1  0  0  0
 32 33  1  0  0  0
 33 51  1  0  0  0
 33 52  1  0  0  0
 33 53  1  0  0  0
M  CHG  1  20  -1
M  END
> <i_i_glide_confnum>
4

> <i_i_glide_lignum>
5657

> <i_i_glide_posenum>
201

> <i_i_glide_rotatable_bonds>
6

> <i_m_Source_File_Index>
5418

> <b_m_subgroup_collapsed>
0

> <r_i_docking_score>
-3.29743

> <r_i_glide_ecoul>
-1.72601

> <r_i_glide_eff_state_penalty>
0

> <r_i_glide_einternal>
7.83425

> <r_i_glide_emodel>
-38.2955

> <r_i_glide_energy>
-33.0235

> <r_i_glide_erotb>
0.395151

> <r_i_glide_esite>
-0.0577798

> <r_i_glide_evdw>
-31.2975

> <r_i_glide_gscore>
-3.29743

> <r_i_glide_hbond>
0

> <r_i_glide_ligand_efficiency>
-0.103045

> <r_i_glide_ligand_efficiency_ln>
-0.738385

> <r_i_glide_ligand_efficiency_sa>
-0.327147

> <r_i_glide_lipo>
-1.03791

> <r_i_glide_metal>
0

> <r_i_glide_rewards>
-0.773114

> <s_i_glide_gridfile>
wee1_glide-grid

> <s_m_Source_File>
wee1_decoys_glide_SP.sdf

> <s_m_Source_Path>
/Users/zhangxujun/Desktop

> <s_m_entry_id>
5693

> <s_m_entry_name>
wee1_decoys_glide_SP.5418

> <s_m_subgroup_title>
wee1_decoys_glide_SP

> <s_m_subgroupid>
wee1_decoys_glide_SP


$$$$
