@<TRIPOS>MOLECULE
ZINC09490678_5286
72   76    1
SMALL
USER_CHARGES


@<TRIPOS>ATOM
      1 C1         -0.6713   51.7716   29.7928 C.3       1 UNK         0.0000 
      2 C2          0.3428   52.7348   29.1580 C.3       1 UNK         0.0000 
      3 C3          1.7894   52.3491   29.5260 C.3       1 UNK         0.0000 
      4 C4          0.1389   52.8934   27.6307 C.3       1 UNK         0.0000 
      5 C5          0.4780   51.6481   26.7689 C.3       1 UNK         0.0000 
      6 N6          0.3039   51.8020   25.3145 N.am      1 UNK         0.0000 
      7 C7         -0.3527   50.7540   24.4864 C.3       1 UNK         0.0000 
      8 H8         -0.2131   49.7630   24.9158 H         1 UNK         0.0000 
      9 C9          0.4566   50.8863   23.1900 C.3       1 UNK         0.0000 
     10 C10         1.7140   50.0197   23.1427 C.2       1 UNK         0.0000 
     11 C11         2.2047   50.1487   21.9049 C.2       1 UNK         0.0000 
     12 C12         1.2688   51.1365   21.2363 C.3       1 UNK         0.0000 
     13 O13         0.0257   50.7541   21.8514 O.3       1 UNK         0.0000 
     14 C14         1.4471   52.5844   21.8248 C.3       1 UNK         0.0000 
     15 H15         0.9456   53.2968   21.1760 H         1 UNK         0.0000 
     16 C16         0.6104   52.3885   23.1287 C.3       1 UNK         0.0000 
     17 H17        -0.3387   52.8950   22.9365 H         1 UNK         0.0000 
     18 C18         0.9444   52.7606   24.5800 C.2       1 UNK         0.0000 
     19 O19         1.6332   53.7013   24.9644 O.2       1 UNK         0.0000 
     20 C20         2.9227   53.0602   21.9612 C.2       1 UNK         0.0000 
     21 O21         3.5044   52.9126   23.0216 O.2       1 UNK         0.0000 
     22 N22         3.5045   53.6263   20.8837 N.am      1 UNK         0.0000 
     23 C23         4.7816   54.2071   20.7599 C.ar      1 UNK         0.0000 
     24 C24         5.1743   54.5441   19.4620 C.ar      1 UNK         0.0000 
     25 C25         6.3934   55.1796   19.2400 C.ar      1 UNK         0.0000 
     26 C26         7.2160   55.4933   20.3188 C.ar      1 UNK         0.0000 
     27 C27         6.8341   55.1776   21.6199 C.ar      1 UNK         0.0000 
     28 C28         5.6297   54.5106   21.8412 C.ar      1 UNK         0.0000 
     29 F29         8.4049   56.0971   20.0986 F         1 UNK         0.0000 
     30 C30         1.1836   51.0052   19.7105 C.3       1 UNK         0.0000 
     31 C31        -1.8876   50.9458   24.3909 C.2       1 UNK         0.0000 
     32 O32        -2.4507   51.1447   23.3127 O.2       1 UNK         0.0000 
     33 N33        -2.5547   50.8818   25.5562 N.am      1 UNK         0.0000 
     34 C34        -4.0061   50.9928   25.7227 C.3       1 UNK         0.0000 
     35 C35        -4.7131   49.6237   25.5601 C.3       1 UNK         0.0000 
     36 C36        -4.2869   48.6055   26.6422 C.3       1 UNK         0.0000 
     37 C37        -4.5208   49.1572   28.0662 C.3       1 UNK         0.0000 
     38 C38        -3.9153   50.5630   28.2591 C.3       1 UNK         0.0000 
     39 C39        -4.3482   51.5297   27.1334 C.3       1 UNK         0.0000 
     40 H40        -0.5568   50.7752   29.3827 H         1 UNK         0.0000 
     41 H41        -0.5522   51.7025   30.8784 H         1 UNK         0.0000 
     42 H42        -1.6950   52.0883   29.5934 H         1 UNK         0.0000 
     43 H43         0.1593   53.7169   29.5992 H         1 UNK         0.0000 
     44 H44         2.0378   51.3435   29.1854 H         1 UNK         0.0000 
     45 H45         2.5079   53.0384   29.0816 H         1 UNK         0.0000 
     46 H46         1.9396   52.3743   30.6066 H         1 UNK         0.0000 
     47 H47         0.7643   53.7281   27.3176 H         1 UNK         0.0000 
     48 H48        -0.8923   53.1924   27.4351 H         1 UNK         0.0000 
     49 H49        -0.1207   50.8036   27.1112 H         1 UNK         0.0000 
     50 H50         1.5048   51.3412   26.9588 H         1 UNK         0.0000 
     51 H51         2.1081   49.4590   23.9756 H         1 UNK         0.0000 
     52 H52         3.1021   49.7307   21.4698 H         1 UNK         0.0000 
     53 H53         2.9220   53.7078   20.0637 H         1 UNK         0.0000 
     54 H54         4.5382   54.3161   18.6173 H         1 UNK         0.0000 
     55 H55         6.7005   55.4285   18.2351 H         1 UNK         0.0000 
     56 H56         7.4889   55.4231   22.4452 H         1 UNK         0.0000 
     57 H57         5.3683   54.2920   22.8630 H         1 UNK         0.0000 
     58 H58         2.1309   51.2694   19.2380 H         1 UNK         0.0000 
     59 H59         0.9401   49.9838   19.4172 H         1 UNK         0.0000 
     60 H60         0.4112   51.6590   19.3037 H         1 UNK         0.0000 
     61 H61        -2.0543   50.5484   26.3677 H         1 UNK         0.0000 
     62 H62        -4.3909   51.6991   24.9839 H         1 UNK         0.0000 
     63 H63        -4.5058   49.2162   24.5687 H         1 UNK         0.0000 
     64 H64        -5.7936   49.7657   25.5962 H         1 UNK         0.0000 
     65 H65        -3.2309   48.3548   26.5212 H         1 UNK         0.0000 
     66 H66        -4.8364   47.6726   26.5154 H         1 UNK         0.0000 
     67 H67        -4.0967   48.4742   28.8047 H         1 UNK         0.0000 
     68 H68        -5.5933   49.1994   28.2668 H         1 UNK         0.0000 
     69 H69        -2.8278   50.4824   28.2788 H         1 UNK         0.0000 
     70 H70        -4.2014   50.9631   29.2321 H         1 UNK         0.0000 
     71 H71        -5.4198   51.7195   27.2032 H         1 UNK         0.0000 
     72 H72        -3.8672   52.4971   27.2802 H         1 UNK         0.0000 
@<TRIPOS>BOND
     1    1    2 1    
     2    1   40 1    
     3    1   41 1    
     4    1   42 1    
     5    2    3 1    
     6    2    4 1    
     7    2   43 1    
     8    3   44 1    
     9    3   45 1    
    10    3   46 1    
    11    4    5 1    
    12    4   47 1    
    13    4   48 1    
    14    5    6 1    
    15    5   49 1    
    16    5   50 1    
    17    6   18 am   BACKBONE|DICT|INTERRES
    18    6    7 1    
    19    7    8 1    
    20    7    9 1    
    21    7   31 1    
    22    9   13 1    
    23    9   16 1    
    24    9   10 1    
    25   10   11 2    
    26   10   51 1    
    27   11   12 1    
    28   11   52 1    
    29   12   13 1    
    30   12   14 1    
    31   12   30 1    
    32   14   15 1    
    33   14   16 1    
    34   14   20 1    
    35   16   17 1    
    36   16   18 1    
    37   18   19 2    
    38   20   21 2    
    39   20   22 am   BACKBONE|DICT|INTERRES
    40   22   23 1    
    41   22   53 1    
    42   23   28 ar   
    43   23   24 ar   
    44   24   25 ar   
    45   24   54 1    
    46   25   26 ar   
    47   25   55 1    
    48   26   27 ar   
    49   26   29 1    
    50   27   28 ar   
    51   27   56 1    
    52   28   57 1    
    53   30   58 1    
    54   30   59 1    
    55   30   60 1    
    56   31   32 2    
    57   31   33 am   BACKBONE|DICT|INTERRES
    58   33   34 1    
    59   33   61 1    
    60   34   39 1    
    61   34   35 1    
    62   34   62 1    
    63   35   36 1    
    64   35   63 1    
    65   35   64 1    
    66   36   37 1    
    67   36   65 1    
    68   36   66 1    
    69   37   38 1    
    70   37   67 1    
    71   37   68 1    
    72   38   39 1    
    73   38   69 1    
    74   38   70 1    
    75   39   71 1    
    76   39   72 1    
@<TRIPOS>SUBSTRUCTURE
     1 UNK         1 GROUP             0       ****    0 ROOT    
