@<TRIPOS>MOLECULE
ZINC42782260_4687
38   40    1
SMALL
USER_CHARGES


@<TRIPOS>ATOM
      1 C1          1.5023   53.9227   27.8970 C.3       1 UNK         0.0000 
      2 C2          2.3246   53.1101   26.8816 C.3       1 UNK         0.0000 
      3 H3          2.4493   52.1118   27.3034 H         1 UNK         0.0000 
      4 C4          3.6932   53.7232   26.5968 C.2       1 UNK         0.0000 
      5 C5          4.7131   53.9112   27.5431 C.2       1 UNK         0.0000 
      6 C6          5.8535   54.4969   27.0146 C.2       1 UNK         0.0000 
      7 S7          5.6909   54.8114   25.3185 S.3       1 UNK         0.0000 
      8 C8          4.0718   54.1733   25.3276 C.2       1 UNK         0.0000 
      9 C9          3.2104   54.0453   24.0813 C.3       1 UNK         0.0000 
     10 C10         1.7271   53.9021   24.4890 C.3       1 UNK         0.0000 
     11 N11         1.5052   52.9707   25.6343 N.pl3     1 UNK         0.0000 
     12 S12         0.5877   51.4796   25.3370 S.o2      1 UNK         0.0000 
     13 O13         0.7031   50.6036   26.5100 O.2       1 UNK         0.0000 
     14 O14         0.9654   50.9901   24.0059 O.2       1 UNK         0.0000 
     15 C15        -1.1226   52.0293   25.2245 C.ar      1 UNK         0.0000 
     16 C16        -1.5970   52.4442   23.9762 C.ar      1 UNK         0.0000 
     17 C17        -2.9055   52.8972   23.8377 C.ar      1 UNK         0.0000 
     18 C18        -3.7573   52.9260   24.9353 C.ar      1 UNK         0.0000 
     19 C19        -3.2910   52.5154   26.1802 C.ar      1 UNK         0.0000 
     20 C20        -1.9720   52.0726   26.3477 C.ar      1 UNK         0.0000 
     21 N21        -1.4960   51.6968   27.6123 N.pl3     1 UNK         0.0000 
     22 N22        -2.3910   51.2954   28.6812 N.3       1 UNK         0.0000 
     23 H23         2.0115   53.9708   28.8602 H         1 UNK         0.0000 
     24 H24         1.3405   54.9468   27.5667 H         1 UNK         0.0000 
     25 H25         0.5258   53.4720   28.0756 H         1 UNK         0.0000 
     26 H26         4.6179   53.6278   28.5815 H         1 UNK         0.0000 
     27 H27         6.7640   54.7484   27.5392 H         1 UNK         0.0000 
     28 H28         3.5144   53.1640   23.5171 H         1 UNK         0.0000 
     29 H29         3.3443   54.8967   23.4144 H         1 UNK         0.0000 
     30 H30         1.1680   53.5230   23.6320 H         1 UNK         0.0000 
     31 H31         1.2657   54.8565   24.7304 H         1 UNK         0.0000 
     32 H32        -0.9518   52.4180   23.1099 H         1 UNK         0.0000 
     33 H33        -3.2670   53.2241   22.8804 H         1 UNK         0.0000 
     34 H34        -4.7753   53.2692   24.8236 H         1 UNK         0.0000 
     35 H35        -3.9602   52.5482   27.0258 H         1 UNK         0.0000 
     36 H36        -0.6865   51.0726   27.5748 H         1 UNK         0.0000 
     37 H37        -2.4949   50.2816   28.6301 H         1 UNK         0.0000 
     38 H38        -1.9537   51.5232   29.5654 H         1 UNK         0.0000 
@<TRIPOS>BOND
     1    1    2 1    
     2    1   23 1    
     3    1   24 1    
     4    1   25 1    
     5    2    3 1    
     6    2   11 1    
     7    2    4 1    
     8    4    8 2    
     9    4    5 1    
    10    5    6 2    
    11    5   26 1    
    12    6    7 1    
    13    6   27 1    
    14    7    8 1    
    15    8    9 1    
    16    9   10 1    
    17    9   28 1    
    18    9   29 1    
    19   10   11 1    
    20   10   30 1    
    21   10   31 1    
    22   11   12 1    
    23   12   13 2    
    24   12   14 2    
    25   12   15 1    
    26   15   20 ar   
    27   15   16 ar   
    28   16   17 ar   
    29   16   32 1    
    30   17   18 ar   
    31   17   33 1    
    32   18   19 ar   
    33   18   34 1    
    34   19   20 ar   
    35   19   35 1    
    36   20   21 1    
    37   21   22 1    
    38   21   36 1    
    39   22   37 1    
    40   22   38 1    
@<TRIPOS>SUBSTRUCTURE
     1 UNK         1 GROUP             0       ****    0 ROOT    
