@<TRIPOS>MOLECULE
ZINC14836498_3611
50   51    1
SMALL
USER_CHARGES


@<TRIPOS>ATOM
      1 C1          6.6738   55.2488   25.2176 C.3       1 UNK         0.0000 
      2 C2          5.3608   54.6330   25.7302 C.3       1 UNK         0.0000 
      3 C3          5.2914   54.4000   27.2583 C.3       1 UNK         0.0000 
      4 H4          5.4004   55.3733   27.7375 H         1 UNK         0.0000 
      5 C5          6.4248   53.5031   27.7936 C.3       1 UNK         0.0000 
      6 N6          3.9730   53.8688   27.6131 N.am      1 UNK         0.0000 
      7 C7          3.3908   53.9251   28.8265 C.2       1 UNK         0.0000 
      8 O8          3.9112   54.4935   29.7861 O.2       1 UNK         0.0000 
      9 C9          2.0457   53.2465   28.9730 C.ar      1 UNK         0.0000 
     10 C10         1.2608   53.4789   30.1138 C.ar      1 UNK         0.0000 
     11 C11         0.0629   52.7962   30.3113 C.ar      1 UNK         0.0000 
     12 C12        -0.3966   51.9023   29.3488 C.ar      1 UNK         0.0000 
     13 C13         0.3383   51.6927   28.1816 C.ar      1 UNK         0.0000 
     14 C14         1.5667   52.3431   28.0102 C.ar      1 UNK         0.0000 
     15 N15        -0.1523   50.7331   27.2816 N.pl3     1 UNK         0.0000 
     16 C16        -0.1478   50.6375   25.9213 C.2       1 UNK         0.0000 
     17 S17         0.3383   51.8708   24.8761 S.2       1 UNK         0.0000 
     18 N18        -0.6567   49.4181   25.5572 N.am      1 UNK         0.0000 
     19 C19        -0.6718   48.7737   24.3659 C.2       1 UNK         0.0000 
     20 O20         0.1902   48.8962   23.4930 O.2       1 UNK         0.0000 
     21 C21        -1.8546   47.8549   24.1597 C.ar      1 UNK         0.0000 
     22 C22        -2.3080   47.0452   25.2175 C.ar      1 UNK         0.0000 
     23 C23        -3.4237   46.2270   25.0535 C.ar      1 UNK         0.0000 
     24 C24        -4.0938   46.1969   23.8363 C.ar      1 UNK         0.0000 
     25 C25        -3.6474   46.9801   22.7762 C.ar      1 UNK         0.0000 
     26 C26        -2.5292   47.8201   22.9192 C.ar      1 UNK         0.0000 
     27 O27        -2.0818   48.6404   21.8963 O.3       1 UNK         0.0000 
     28 C28        -2.7408   48.6384   20.6349 C.3       1 UNK         0.0000 
     29 Br29       -4.0281   45.1271   26.4824 Br        1 UNK         0.0000 
     30 H30         6.5934   55.5117   24.1617 H         1 UNK         0.0000 
     31 H31         7.5030   54.5486   25.3069 H         1 UNK         0.0000 
     32 H32         6.9283   56.1557   25.7647 H         1 UNK         0.0000 
     33 H33         4.5423   55.2957   25.4410 H         1 UNK         0.0000 
     34 H34         5.1768   53.6953   25.2023 H         1 UNK         0.0000 
     35 H35         7.4072   53.8921   27.5262 H         1 UNK         0.0000 
     36 H36         6.4051   53.4422   28.8819 H         1 UNK         0.0000 
     37 H37         6.3590   52.4967   27.3835 H         1 UNK         0.0000 
     38 H38         3.4482   53.4555   26.8590 H         1 UNK         0.0000 
     39 H39         1.5780   54.1711   30.8787 H         1 UNK         0.0000 
     40 H40        -0.4981   52.9444   31.2234 H         1 UNK         0.0000 
     41 H41        -1.3167   51.3618   29.5251 H         1 UNK         0.0000 
     42 H42         2.1633   52.1020   27.1436 H         1 UNK         0.0000 
     43 H43        -0.6622   49.9889   27.7474 H         1 UNK         0.0000 
     44 H44        -1.2953   49.0282   26.2374 H         1 UNK         0.0000 
     45 H45        -1.8052   47.0461   26.1783 H         1 UNK         0.0000 
     46 H46        -4.9638   45.5688   23.7120 H         1 UNK         0.0000 
     47 H47        -4.1964   46.9303   21.8486 H         1 UNK         0.0000 
     48 H48        -2.2369   49.3393   19.9701 H         1 UNK         0.0000 
     49 H49        -2.7041   47.6552   20.1649 H         1 UNK         0.0000 
     50 H50        -3.7800   48.9592   20.7253 H         1 UNK         0.0000 
@<TRIPOS>BOND
     1    1    2 1    
     2    1   30 1    
     3    1   31 1    
     4    1   32 1    
     5    2    3 1    
     6    2   33 1    
     7    2   34 1    
     8    3    4 1    
     9    3    5 1    
    10    3    6 1    
    11    5   35 1    
    12    5   36 1    
    13    5   37 1    
    14    6    7 am   BACKBONE|DICT|INTERRES
    15    6   38 1    
    16    7    8 2    
    17    7    9 1    
    18    9   14 ar   
    19    9   10 ar   
    20   10   11 ar   
    21   10   39 1    
    22   11   12 ar   
    23   11   40 1    
    24   12   13 ar   
    25   12   41 1    
    26   13   14 ar   
    27   13   15 1    
    28   14   42 1    
    29   15   16 1    
    30   15   43 1    
    31   16   17 2    
    32   16   18 am   BACKBONE|DICT|INTERRES
    33   18   19 am   BACKBONE|DICT|INTERRES
    34   18   44 1    
    35   19   20 2    
    36   19   21 1    
    37   21   26 ar   
    38   21   22 ar   
    39   22   23 ar   
    40   22   45 1    
    41   23   24 ar   
    42   23   29 1    
    43   24   25 ar   
    44   24   46 1    
    45   25   26 ar   
    46   25   47 1    
    47   26   27 1    
    48   27   28 1    
    49   28   48 1    
    50   28   49 1    
    51   28   50 1    
@<TRIPOS>SUBSTRUCTURE
     1 UNK         1 GROUP             0       ****    0 ROOT    
