@<TRIPOS>MOLECULE
ZINC39966335_3739
54   57    1
SMALL
USER_CHARGES


@<TRIPOS>ATOM
      1 C1         -5.4962   44.6137   23.6793 C.3       1 UNK         0.0000 
      2 C2         -5.0890   45.3025   24.9793 C.2       1 UNK         0.0000 
      3 C3         -4.4885   46.5882   25.0498 C.2       1 UNK         0.0000 
      4 C4         -4.2173   46.9840   26.3685 C.2       1 UNK         0.0000 
      5 S5         -4.5610   45.7418   27.5133 S.3       1 UNK         0.0000 
      6 C6         -5.1487   44.6939   26.2500 C.2       1 UNK         0.0000 
      7 C7         -5.7466   43.4171   26.5843 C.2       1 UNK         0.0000 
      8 O8         -6.6385   42.9192   25.9052 O.2       1 UNK         0.0000 
      9 N9         -5.2956   42.8094   27.6810 N.am      1 UNK         0.0000 
     10 N10        -3.6956   48.1607   26.8813 N.am      1 UNK         0.0000 
     11 C11        -4.1962   49.3887   26.6533 C.2       1 UNK         0.0000 
     12 O12        -5.1704   49.6191   25.9342 O.2       1 UNK         0.0000 
     13 C13        -3.4954   50.5285   27.3997 C.3       1 UNK         0.0000 
     14 S14        -3.4148   52.0981   26.4790 S.3       1 UNK         0.0000 
     15 C15        -1.7620   51.9344   25.8924 C.ar      1 UNK         0.0000 
     16 N16        -0.7053   52.2704   26.5912 N.2       1 UNK         0.0000 
     17 N17         0.4147   52.0371   25.7994 N.2       1 UNK         0.0000 
     18 C18        -0.0117   51.5474   24.6607 C.ar      1 UNK         0.0000 
     19 N19        -1.3880   51.4532   24.6560 N.pl3     1 UNK         0.0000 
     20 C20        -2.2433   50.9701   23.5802 C.3       1 UNK         0.0000 
     21 C21         0.8540   51.1686   23.5500 C.2       1 UNK         0.0000 
     22 C22         0.9546   49.8570   23.1223 C.2       1 UNK         0.0000 
     23 S23         2.0347   49.6835   21.7997 S.3       1 UNK         0.0000 
     24 C24         2.3711   51.3890   21.7776 C.2       1 UNK         0.0000 
     25 C25         1.6848   52.0459   22.8129 C.2       1 UNK         0.0000 
     26 C26         1.8566   53.5357   23.0640 C.3       1 UNK         0.0000 
     27 C27         3.3129   53.9493   23.3656 C.3       1 UNK         0.0000 
     28 C28         4.2639   54.0064   22.1495 C.3       1 UNK         0.0000 
     29 C29         4.5458   52.6770   21.4142 C.3       1 UNK         0.0000 
     30 C30         3.3107   52.0207   20.7716 C.3       1 UNK         0.0000 
     31 C31        -4.1883   47.3999   23.8730 C.1       1 UNK         0.0000 
     32 N32        -3.9486   48.0377   22.9379 N.1       1 UNK         0.0000 
     33 H33        -5.2963   43.5423   23.7034 H         1 UNK         0.0000 
     34 H34        -6.5637   44.7273   23.4875 H         1 UNK         0.0000 
     35 H35        -4.9587   44.9811   22.8052 H         1 UNK         0.0000 
     36 H36        -4.3897   43.0657   28.0816 H         1 UNK         0.0000 
     37 H37        -5.7299   41.9419   27.9570 H         1 UNK         0.0000 
     38 H38        -2.9586   48.0950   27.5882 H         1 UNK         0.0000 
     39 H39        -4.0642   50.7075   28.3111 H         1 UNK         0.0000 
     40 H40        -2.4961   50.2330   27.7194 H         1 UNK         0.0000 
     41 H41        -1.9004   49.9900   23.2503 H         1 UNK         0.0000 
     42 H42        -3.2752   50.8834   23.9194 H         1 UNK         0.0000 
     43 H43        -2.2066   51.6754   22.7507 H         1 UNK         0.0000 
     44 H44         0.4575   48.9899   23.5318 H         1 UNK         0.0000 
     45 H45         1.5036   54.0962   22.1979 H         1 UNK         0.0000 
     46 H46         1.2244   53.8687   23.8873 H         1 UNK         0.0000 
     47 H47         3.7301   53.2970   24.1343 H         1 UNK         0.0000 
     48 H48         3.2920   54.9412   23.8167 H         1 UNK         0.0000 
     49 H49         5.2174   54.4193   22.4821 H         1 UNK         0.0000 
     50 H50         3.8724   54.7299   21.4325 H         1 UNK         0.0000 
     51 H51         5.0402   51.9705   22.0817 H         1 UNK         0.0000 
     52 H52         5.2692   52.8792   20.6229 H         1 UNK         0.0000 
     53 H53         3.6301   51.2885   20.0277 H         1 UNK         0.0000 
     54 H54         2.7793   52.7902   20.2092 H         1 UNK         0.0000 
@<TRIPOS>BOND
     1    1    2 1    
     2    1   33 1    
     3    1   34 1    
     4    1   35 1    
     5    2    6 2    
     6    2    3 1    
     7    3    4 2    
     8    3   31 1    
     9    4    5 1    
    10    4   10 am   BACKBONE|DICT|INTERRES
    11    5    6 1    
    12    6    7 1    
    13    7    8 2    
    14    7    9 am   BACKBONE|DICT|INTERRES
    15    9   36 1    
    16    9   37 1    
    17   10   11 am   BACKBONE|DICT|INTERRES
    18   10   38 1    
    19   11   12 2    
    20   11   13 1    
    21   13   14 1    
    22   13   39 1    
    23   13   40 1    
    24   14   15 1    
    25   15   19 ar   
    26   15   16 ar   
    27   16   17 ar   
    28   17   18 ar   
    29   18   19 ar   
    30   18   21 1    
    31   19   20 1    
    32   20   41 1    
    33   20   42 1    
    34   20   43 1    
    35   21   25 1    
    36   21   22 2    
    37   22   23 1    
    38   22   44 1    
    39   23   24 1    
    40   24   30 1    
    41   24   25 2    
    42   25   26 1    
    43   26   27 1    
    44   26   45 1    
    45   26   46 1    
    46   27   28 1    
    47   27   47 1    
    48   27   48 1    
    49   28   29 1    
    50   28   49 1    
    51   28   50 1    
    52   29   30 1    
    53   29   51 1    
    54   29   52 1    
    55   30   53 1    
    56   30   54 1    
    57   31   32 3    
@<TRIPOS>SUBSTRUCTURE
     1 UNK         1 GROUP             0       ****    0 ROOT    
