@<TRIPOS>MOLECULE
ZINC33598414_5302
66   70    1
SMALL
USER_CHARGES


@<TRIPOS>ATOM
      1 C1          1.7258   54.0915   23.5220 C.3       1 UNK         0.0000 
      2 C2          3.2388   54.0336   23.6947 C.ar      1 UNK         0.0000 
      3 C3          3.7829   54.4968   24.8975 C.ar      1 UNK         0.0000 
      4 C4          5.1628   54.5681   25.0776 C.ar      1 UNK         0.0000 
      5 C5          6.0161   54.1882   24.0454 C.ar      1 UNK         0.0000 
      6 C6          5.4876   53.6972   22.8541 C.ar      1 UNK         0.0000 
      7 C7          4.1010   53.5893   22.6660 C.ar      1 UNK         0.0000 
      8 N8          3.6182   52.9890   21.4742 N.am      1 UNK         0.0000 
      9 C9          3.9044   53.4418   20.2073 C.2       1 UNK         0.0000 
     10 O10         4.7040   54.3041   19.8443 O.2       1 UNK         0.0000 
     11 C11         2.9071   52.7132   19.3282 C.3       1 UNK         0.0000 
     12 H12         1.9907   53.2966   19.4015 H         1 UNK         0.0000 
     13 C13         3.1054   52.3191   17.8653 C.3       1 UNK         0.0000 
     14 H14         4.1601   52.0966   17.6945 H         1 UNK         0.0000 
     15 N15         2.3045   50.9756   17.7989 N.4       1 UNK         0.0000 
     16 C16         1.7977   50.5962   19.2344 C.3       1 UNK         0.0000 
     17 C17         2.8641   51.4139   20.0044 C.3       1 UNK         0.0000 
     18 H18         3.7942   50.8368   19.9172 H         1 UNK         0.0000 
     19 C19         2.8405   51.8523   21.4537 C.2       1 UNK         0.0000 
     20 O20         2.3040   51.2511   22.3843 O.2       1 UNK         0.0000 
     21 C21         0.3206   51.0678   19.5220 C.3       1 UNK         0.0000 
     22 C22        -0.8805   50.2487   18.9473 C.3       1 UNK         0.0000 
     23 C23        -2.2473   50.8398   19.3815 C.3       1 UNK         0.0000 
     24 C24        -2.5995   52.1512   18.6414 C.3       1 UNK         0.0000 
     25 C25        -2.5584   51.9668   17.1126 C.3       1 UNK         0.0000 
     26 C26        -1.2225   51.3564   16.6431 C.3       1 UNK         0.0000 
     27 C27        -0.8950   50.0575   17.4066 C.3       1 UNK         0.0000 
     28 C28         1.8953   49.0375   19.3966 C.2       1 UNK         0.0000 
     29 O29         1.9042   48.3007   18.3839 O.co2     1 UNK         0.0000 
     30 O30         1.9027   48.5896   20.5647 O.co2     1 UNK         0.0000 
     31 C31         2.6354   53.2731   16.7637 C.ar      1 UNK         0.0000 
     32 C32         3.4112   53.4084   15.6064 C.ar      1 UNK         0.0000 
     33 C33         3.0245   54.2821   14.5915 C.ar      1 UNK         0.0000 
     34 C34         1.8570   55.0332   14.7228 C.ar      1 UNK         0.0000 
     35 C35         1.0643   54.9136   15.8698 C.ar      1 UNK         0.0000 
     36 C36         1.4619   54.0324   16.8829 C.ar      1 UNK         0.0000 
     37 C37        -0.2211   55.7286   16.0256 C.3       1 UNK         0.0000 
     38 F38        -1.2627   54.9555   15.7173 F         1 UNK         0.0000 
     39 F39        -0.3700   56.1538   17.2816 F         1 UNK         0.0000 
     40 F40        -0.2382   56.7955   15.2227 F         1 UNK         0.0000 
     41 H41         1.2921   54.8964   24.1147 H         1 UNK         0.0000 
     42 H42         1.4662   54.3129   22.4852 H         1 UNK         0.0000 
     43 H43         1.2573   53.1511   23.8174 H         1 UNK         0.0000 
     44 H44         3.1346   54.8209   25.6985 H         1 UNK         0.0000 
     45 H45         5.5677   54.9353   26.0093 H         1 UNK         0.0000 
     46 H46         7.0871   54.2567   24.1731 H         1 UNK         0.0000 
     47 H47         6.1668   53.3792   22.0813 H         1 UNK         0.0000 
     48 H48         2.9345   50.2415   17.4642 H         1 UNK         0.0000 
     49 H49         0.2013   52.1028   19.2106 H         1 UNK         0.0000 
     50 H50         0.1887   51.0878   20.6052 H         1 UNK         0.0000 
     51 H51        -0.8530   49.2459   19.3781 H         1 UNK         0.0000 
     52 H52        -2.2580   51.0063   20.4597 H         1 UNK         0.0000 
     53 H53        -3.0335   50.1056   19.1922 H         1 UNK         0.0000 
     54 H54        -1.9000   52.9389   18.9168 H         1 UNK         0.0000 
     55 H55        -3.5887   52.4945   18.9462 H         1 UNK         0.0000 
     56 H56        -2.7314   52.9216   16.6146 H         1 UNK         0.0000 
     57 H57        -3.3781   51.3144   16.8079 H         1 UNK         0.0000 
     58 H58        -0.4216   52.0792   16.7847 H         1 UNK         0.0000 
     59 H59        -1.2623   51.1597   15.5704 H         1 UNK         0.0000 
     60 H60        -1.6420   49.3046   17.1495 H         1 UNK         0.0000 
     61 H61         0.0501   49.6562   17.0471 H         1 UNK         0.0000 
     62 H62         4.3201   52.8347   15.4873 H         1 UNK         0.0000 
     63 H63         3.6323   54.3809   13.7032 H         1 UNK         0.0000 
     64 H64         1.5735   55.7069   13.9271 H         1 UNK         0.0000 
     65 H65         0.8389   53.9440   17.7593 H         1 UNK         0.0000 
     66 H66         1.5455   51.0159   17.1379 H         1 UNK         0.0000 
@<TRIPOS>BOND
     1    1    2 1    
     2    1   41 1    
     3    1   42 1    
     4    1   43 1    
     5    2    7 ar   
     6    2    3 ar   
     7    3    4 ar   
     8    3   44 1    
     9    4    5 ar   
    10    4   45 1    
    11    5    6 ar   
    12    5   46 1    
    13    6    7 ar   
    14    6   47 1    
    15    7    8 1    
    16    8   19 am   BACKBONE|DICT|INTERRES
    17    8    9 am   BACKBONE|DICT|INTERRES
    18    9   10 2    
    19    9   11 1    
    20   11   12 1    
    21   11   17 1    
    22   11   13 1    
    23   13   14 1    
    24   13   15 1    
    25   13   31 1    
    26   15   16 1    
    27   15   48 1    
    28   15   66 1    
    29   16   17 1    
    30   16   21 1    
    31   16   28 1    
    32   17   18 1    
    33   17   19 1    
    34   19   20 2    
    35   21   22 1    
    36   21   49 1    
    37   21   50 1    
    38   22   27 1    
    39   22   23 1    
    40   22   51 1    
    41   23   24 1    
    42   23   52 1    
    43   23   53 1    
    44   24   25 1    
    45   24   54 1    
    46   24   55 1    
    47   25   26 1    
    48   25   56 1    
    49   25   57 1    
    50   26   27 1    
    51   26   58 1    
    52   26   59 1    
    53   27   60 1    
    54   27   61 1    
    55   28   29 2    
    56   28   30 1    
    57   31   36 ar   
    58   31   32 ar   
    59   32   33 ar   
    60   32   62 1    
    61   33   34 ar   
    62   33   63 1    
    63   34   35 ar   
    64   34   64 1    
    65   35   36 ar   
    66   35   37 1    
    67   36   65 1    
    68   37   38 1    
    69   37   39 1    
    70   37   40 1    
@<TRIPOS>SUBSTRUCTURE
     1 UNK         1 GROUP             0       ****    0 ROOT    
