ZINC08712472_5731
                    3D
 Schrodinger Suite 2024-2.
 78 82  0  0  1  0            999 V2000
   -2.9703   47.9319   21.8435 C   0  0  0  0  0  0
   -3.2325   49.2417   22.5579 C   0  0  0  0  0  0
   -4.4825   49.5447   23.1064 C   0  0  0  0  0  0
   -4.6080   50.7917   23.7292 C   0  0  0  0  0  0
   -3.5787   51.6778   23.8030 N   0  0  0  0  0  0
   -2.4096   51.2932   23.2300 C   0  0  0  0  0  0
   -2.1822   50.1005   22.6174 N   0  0  0  0  0  0
   -1.0991   52.4755   23.2820 S   0  0  0  0  0  0
    0.2845   51.9058   22.2269 C   0  0  0  0  0  0
   -0.0074   51.7043   20.7197 C   0  0  0  0  0  0
   -1.1636   51.8581   20.3219 O   0  0  0  0  0  0
    1.0210   51.3847   19.8687 N   0  0  0  0  0  0
    2.3763   51.0627   20.3680 C   0  0  0  0  0  0
    3.2503   52.2670   20.6509 C   0  0  0  0  0  0
    3.5921   52.5992   21.8698 N   0  0  0  0  0  0
    4.4115   53.6311   21.9439 C   0  0  0  0  0  0
    4.7531   54.1654   20.7012 C   0  0  0  0  0  0
    3.9345   53.2956   19.4364 S   0  0  0  0  0  0
    4.8839   54.0962   23.2842 C   0  0  0  0  0  0
    6.2095   54.5067   23.4566 C   0  0  0  0  0  0
    6.6589   54.9047   24.7136 C   0  0  0  0  0  0
    5.7861   54.8968   25.7980 C   0  0  0  0  0  0
    4.4628   54.4969   25.6365 C   0  0  0  0  0  0
    4.0122   54.0968   24.3814 C   0  0  0  0  0  0
    0.8317   51.0259   18.4259 C   0  0  1  0  0  0
    1.8173   51.1389   17.9695 H   0  0  0  0  0  0
    0.4120   49.5181   18.1941 C   0  0  2  0  0  0
   -0.6772   49.4923   18.2747 H   0  0  0  0  0  0
    0.9469   48.4818   19.2221 C   0  0  0  0  0  0
    0.2149   47.1293   19.0787 C   0  0  0  0  0  0
    0.2059   46.7072   17.6138 C   0  0  0  0  0  0
    0.5078   47.5378   16.5959 C   0  0  0  0  0  0
    0.8360   49.0208   16.7759 C   0  0  0  0  0  0
   -0.0346   52.0316   17.5902 C   0  0  0  0  0  0
   -0.9161   51.6030   16.8420 O   0  0  0  0  0  0
    0.2273   53.3444   17.7769 N   0  0  0  0  0  0
   -0.4877   54.4552   17.2836 C   0  0  0  0  0  0
   -1.8338   54.4090   16.8880 C   0  0  0  0  0  0
   -2.4840   55.5710   16.4815 C   0  0  0  0  0  0
   -1.8039   56.7984   16.4729 C   0  0  0  0  0  0
   -0.4703   56.8379   16.8754 C   0  0  0  0  0  0
    0.1836   55.6768   17.2804 C   0  0  0  0  0  0
   -2.3686   57.9991   16.0888 O   0  0  0  0  0  0
   -3.7311   58.0246   15.6800 C   0  0  0  0  0  0
   -5.9134   51.2380   24.3557 C   0  0  0  0  0  0
   -3.8712   47.3158   21.7885 H   0  0  0  0  0  0
   -2.1965   47.3619   22.3641 H   0  0  0  0  0  0
   -2.6292   48.1259   20.8246 H   0  0  0  0  0  0
   -5.3102   48.8530   23.0507 H   0  0  0  0  0  0
    1.0489   52.6708   22.3269 H   0  0  0  0  0  0
    0.6739   50.9839   22.6557 H   0  0  0  0  0  0
    2.2915   50.4501   21.2660 H   0  0  0  0  0  0
    2.8897   50.4017   19.6657 H   0  0  0  0  0  0
    5.3975   55.0014   20.4767 H   0  0  0  0  0  0
    6.8997   54.5036   22.6250 H   0  0  0  0  0  0
    7.6825   55.2116   24.8489 H   0  0  0  0  0  0
    6.1363   55.2023   26.7741 H   0  0  0  0  0  0
    3.7899   54.4922   26.4815 H   0  0  0  0  0  0
    2.9844   53.7841   24.2645 H   0  0  0  0  0  0
    2.0300   48.3787   19.1392 H   0  0  0  0  0  0
    0.7723   48.8249   20.2406 H   0  0  0  0  0  0
   -0.8058   47.1938   19.4543 H   0  0  0  0  0  0
    0.7185   46.3754   19.6824 H   0  0  0  0  0  0
   -0.0323   45.6817   17.3708 H   0  0  0  0  0  0
    0.5014   47.1315   15.5945 H   0  0  0  0  0  0
    0.3279   49.5863   15.9961 H   0  0  0  0  0  0
    1.9046   49.1681   16.6162 H   0  0  0  0  0  0
    1.0197   53.5710   18.3630 H   0  0  0  0  0  0
   -2.3981   53.4895   16.9090 H   0  0  0  0  0  0
   -3.5178   55.5024   16.1792 H   0  0  0  0  0  0
    0.0621   57.7790   16.8794 H   0  0  0  0  0  0
    1.2153   55.7357   17.5990 H   0  0  0  0  0  0
   -4.0088   59.0458   15.4188 H   0  0  0  0  0  0
   -3.8955   57.4018   14.7996 H   0  0  0  0  0  0
   -4.3946   57.6975   16.4816 H   0  0  0  0  0  0
   -6.7465   50.6185   24.0244 H   0  0  0  0  0  0
   -5.8482   51.1745   25.4413 H   0  0  0  0  0  0
   -6.1388   52.2690   24.0825 H   0  0  0  0  0  0
  1  2  1  0  0  0
  1 46  1  0  0  0
  1 47  1  0  0  0
  1 48  1  0  0  0
  2  7  2  0  0  0
  2  3  1  0  0  0
  3  4  2  0  0  0
  3 49  1  0  0  0
  4  5  1  0  0  0
  4 45  1  0  0  0
  5  6  2  0  0  0
  6  7  1  0  0  0
  6  8  1  0  0  0
  8  9  1  0  0  0
  9 10  1  0  0  0
  9 50  1  0  0  0
  9 51  1  0  0  0
 10 11  2  0  0  0
 10 12  1  0  0  0
 12 13  1  0  0  0
 12 25  1  0  0  0
 13 14  1  0  0  0
 13 52  1  0  0  0
 13 53  1  0  0  0
 14 18  1  0  0  0
 14 15  2  0  0  0
 15 16  1  0  0  0
 16 17  2  0  0  0
 16 19  1  0  0  0
 17 18  1  0  0  0
 17 54  1  0  0  0
 19 24  2  0  0  0
 19 20  1  0  0  0
 20 21  2  0  0  0
 20 55  1  0  0  0
 21 22  1  0  0  0
 21 56  1  0  0  0
 22 23  2  0  0  0
 22 57  1  0  0  0
 23 24  1  0  0  0
 23 58  1  0  0  0
 24 59  1  0  0  0
 25 26  1  0  0  0
 25 27  1  0  0  0
 25 34  1  0  0  0
 27 28  1  0  0  0
 27 33  1  0  0  0
 27 29  1  0  0  0
 29 30  1  0  0  0
 29 60  1  0  0  0
 29 61  1  0  0  0
 30 31  1  0  0  0
 30 62  1  0  0  0
 30 63  1  0  0  0
 31 32  2  0  0  0
 31 64  1  0  0  0
 32 33  1  0  0  0
 32 65  1  0  0  0
 33 66  1  0  0  0
 33 67  1  0  0  0
 34 35  2  0  0  0
 34 36  1  0  0  0
 36 37  1  0  0  0
 36 68  1  0  0  0
 37 42  2  0  0  0
 37 38  1  0  0  0
 38 39  2  0  0  0
 38 69  1  0  0  0
 39 40  1  0  0  0
 39 70  1  0  0  0
 40 41  2  0  0  0
 40 43  1  0  0  0
 41 42  1  0  0  0
 41 71  1  0  0  0
 42 72  1  0  0  0
 43 44  1  0  0  0
 44 73  1  0  0  0
 44 74  1  0  0  0
 44 75  1  0  0  0
 45 76  1  0  0  0
 45 77  1  0  0  0
 45 78  1  0  0  0
M  END
> <i_i_glide_confnum>
36

> <i_i_glide_lignum>
5732

> <i_i_glide_posenum>
221

> <i_i_glide_rotatable_bonds>
13

> <i_m_Source_File_Index>
3656

> <b_m_subgroup_collapsed>
0

> <r_i_docking_score>
-4.76303

> <r_i_glide_ecoul>
-5.21099

> <r_i_glide_eff_state_penalty>
0

> <r_i_glide_einternal>
14.1352

> <r_i_glide_emodel>
-57.9492

> <r_i_glide_energy>
-49.3168

> <r_i_glide_erotb>
0.487855

> <r_i_glide_esite>
-0.0488351

> <r_i_glide_evdw>
-44.1058

> <r_i_glide_gscore>
-4.76303

> <r_i_glide_hbond>
-0.0163974

> <r_i_glide_ligand_efficiency>
-0.110768

> <r_i_glide_ligand_efficiency_ln>
-1.00038

> <r_i_glide_ligand_efficiency_sa>
-0.388065

> <r_i_glide_lipo>
-2.18905

> <r_i_glide_metal>
0

> <r_i_glide_rewards>
-0.00966756

> <s_i_glide_gridfile>
wee1_glide-grid

> <s_m_Source_File>
wee1_decoys_glide_SP.sdf

> <s_m_Source_Path>
/Users/zhangxujun/Desktop

> <s_m_entry_id>
3931

> <s_m_entry_name>
wee1_decoys_glide_SP.3656

> <s_m_subgroup_title>
wee1_decoys_glide_SP

> <s_m_subgroupid>
wee1_decoys_glide_SP


$$$$
