@<TRIPOS>MOLECULE
ZINC59438420_5220
49   52    1
SMALL
USER_CHARGES


@<TRIPOS>ATOM
      1 C1          0.9033   51.5428   24.9158 C.3       1 UNK         0.0000 
      2 C2          0.9215   52.3143   26.2448 C.ar      1 UNK         0.0000 
      3 C3          1.9052   53.2974   26.5087 C.ar      1 UNK         0.0000 
      4 C4          1.8962   53.9534   27.7490 C.ar      1 UNK         0.0000 
      5 C5          0.9578   53.6379   28.7264 C.ar      1 UNK         0.0000 
      6 C6          0.0008   52.6633   28.4775 C.ar      1 UNK         0.0000 
      7 C7         -0.0337   52.0174   27.2409 C.ar      1 UNK         0.0000 
      8 N8         -1.0178   51.0350   27.0658 N.pl3     1 UNK         0.0000 
      9 C9         -2.2080   51.1039   26.3986 C.2       1 UNK         0.0000 
     10 S10        -2.7825   52.4960   25.6356 S.2       1 UNK         0.0000 
     11 N11        -2.8508   49.8971   26.4805 N.am      1 UNK         0.0000 
     12 C12        -3.9255   49.3897   25.8321 C.2       1 UNK         0.0000 
     13 O13        -4.3388   49.7823   24.7378 O.2       1 UNK         0.0000 
     14 C14        -4.5854   48.2185   26.5193 C.ar      1 UNK         0.0000 
     15 C15        -5.3271   47.2931   25.7741 C.ar      1 UNK         0.0000 
     16 C16        -5.9592   46.2213   26.4022 C.ar      1 UNK         0.0000 
     17 C17        -5.8848   46.0609   27.7949 C.ar      1 UNK         0.0000 
     18 C18        -5.1545   46.9961   28.5407 C.ar      1 UNK         0.0000 
     19 C19        -4.4992   48.0487   27.9098 C.ar      1 UNK         0.0000 
     20 Br20       -5.0594   46.8972   30.4421 Br        1 UNK         0.0000 
     21 O21        -6.4970   45.0297   28.4817 O.3       1 UNK         0.0000 
     22 C22        -7.2643   44.0649   27.7673 C.3       1 UNK         0.0000 
     23 C23         2.9701   53.7068   25.5310 C.2       1 UNK         0.0000 
     24 N24         2.7810   53.7964   24.2414 N.2       1 UNK         0.0000 
     25 C25         3.9286   54.0967   23.5818 C.ar      1 UNK         0.0000 
     26 C26         4.0508   54.1817   22.1869 C.ar      1 UNK         0.0000 
     27 C27         5.3002   54.4964   21.6506 C.ar      1 UNK         0.0000 
     28 C28         6.4036   54.7272   22.4737 C.ar      1 UNK         0.0000 
     29 C29         6.3079   54.6377   23.8613 C.ar      1 UNK         0.0000 
     30 C30         5.0610   54.3162   24.4097 C.ar      1 UNK         0.0000 
     31 S31         4.5926   54.0969   26.0870 S.3       1 UNK         0.0000 
     32 H32         1.8956   51.4075   24.4833 H         1 UNK         0.0000 
     33 H33         0.5151   50.5316   25.0383 H         1 UNK         0.0000 
     34 H34         0.2812   52.0638   24.1876 H         1 UNK         0.0000 
     35 H35         2.6204   54.7230   27.9695 H         1 UNK         0.0000 
     36 H36         0.9734   54.1468   29.6790 H         1 UNK         0.0000 
     37 H37        -0.7196   52.4151   29.2430 H         1 UNK         0.0000 
     38 H38        -0.8454   50.1707   27.5661 H         1 UNK         0.0000 
     39 H39        -2.5342   49.3153   27.2515 H         1 UNK         0.0000 
     40 H40        -5.4222   47.3983   24.7015 H         1 UNK         0.0000 
     41 H41        -6.5176   45.5321   25.7892 H         1 UNK         0.0000 
     42 H42        -3.9440   48.7408   28.5307 H         1 UNK         0.0000 
     43 H43        -7.6832   43.3473   28.4715 H         1 UNK         0.0000 
     44 H44        -6.6485   43.5079   27.0594 H         1 UNK         0.0000 
     45 H45        -8.0991   44.5240   27.2370 H         1 UNK         0.0000 
     46 H46         3.1978   54.0184   21.5425 H         1 UNK         0.0000 
     47 H47         5.4142   54.5701   20.5779 H         1 UNK         0.0000 
     48 H48         7.3557   54.9720   22.0250 H         1 UNK         0.0000 
     49 H49         7.1753   54.8052   24.4846 H         1 UNK         0.0000 
@<TRIPOS>BOND
     1    1    2 1    
     2    1   32 1    
     3    1   33 1    
     4    1   34 1    
     5    2    7 ar   
     6    2    3 ar   
     7    3    4 ar   
     8    3   23 1    
     9    4    5 ar   
    10    4   35 1    
    11    5    6 ar   
    12    5   36 1    
    13    6    7 ar   
    14    6   37 1    
    15    7    8 1    
    16    8    9 1    
    17    8   38 1    
    18    9   10 2    
    19    9   11 am   BACKBONE|DICT|INTERRES
    20   11   12 am   BACKBONE|DICT|INTERRES
    21   11   39 1    
    22   12   13 2    
    23   12   14 1    
    24   14   19 ar   
    25   14   15 ar   
    26   15   16 ar   
    27   15   40 1    
    28   16   17 ar   
    29   16   41 1    
    30   17   18 ar   
    31   17   21 1    
    32   18   19 ar   
    33   18   20 1    
    34   19   42 1    
    35   21   22 1    
    36   22   43 1    
    37   22   44 1    
    38   22   45 1    
    39   23   31 1    
    40   23   24 2    
    41   24   25 1    
    42   25   30 ar   
    43   25   26 ar   
    44   26   27 ar   
    45   26   46 1    
    46   27   28 ar   
    47   27   47 1    
    48   28   29 ar   
    49   28   48 1    
    50   29   30 ar   
    51   29   49 1    
    52   30   31 1    
@<TRIPOS>SUBSTRUCTURE
     1 UNK         1 GROUP             0       ****    0 ROOT    
