@<TRIPOS>MOLECULE
ZINC67103677_1616
48   49    1
SMALL
USER_CHARGES


@<TRIPOS>ATOM
      1 C1          5.7408   54.4967   21.8626 C.3       1 UNK         0.0000 
      2 C2          5.0564   53.5041   22.8205 C.3       1 UNK         0.0000 
      3 C3          4.9022   54.0967   24.2365 C.3       1 UNK         0.0000 
      4 C4          6.2619   54.5633   24.8149 C.3       1 UNK         0.0000 
      5 C5          6.8902   55.5909   23.8588 C.3       1 UNK         0.0000 
      6 C6          7.0722   55.0262   22.4388 C.3       1 UNK         0.0000 
      7 C7          6.1083   55.2077   26.2062 C.3       1 UNK         0.0000 
      8 C8          5.9074   54.2322   27.3673 C.2       1 UNK         0.0000 
      9 O9          6.6935   53.2967   27.5142 O.2       1 UNK         0.0000 
     10 N10         4.8693   54.4967   28.1840 N.am      1 UNK         0.0000 
     11 N11         4.6358   53.6584   29.2739 N.am      1 UNK         0.0000 
     12 C12         3.5829   52.8102   29.3071 C.2       1 UNK         0.0000 
     13 O13         3.3973   52.0971   30.2934 O.2       1 UNK         0.0000 
     14 N14         2.7601   52.8063   28.2352 N.am      1 UNK         0.0000 
     15 C15         1.4823   52.1081   28.1270 C.3       1 UNK         0.0000 
     16 C16         0.9190   52.0752   26.6853 C.3       1 UNK         0.0000 
     17 C17        -0.3584   51.2212   26.5752 C.3       1 UNK         0.0000 
     18 C18        -1.4356   51.6965   27.5595 C.3       1 UNK         0.0000 
     19 C19        -0.8930   51.7142   28.9988 C.3       1 UNK         0.0000 
     20 C20         0.3972   52.5364   29.1486 C.3       1 UNK         0.0000 
     21 O21        -2.5910   50.8966   27.4809 O.3       1 UNK         0.0000 
     22 H22         5.0629   55.3257   21.6710 H         1 UNK         0.0000 
     23 H23         5.9044   54.0256   20.8931 H         1 UNK         0.0000 
     24 H24         4.0801   53.2176   22.4264 H         1 UNK         0.0000 
     25 H25         5.6472   52.5883   22.8720 H         1 UNK         0.0000 
     26 H26         4.2021   54.9326   24.2006 H         1 UNK         0.0000 
     27 H27         4.4325   53.3787   24.9109 H         1 UNK         0.0000 
     28 H28         6.9342   53.7022   24.8556 H         1 UNK         0.0000 
     29 H29         7.8323   55.9573   24.2660 H         1 UNK         0.0000 
     30 H30         6.3044   56.4967   23.8251 H         1 UNK         0.0000 
     31 H31         7.4933   55.7869   21.7807 H         1 UNK         0.0000 
     32 H32         7.8029   54.2184   22.4817 H         1 UNK         0.0000 
     33 H33         6.9948   55.7878   26.4580 H         1 UNK         0.0000 
     34 H34         5.2850   55.9178   26.1367 H         1 UNK         0.0000 
     35 H35         4.3601   55.3687   28.2151 H         1 UNK         0.0000 
     36 H36         5.2305   53.8520   30.0655 H         1 UNK         0.0000 
     37 H37         3.0045   53.3949   27.4531 H         1 UNK         0.0000 
     38 H38         1.7229   51.0677   28.3665 H         1 UNK         0.0000 
     39 H39         0.7006   53.0935   26.3631 H         1 UNK         0.0000 
     40 H40         1.6528   51.6981   25.9779 H         1 UNK         0.0000 
     41 H41        -0.0975   50.1838   26.7984 H         1 UNK         0.0000 
     42 H42        -0.7431   51.2275   25.5545 H         1 UNK         0.0000 
     43 H43        -1.6936   52.7192   27.2816 H         1 UNK         0.0000 
     44 H44        -0.6588   50.7007   29.3106 H         1 UNK         0.0000 
     45 H45        -1.6624   52.0669   29.6817 H         1 UNK         0.0000 
     46 H46         0.7626   52.4315   30.1708 H         1 UNK         0.0000 
     47 H47         0.1622   53.5931   29.0071 H         1 UNK         0.0000 
     48 H48        -2.3489   49.9976   27.7617 H         1 UNK         0.0000 
@<TRIPOS>BOND
     1    1    6 1    
     2    1    2 1    
     3    1   22 1    
     4    1   23 1    
     5    2    3 1    
     6    2   24 1    
     7    2   25 1    
     8    3    4 1    
     9    3   26 1    
    10    3   27 1    
    11    4    5 1    
    12    4    7 1    
    13    4   28 1    
    14    5    6 1    
    15    5   29 1    
    16    5   30 1    
    17    6   31 1    
    18    6   32 1    
    19    7    8 1    
    20    7   33 1    
    21    7   34 1    
    22    8    9 2    
    23    8   10 am   BACKBONE|DICT|INTERRES
    24   10   11 1    
    25   10   35 1    
    26   11   12 am   BACKBONE|DICT|INTERRES
    27   11   36 1    
    28   12   13 2    
    29   12   14 am   BACKBONE|DICT|INTERRES
    30   14   15 1    
    31   14   37 1    
    32   15   20 1    
    33   15   16 1    
    34   15   38 1    
    35   16   17 1    
    36   16   39 1    
    37   16   40 1    
    38   17   18 1    
    39   17   41 1    
    40   17   42 1    
    41   18   19 1    
    42   18   21 1    
    43   18   43 1    
    44   19   20 1    
    45   19   44 1    
    46   19   45 1    
    47   20   46 1    
    48   20   47 1    
    49   21   48 1    
@<TRIPOS>SUBSTRUCTURE
     1 UNK         1 GROUP             0       ****    0 ROOT    
