@<TRIPOS>MOLECULE
ZINC13686131_4019
57   60    1
SMALL
USER_CHARGES


@<TRIPOS>ATOM
      1 C1          4.7630   54.5874   28.6019 C.3       1 UNK         0.0000 
      2 C2          5.8641   54.6849   27.5209 C.3       1 UNK         0.0000 
      3 C3          7.0140   53.7227   27.8918 C.3       1 UNK         0.0000 
      4 C4          5.3765   54.4901   26.0692 C.ar      1 UNK         0.0000 
      5 C5          6.3105   54.3955   25.0339 C.ar      1 UNK         0.0000 
      6 C6          5.9073   54.0963   23.7362 C.ar      1 UNK         0.0000 
      7 C7          4.5549   53.9102   23.4121 C.ar      1 UNK         0.0000 
      8 C8          3.6179   54.1014   24.4423 C.ar      1 UNK         0.0000 
      9 C9          4.0183   54.3793   25.7471 C.ar      1 UNK         0.0000 
     10 N10         4.1688   53.4765   22.1040 N.pl3     1 UNK         0.0000 
     11 C11         5.0478   53.6477   20.9404 C.3       1 UNK         0.0000 
     12 H12         5.7060   52.7867   20.8148 H         1 UNK         0.0000 
     13 C13         5.8909   54.9279   20.7250 C.3       1 UNK         0.0000 
     14 S14         6.2346   54.9750   18.8760 S.o2      1 UNK         0.0000 
     15 O15         7.5929   54.4960   18.6078 O.2       1 UNK         0.0000 
     16 O16         5.7778   56.2666   18.3572 O.2       1 UNK         0.0000 
     17 C17         5.0050   53.6289   18.4564 C.3       1 UNK         0.0000 
     18 C18         4.1484   53.5999   19.7178 C.3       1 UNK         0.0000 
     19 H19         3.5043   54.4810   19.6745 H         1 UNK         0.0000 
     20 S20         3.0717   52.2238   20.0551 S.3       1 UNK         0.0000 
     21 C21         3.0936   52.5915   21.8433 C.2       1 UNK         0.0000 
     22 N22         2.3057   52.0671   22.7050 N.2       1 UNK         0.0000 
     23 C23         1.4309   51.0643   22.4398 C.2       1 UNK         0.0000 
     24 C24         0.5726   50.5872   23.3714 C.2       1 UNK         0.0000 
     25 C25         0.5056   51.1654   24.6823 C.1       1 UNK         0.0000 
     26 N26         0.4197   51.6428   25.7327 N.1       1 UNK         0.0000 
     27 C27        -0.3023   49.4665   23.0515 C.2       1 UNK         0.0000 
     28 O28        -0.3406   48.9730   21.9238 O.2       1 UNK         0.0000 
     29 N29        -1.0537   49.0202   24.0858 N.am      1 UNK         0.0000 
     30 C30        -2.0356   48.0115   24.1116 C.ar      1 UNK         0.0000 
     31 C31        -2.4154   47.5580   25.3781 C.ar      1 UNK         0.0000 
     32 C32        -3.4168   46.6014   25.5145 C.ar      1 UNK         0.0000 
     33 C33        -4.0484   46.0968   24.3788 C.ar      1 UNK         0.0000 
     34 C34        -3.6752   46.5358   23.1097 C.ar      1 UNK         0.0000 
     35 C35        -2.6718   47.4929   22.9716 C.ar      1 UNK         0.0000 
     36 Cl36       -5.2952   44.9138   24.5449 Cl        1 UNK         0.0000 
     37 H37         3.9541   55.2965   28.4331 H         1 UNK         0.0000 
     38 H38         4.3293   53.5872   28.6388 H         1 UNK         0.0000 
     39 H39         5.1675   54.8066   29.5916 H         1 UNK         0.0000 
     40 H40         6.2680   55.6968   27.5716 H         1 UNK         0.0000 
     41 H41         7.8986   53.8934   27.2820 H         1 UNK         0.0000 
     42 H42         7.3253   53.8543   28.9286 H         1 UNK         0.0000 
     43 H43         6.7162   52.6813   27.7697 H         1 UNK         0.0000 
     44 H44         7.3671   54.4925   25.2290 H         1 UNK         0.0000 
     45 H45         6.6861   53.9174   23.0158 H         1 UNK         0.0000 
     46 H46         2.5590   54.0141   24.2530 H         1 UNK         0.0000 
     47 H47         3.2505   54.4686   26.4982 H         1 UNK         0.0000 
     48 H48         5.2681   55.7844   20.9638 H         1 UNK         0.0000 
     49 H49         6.8284   55.0540   21.2593 H         1 UNK         0.0000 
     50 H50         5.5282   52.6746   18.3775 H         1 UNK         0.0000 
     51 H51         4.5151   53.8117   17.5024 H         1 UNK         0.0000 
     52 H52         1.4545   50.6279   21.4472 H         1 UNK         0.0000 
     53 H53        -0.8612   49.4262   24.9909 H         1 UNK         0.0000 
     54 H54        -1.9429   47.9462   26.2713 H         1 UNK         0.0000 
     55 H55        -3.7042   46.2664   26.5013 H         1 UNK         0.0000 
     56 H56        -4.1710   46.1470   22.2315 H         1 UNK         0.0000 
     57 H57        -2.4268   47.8318   21.9765 H         1 UNK         0.0000 
@<TRIPOS>BOND
     1    1    2 1    
     2    1   37 1    
     3    1   38 1    
     4    1   39 1    
     5    2    3 1    
     6    2    4 1    
     7    2   40 1    
     8    3   41 1    
     9    3   42 1    
    10    3   43 1    
    11    4    9 ar   
    12    4    5 ar   
    13    5    6 ar   
    14    5   44 1    
    15    6    7 ar   
    16    6   45 1    
    17    7    8 ar   
    18    7   10 1    
    19    8    9 ar   
    20    8   46 1    
    21    9   47 1    
    22   10   21 1    
    23   10   11 1    
    24   11   12 1    
    25   11   18 1    
    26   11   13 1    
    27   13   14 1    
    28   13   48 1    
    29   13   49 1    
    30   14   15 2    
    31   14   16 2    
    32   14   17 1    
    33   17   18 1    
    34   17   50 1    
    35   17   51 1    
    36   18   19 1    
    37   18   20 1    
    38   20   21 1    
    39   21   22 2    
    40   22   23 1    
    41   23   24 2    
    42   23   52 1    
    43   24   25 1    
    44   24   27 1    
    45   25   26 3    
    46   27   28 2    
    47   27   29 am   BACKBONE|DICT|INTERRES
    48   29   30 1    
    49   29   53 1    
    50   30   35 ar   
    51   30   31 ar   
    52   31   32 ar   
    53   31   54 1    
    54   32   33 ar   
    55   32   55 1    
    56   33   34 ar   
    57   33   36 1    
    58   34   35 ar   
    59   34   56 1    
    60   35   57 1    
@<TRIPOS>SUBSTRUCTURE
     1 UNK         1 GROUP             0       ****    0 ROOT    
