@<TRIPOS>MOLECULE
ZINC03007163_1088
72   75    1
SMALL
USER_CHARGES


@<TRIPOS>ATOM
      1 C1          1.6323   52.6035   23.2839 C.3       1 UNK         0.0000 
      2 C2          2.2680   52.5165   21.8930 C.3       1 UNK         0.0000 
      3 O3          3.4729   53.2773   21.8412 O.3       1 UNK         0.0000 
      4 C4          4.1413   53.4124   20.6670 C.2       1 UNK         0.0000 
      5 O5          3.7685   52.8965   19.6122 O.2       1 UNK         0.0000 
      6 C6          5.3636   54.2485   20.7759 C.2       1 UNK         0.0000 
      7 C7          6.1408   54.6623   19.6482 C.2       1 UNK         0.0000 
      8 C8          7.2562   55.4377   19.9899 C.2       1 UNK         0.0000 
      9 S9          7.3720   55.6966   21.6819 S.3       1 UNK         0.0000 
     10 C10         5.9542   54.7284   21.9695 C.2       1 UNK         0.0000 
     11 N11         5.4724   54.4963   23.2561 N.am      1 UNK         0.0000 
     12 C12         5.9389   54.8727   24.4690 C.2       1 UNK         0.0000 
     13 O13         7.0026   55.4515   24.6922 O.2       1 UNK         0.0000 
     14 C14         5.0204   54.4922   25.6063 C.ar      1 UNK         0.0000 
     15 C15         3.6317   54.4961   25.4157 C.ar      1 UNK         0.0000 
     16 C16         2.7821   54.0961   26.4357 C.ar      1 UNK         0.0000 
     17 C17         3.3020   53.7276   27.6733 C.ar      1 UNK         0.0000 
     18 C18         4.6824   53.7506   27.8943 C.ar      1 UNK         0.0000 
     19 C19         5.5410   54.1274   26.8575 C.ar      1 UNK         0.0000 
     20 S20         2.1532   53.2394   28.9569 S.o2      1 UNK         0.0000 
     21 O21         2.8640   52.2930   29.8278 O.2       1 UNK         0.0000 
     22 O22         1.5908   54.4875   29.4852 O.2       1 UNK         0.0000 
     23 N23         0.8853   52.3658   28.0605 N.pl3     1 UNK         0.0000 
     24 C24         0.9809   50.8977   27.9853 C.3       1 UNK         0.0000 
     25 C25         0.3401   50.3686   26.6866 C.3       1 UNK         0.0000 
     26 C26        -1.0912   50.9054   26.5176 C.3       1 UNK         0.0000 
     27 C27        -1.1615   52.4444   26.6383 C.3       1 UNK         0.0000 
     28 H28        -0.5760   52.8623   25.8187 H         1 UNK         0.0000 
     29 C29        -0.4957   52.9129   27.9659 C.3       1 UNK         0.0000 
     30 C30        -2.6263   52.8985   26.4815 C.3       1 UNK         0.0000 
     31 C31         8.2509   56.0551   19.0201 C.3       1 UNK         0.0000 
     32 N32         8.1594   55.2313   17.7089 N.4       1 UNK         0.0000 
     33 C33         6.6949   55.2051   17.2113 C.3       1 UNK         0.0000 
     34 C34         5.8461   54.3444   18.1750 C.3       1 UNK         0.0000 
     35 C35         9.1675   55.7661   16.6476 C.3       1 UNK         0.0000 
     36 C36         9.4171   54.6723   15.5917 C.3       1 UNK         0.0000 
     37 C37         8.7262   57.1123   16.0272 C.3       1 UNK         0.0000 
     38 H38         0.7139   52.0141   23.3252 H         1 UNK         0.0000 
     39 H39         2.3027   52.2187   24.0509 H         1 UNK         0.0000 
     40 H40         1.3710   53.6316   23.5344 H         1 UNK         0.0000 
     41 H41         1.5631   52.8867   21.1459 H         1 UNK         0.0000 
     42 H42         2.4825   51.4740   21.6490 H         1 UNK         0.0000 
     43 H43         4.6360   53.9323   23.2673 H         1 UNK         0.0000 
     44 H44         3.1943   54.8061   24.4776 H         1 UNK         0.0000 
     45 H45         1.7155   54.0976   26.2596 H         1 UNK         0.0000 
     46 H46         5.0892   53.4674   28.8573 H         1 UNK         0.0000 
     47 H47         6.6088   54.1242   27.0323 H         1 UNK         0.0000 
     48 H48         2.0172   50.5791   28.0917 H         1 UNK         0.0000 
     49 H49         0.3909   50.5061   28.8148 H         1 UNK         0.0000 
     50 H50         0.9446   50.6588   25.8248 H         1 UNK         0.0000 
     51 H51         0.3261   49.2782   26.6967 H         1 UNK         0.0000 
     52 H52        -1.5170   50.5716   25.5704 H         1 UNK         0.0000 
     53 H53        -1.7326   50.4611   27.2815 H         1 UNK         0.0000 
     54 H54        -1.0648   52.4881   28.7962 H         1 UNK         0.0000 
     55 H55        -0.4775   53.9956   28.0816 H         1 UNK         0.0000 
     56 H56        -3.2639   52.4482   27.2405 H         1 UNK         0.0000 
     57 H57        -2.7509   53.9768   26.5540 H         1 UNK         0.0000 
     58 H58        -3.0233   52.5994   25.5101 H         1 UNK         0.0000 
     59 H59         9.2825   55.9686   19.3638 H         1 UNK         0.0000 
     60 H60         8.0179   57.0949   18.7962 H         1 UNK         0.0000 
     61 H61         6.3527   56.2433   17.1641 H         1 UNK         0.0000 
     62 H62         6.6804   54.7698   16.2082 H         1 UNK         0.0000 
     63 H63         4.7965   54.4946   17.9337 H         1 UNK         0.0000 
     64 H64         6.0487   53.2861   17.9995 H         1 UNK         0.0000 
     65 H65        10.0964   55.9047   17.2057 H         1 UNK         0.0000 
     66 H66        10.2168   54.9678   14.9114 H         1 UNK         0.0000 
     67 H67         8.5354   54.4731   14.9809 H         1 UNK         0.0000 
     68 H68         9.7247   53.7326   16.0528 H         1 UNK         0.0000 
     69 H69         9.4919   57.4921   15.3507 H         1 UNK         0.0000 
     70 H70         7.8110   57.0170   15.4411 H         1 UNK         0.0000 
     71 H71         8.5658   57.8873   16.7782 H         1 UNK         0.0000 
     72 H72         8.4471   54.2788   17.8953 H         1 UNK         0.0000 
@<TRIPOS>BOND
     1    1    2 1    
     2    1   38 1    
     3    1   39 1    
     4    1   40 1    
     5    2    3 1    
     6    2   41 1    
     7    2   42 1    
     8    3    4 1    
     9    4    5 2    
    10    4    6 1    
    11    6   10 2    
    12    6    7 1    
    13    7   34 1    
    14    7    8 2    
    15    8    9 1    
    16    8   31 1    
    17    9   10 1    
    18   10   11 am   BACKBONE|DICT|INTERRES
    19   11   12 am   BACKBONE|DICT|INTERRES
    20   11   43 1    
    21   12   13 2    
    22   12   14 1    
    23   14   19 ar   
    24   14   15 ar   
    25   15   16 ar   
    26   15   44 1    
    27   16   17 ar   
    28   16   45 1    
    29   17   18 ar   
    30   17   20 1    
    31   18   19 ar   
    32   18   46 1    
    33   19   47 1    
    34   20   21 2    
    35   20   22 2    
    36   20   23 1    
    37   23   29 1    
    38   23   24 1    
    39   24   25 1    
    40   24   48 1    
    41   24   49 1    
    42   25   26 1    
    43   25   50 1    
    44   25   51 1    
    45   26   27 1    
    46   26   52 1    
    47   26   53 1    
    48   27   28 1    
    49   27   29 1    
    50   27   30 1    
    51   29   54 1    
    52   29   55 1    
    53   30   56 1    
    54   30   57 1    
    55   30   58 1    
    56   31   32 1    
    57   31   59 1    
    58   31   60 1    
    59   32   33 1    
    60   32   35 1    
    61   32   72 1    
    62   33   34 1    
    63   33   61 1    
    64   33   62 1    
    65   34   63 1    
    66   34   64 1    
    67   35   36 1    
    68   35   37 1    
    69   35   65 1    
    70   36   66 1    
    71   36   67 1    
    72   36   68 1    
    73   37   69 1    
    74   37   70 1    
    75   37   71 1    
@<TRIPOS>SUBSTRUCTURE
     1 UNK         1 GROUP             0       ****    0 ROOT    
