@<TRIPOS>MOLECULE
ZINC16613672_6104
64   68    1
SMALL
USER_CHARGES


@<TRIPOS>ATOM
      1 C1          7.9034   55.6325   16.3456 C.3       1 UNK         0.0000 
      2 C2          7.0609   55.1947   17.5304 C.ar      1 UNK         0.0000 
      3 C3          6.5089   53.9138   17.5518 C.ar      1 UNK         0.0000 
      4 C4          5.7349   53.5048   18.6335 C.ar      1 UNK         0.0000 
      5 C5          5.5020   54.3750   19.7100 C.ar      1 UNK         0.0000 
      6 C6          6.0609   55.6614   19.6744 C.ar      1 UNK         0.0000 
      7 C7          6.8315   56.0706   18.5898 C.ar      1 UNK         0.0000 
      8 C8          4.7040   53.9422   20.9192 C.2       1 UNK         0.0000 
      9 O9          4.8917   54.4966   22.0060 O.2       1 UNK         0.0000 
     10 N10         3.8236   52.9344   20.7237 N.am      1 UNK         0.0000 
     11 C11         3.0419   52.2972   21.7015 C.ar      1 UNK         0.0000 
     12 C12         2.7806   50.9360   21.5319 C.ar      1 UNK         0.0000 
     13 C13         2.0956   50.2296   22.5188 C.ar      1 UNK         0.0000 
     14 C14         1.6781   50.8779   23.6810 C.ar      1 UNK         0.0000 
     15 C15         1.9039   52.2517   23.8654 C.ar      1 UNK         0.0000 
     16 C16         2.5416   52.9574   22.8358 C.ar      1 UNK         0.0000 
     17 C17         1.4569   52.9858   25.1545 C.3       1 UNK         0.0000 
     18 H18         1.1040   53.9529   24.7882 H         1 UNK         0.0000 
     19 C19         0.2287   52.3731   25.9094 C.2       1 UNK         0.0000 
     20 C20         0.2855   52.1657   27.2632 C.2       1 UNK         0.0000 
     21 N21         1.3944   52.3970   28.0183 N.2       1 UNK         0.0000 
     22 C22         2.4138   52.9400   27.4868 C.2       1 UNK         0.0000 
     23 N23         2.5507   53.3003   26.1365 N.pl3     1 UNK         0.0000 
     24 C24         3.4579   54.3932   25.7455 C.3       1 UNK         0.0000 
     25 C25         4.8884   54.1414   26.2481 C.3       1 UNK         0.0000 
     26 C26         5.0013   54.1053   27.7774 C.3       1 UNK         0.0000 
     27 S27         3.8237   53.0058   28.6193 S.3       1 UNK         0.0000 
     28 C28        -0.8471   51.7024   28.1790 C.3       1 UNK         0.0000 
     29 C29        -0.9537   52.0957   25.1084 C.2       1 UNK         0.0000 
     30 O30        -1.3681   52.8973   24.2723 O.2       1 UNK         0.0000 
     31 N31        -1.4710   50.8642   25.3177 N.am      1 UNK         0.0000 
     32 C32        -2.5690   50.2319   24.7113 C.ar      1 UNK         0.0000 
     33 C33        -3.0499   49.0925   25.3629 C.ar      1 UNK         0.0000 
     34 C34        -4.1344   48.3927   24.8412 C.ar      1 UNK         0.0000 
     35 C35        -4.7324   48.8277   23.6606 C.ar      1 UNK         0.0000 
     36 C36        -4.2530   49.9545   22.9958 C.ar      1 UNK         0.0000 
     37 C37        -3.1702   50.6575   23.5168 C.ar      1 UNK         0.0000 
     38 H38         7.4365   55.3173   15.4124 H         1 UNK         0.0000 
     39 H39         8.0078   56.7174   16.3003 H         1 UNK         0.0000 
     40 H40         8.8934   55.1802   16.3943 H         1 UNK         0.0000 
     41 H41         6.6854   53.2269   16.7365 H         1 UNK         0.0000 
     42 H42         5.3421   52.4967   18.6234 H         1 UNK         0.0000 
     43 H43         5.9037   56.3541   20.4890 H         1 UNK         0.0000 
     44 H44         7.2518   57.0656   18.5792 H         1 UNK         0.0000 
     45 H45         3.8029   52.5224   19.8034 H         1 UNK         0.0000 
     46 H46         3.1336   50.4111   20.6547 H         1 UNK         0.0000 
     47 H47         1.9174   49.1710   22.3995 H         1 UNK         0.0000 
     48 H48         1.1889   50.2935   24.4457 H         1 UNK         0.0000 
     49 H49         2.6679   54.0240   22.9207 H         1 UNK         0.0000 
     50 H50         3.4629   54.6367   24.6868 H         1 UNK         0.0000 
     51 H51         3.1049   55.2895   26.2560 H         1 UNK         0.0000 
     52 H52         5.2655   53.2115   25.8241 H         1 UNK         0.0000 
     53 H53         5.5447   54.9183   25.8531 H         1 UNK         0.0000 
     54 H54         6.0016   53.7832   28.0733 H         1 UNK         0.0000 
     55 H55         4.8528   55.1000   28.2003 H         1 UNK         0.0000 
     56 H56        -0.6759   50.6730   28.4846 H         1 UNK         0.0000 
     57 H57        -0.9000   52.3128   29.0830 H         1 UNK         0.0000 
     58 H58        -1.8302   51.7561   27.7153 H         1 UNK         0.0000 
     59 H59        -1.0545   50.3356   26.0697 H         1 UNK         0.0000 
     60 H60        -2.5953   48.7472   26.2833 H         1 UNK         0.0000 
     61 H61        -4.5111   47.5196   25.3530 H         1 UNK         0.0000 
     62 H62        -5.5763   48.2885   23.2554 H         1 UNK         0.0000 
     63 H63        -4.7198   50.2813   22.0790 H         1 UNK         0.0000 
     64 H64        -2.8107   51.5145   22.9723 H         1 UNK         0.0000 
@<TRIPOS>BOND
     1    1    2 1    
     2    1   38 1    
     3    1   39 1    
     4    1   40 1    
     5    2    7 ar   
     6    2    3 ar   
     7    3    4 ar   
     8    3   41 1    
     9    4    5 ar   
    10    4   42 1    
    11    5    6 ar   
    12    5    8 1    
    13    6    7 ar   
    14    6   43 1    
    15    7   44 1    
    16    8    9 2    
    17    8   10 am   BACKBONE|DICT|INTERRES
    18   10   11 1    
    19   10   45 1    
    20   11   16 ar   
    21   11   12 ar   
    22   12   13 ar   
    23   12   46 1    
    24   13   14 ar   
    25   13   47 1    
    26   14   15 ar   
    27   14   48 1    
    28   15   16 ar   
    29   15   17 1    
    30   16   49 1    
    31   17   18 1    
    32   17   23 1    
    33   17   19 1    
    34   19   20 2    
    35   19   29 1    
    36   20   21 1    
    37   20   28 1    
    38   21   22 2    
    39   22   27 1    
    40   22   23 1    
    41   23   24 1    
    42   24   25 1    
    43   24   50 1    
    44   24   51 1    
    45   25   26 1    
    46   25   52 1    
    47   25   53 1    
    48   26   27 1    
    49   26   54 1    
    50   26   55 1    
    51   28   56 1    
    52   28   57 1    
    53   28   58 1    
    54   29   30 2    
    55   29   31 am   BACKBONE|DICT|INTERRES
    56   31   32 1    
    57   31   59 1    
    58   32   37 ar   
    59   32   33 ar   
    60   33   34 ar   
    61   33   60 1    
    62   34   35 ar   
    63   34   61 1    
    64   35   36 ar   
    65   35   62 1    
    66   36   37 ar   
    67   36   63 1    
    68   37   64 1    
@<TRIPOS>SUBSTRUCTURE
     1 UNK         1 GROUP             0       ****    0 ROOT    
