ZINC15277227_967
                    3D
 Schrodinger Suite 2024-2.
 60 63  0  0  1  0            999 V2000
   -5.9345   50.3690   18.3984 C   0  0  0  0  0  0
   -6.1546   48.8651   18.1685 C   0  0  0  0  0  0
   -5.0533   47.9520   18.7450 C   0  0  0  0  0  0
   -3.8167   48.0741   18.0460 O   0  0  0  0  0  0
   -2.8513   48.9234   18.4618 C   0  0  0  0  0  0
   -2.9223   49.6544   19.4556 O   0  0  0  0  0  0
   -1.5994   48.8664   17.5575 C   0  0  1  0  0  0
   -1.2848   50.3007   17.0993 C   0  0  0  0  0  0
   -0.3893   51.0356   17.6390 N   0  0  0  0  0  0
    0.3488   50.6053   18.7041 C   0  0  0  0  0  0
    0.4611   49.2876   19.0628 C   0  0  0  0  0  0
   -0.3281   48.2243   18.2477 C   0  0  1  0  0  0
    0.3648   47.9844   17.4375 H   0  0  0  0  0  0
   -0.5927   46.8536   18.9234 C   0  0  0  0  0  0
   -0.1054   45.6754   18.3490 C   0  0  0  0  0  0
   -0.2253   44.4259   18.9837 C   0  0  0  0  0  0
   -0.8957   44.3843   20.2281 C   0  0  0  0  0  0
   -1.4331   45.5515   20.8101 C   0  0  0  0  0  0
   -1.2497   46.7753   20.1518 C   0  0  0  0  0  0
   -2.0962   45.4502   22.0300 O   0  0  0  0  0  0
   -2.5434   46.6289   22.6920 C   0  0  0  0  0  0
    0.3787   43.2229   18.3296 N   0  3  0  0  0  0
    0.9514   43.3813   17.2551 O   0  0  0  0  0  0
    0.3045   42.1057   18.8441 O   0  5  0  0  0  0
    1.5023   48.8534   20.0192 C   0  0  0  0  0  0
    1.9044   47.6966   20.0816 O   0  0  0  0  0  0
    2.1928   49.9424   20.8431 C   0  0  0  0  0  0
    2.4688   51.1976   19.9967 C   0  0  1  0  0  0
    3.1046   50.8828   19.1635 H   0  0  0  0  0  0
    1.1500   51.7254   19.3842 C   0  0  0  0  0  0
    3.2278   52.2545   20.7778 C   0  0  0  0  0  0
    4.4567   52.8438   20.4811 C   0  0  0  0  0  0
    4.8865   53.7914   21.4153 C   0  0  0  0  0  0
    3.9932   53.9454   22.4591 C   0  0  0  0  0  0
    2.6145   52.9175   22.2739 S   0  0  0  0  0  0
   -2.0515   50.8855   15.9270 C   0  0  0  0  0  0
   -6.7914   50.9445   18.0473 H   0  0  0  0  0  0
   -5.7978   50.5936   19.4567 H   0  0  0  0  0  0
   -5.0586   50.7340   17.8622 H   0  0  0  0  0  0
   -6.2669   48.6705   17.1013 H   0  0  0  0  0  0
   -7.1049   48.5833   18.6232 H   0  0  0  0  0  0
   -5.3727   46.9148   18.6420 H   0  0  0  0  0  0
   -4.9306   48.1192   19.8168 H   0  0  0  0  0  0
   -1.8497   48.2713   16.6795 H   0  0  0  0  0  0
    0.4165   45.7451   17.4049 H   0  0  0  0  0  0
   -1.5946   47.6922   20.6025 H   0  0  0  0  0  0
   -3.0097   46.3543   23.6382 H   0  0  0  0  0  0
   -3.2879   47.1634   22.0992 H   0  0  0  0  0  0
   -1.7127   47.3000   22.9173 H   0  0  0  0  0  0
    3.1046   49.5335   21.2797 H   0  0  0  0  0  0
    1.5374   50.1881   21.6783 H   0  0  0  0  0  0
    1.3656   52.5426   18.6925 H   0  0  0  0  0  0
    0.5134   52.1490   20.1618 H   0  0  0  0  0  0
    5.0241   52.5834   19.5980 H   0  0  0  0  0  0
    5.8132   54.3402   21.3304 H   0  0  0  0  0  0
    4.0721   54.6029   23.3117 H   0  0  0  0  0  0
   -1.9052   50.2788   15.0336 H   0  0  0  0  0  0
   -3.1201   50.9156   16.1390 H   0  0  0  0  0  0
   -1.7340   51.9021   15.6885 H   0  0  0  0  0  0
   -0.9996   43.2967   20.8819 O   0  5  0  0  0  0
  1  2  1  0  0  0
  1 37  1  0  0  0
  1 38  1  0  0  0
  1 39  1  0  0  0
  2  3  1  0  0  0
  2 40  1  0  0  0
  2 41  1  0  0  0
  3  4  1  0  0  0
  3 42  1  0  0  0
  3 43  1  0  0  0
  4  5  1  0  0  0
  5  6  2  0  0  0
  5  7  1  0  0  0
  7 12  1  0  0  0
  7  8  1  0  0  0
  7 44  1  0  0  0
  8 36  1  0  0  0
  8  9  2  0  0  0
  9 10  1  0  0  0
 10 30  1  0  0  0
 10 11  2  0  0  0
 11 12  1  0  0  0
 11 25  1  0  0  0
 12 13  1  0  0  0
 12 14  1  0  0  0
 14 19  2  0  0  0
 14 15  1  0  0  0
 15 16  2  0  0  0
 15 45  1  0  0  0
 16 17  1  0  0  0
 16 22  1  0  0  0
 17 18  2  0  0  0
 17 60  1  0  0  0
 18 19  1  0  0  0
 18 20  1  0  0  0
 19 46  1  0  0  0
 20 21  1  0  0  0
 21 47  1  0  0  0
 21 48  1  0  0  0
 21 49  1  0  0  0
 22 23  2  0  0  0
 22 24  1  0  0  0
 25 26  2  0  0  0
 25 27  1  0  0  0
 27 28  1  0  0  0
 27 50  1  0  0  0
 27 51  1  0  0  0
 28 29  1  0  0  0
 28 30  1  0  0  0
 28 31  1  0  0  0
 30 52  1  0  0  0
 30 53  1  0  0  0
 31 35  1  0  0  0
 31 32  2  0  0  0
 32 33  1  0  0  0
 32 54  1  0  0  0
 33 34  2  0  0  0
 33 55  1  0  0  0
 34 35  1  0  0  0
 34 56  1  0  0  0
 36 57  1  0  0  0
 36 58  1  0  0  0
 36 59  1  0  0  0
M  CHG  3  22   1  24  -1  60  -1
M  END
> <i_i_glide_confnum>
119

> <i_i_glide_lignum>
968

> <i_i_glide_posenum>
51

> <i_i_glide_rotatable_bonds>
8

> <i_m_Source_File_Index>
3587

> <b_m_subgroup_collapsed>
0

> <r_i_docking_score>
-2.50609

> <r_i_glide_ecoul>
-5.50901

> <r_i_glide_eff_state_penalty>
0

> <r_i_glide_einternal>
0.517705

> <r_i_glide_emodel>
-37.355

> <r_i_glide_energy>
-30.1089

> <r_i_glide_erotb>
0.41204

> <r_i_glide_esite>
-0.160677

> <r_i_glide_evdw>
-24.5999

> <r_i_glide_gscore>
-2.50609

> <r_i_glide_hbond>
-0.215618

> <r_i_glide_ligand_efficiency>
-0.0716027

> <r_i_glide_ligand_efficiency_ln>
-0.550143

> <r_i_glide_ligand_efficiency_sa>
-0.234217

> <r_i_glide_lipo>
-0.468728

> <r_i_glide_metal>
0

> <r_i_glide_rewards>
-0.0167645

> <s_i_glide_gridfile>
wee1_glide-grid

> <s_m_Source_File>
wee1_decoys_glide_SP.sdf

> <s_m_Source_Path>
/Users/zhangxujun/Desktop

> <s_m_entry_id>
3862

> <s_m_entry_name>
wee1_decoys_glide_SP.3587

> <s_m_subgroup_title>
wee1_decoys_glide_SP

> <s_m_subgroupid>
wee1_decoys_glide_SP


$$$$
