@<TRIPOS>MOLECULE
ZINC36509082_5754
85   87    1
SMALL
USER_CHARGES


@<TRIPOS>ATOM
      1 C1          6.8632   55.8117   25.1463 C.3       1 UNK         0.0000 
      2 C2          6.0375   55.0087   26.1485 C.3       1 UNK         0.0000 
      3 C3          5.4035   53.7718   25.4968 C.3       1 UNK         0.0000 
      4 C4          4.1682   54.0689   24.6229 C.3       1 UNK         0.0000 
      5 C5          2.8504   54.1545   25.4112 C.3       1 UNK         0.0000 
      6 C6          2.4484   52.8113   26.0381 C.3       1 UNK         0.0000 
      7 N7          1.0237   52.6504   26.4192 N.am      1 UNK         0.0000 
      8 C8          0.1723   51.7119   25.5678 C.3       1 UNK         0.0000 
      9 H9          0.2376   50.7681   26.1115 H         1 UNK         0.0000 
     10 C10         0.7821   51.3844   24.2024 C.ar      1 UNK         0.0000 
     11 C11         1.1047   50.0413   23.9057 C.ar      1 UNK         0.0000 
     12 C12         1.7701   49.6969   22.7219 C.ar      1 UNK         0.0000 
     13 C13         2.0935   50.7182   21.8439 C.ar      1 UNK         0.0000 
     14 C14         1.7464   52.0131   22.0918 C.ar      1 UNK         0.0000 
     15 C15         1.0625   52.3823   23.2452 C.ar      1 UNK         0.0000 
     16 O16         2.2414   52.8000   21.1028 O.3       1 UNK         0.0000 
     17 C17         2.7193   51.9221   20.1150 C.3       1 UNK         0.0000 
     18 O18         2.7987   50.6452   20.6860 O.3       1 UNK         0.0000 
     19 C19        -1.3498   51.9986   25.3937 C.2       1 UNK         0.0000 
     20 O20        -1.7776   52.5020   24.3515 O.2       1 UNK         0.0000 
     21 N21        -2.1384   51.5318   26.3807 N.am      1 UNK         0.0000 
     22 C22        -3.5993   51.3925   26.4490 C.3       1 UNK         0.0000 
     23 C23        -4.0330   50.2897   25.4597 C.3       1 UNK         0.0000 
     24 C24        -3.8721   50.9093   27.8928 C.3       1 UNK         0.0000 
     25 C25        -4.2946   52.7745   26.1745 C.3       1 UNK         0.0000 
     26 C26        -5.8503   52.9732   26.0997 C.3       1 UNK         0.0000 
     27 C27        -6.0805   54.4965   25.9908 C.3       1 UNK         0.0000 
     28 C28        -6.6074   52.4741   27.3499 C.3       1 UNK         0.0000 
     29 C29        -6.4640   52.3233   24.8362 C.3       1 UNK         0.0000 
     30 C30         0.6597   53.0685   27.6816 C.2       1 UNK         0.0000 
     31 O31        -0.4711   52.8898   28.1355 O.2       1 UNK         0.0000 
     32 C32         1.6633   53.8305   28.6100 C.3       1 UNK         0.0000 
     33 H33         2.5564   54.1889   28.1103 H         1 UNK         0.0000 
     34 C34         2.1358   52.9688   29.7592 C.ar      1 UNK         0.0000 
     35 C35         1.2538   52.6626   30.8012 C.ar      1 UNK         0.0000 
     36 C36         1.7308   52.0400   31.9394 C.ar      1 UNK         0.0000 
     37 C37         3.0794   51.6967   32.0150 C.ar      1 UNK         0.0000 
     38 C38         3.9516   51.9769   30.9715 C.ar      1 UNK         0.0000 
     39 C39         3.4813   52.6107   29.8354 C.ar      1 UNK         0.0000 
     40 O40         1.0420   54.9346   29.2564 O.3       1 UNK         0.0000 
     41 C41         1.1034   56.1495   28.5586 C.3       1 UNK         0.0000 
     42 H42         7.5044   56.4968   25.6813 H         1 UNK         0.0000 
     43 H43         7.5038   55.1733   24.5382 H         1 UNK         0.0000 
     44 H44         6.2329   56.3920   24.4771 H         1 UNK         0.0000 
     45 H45         5.2862   55.6657   26.5956 H         1 UNK         0.0000 
     46 H46         6.6885   54.6853   26.9632 H         1 UNK         0.0000 
     47 H47         5.1675   53.0393   26.2684 H         1 UNK         0.0000 
     48 H48         6.1609   53.2969   24.8733 H         1 UNK         0.0000 
     49 H49         4.0716   53.2973   23.8597 H         1 UNK         0.0000 
     50 H50         4.3236   54.9906   24.0651 H         1 UNK         0.0000 
     51 H51         2.0593   54.5059   24.7550 H         1 UNK         0.0000 
     52 H52         2.9732   54.8973   26.1870 H         1 UNK         0.0000 
     53 H53         3.1156   52.5492   26.8603 H         1 UNK         0.0000 
     54 H54         2.7049   52.0967   25.2746 H         1 UNK         0.0000 
     55 H55         0.8830   49.2590   24.6187 H         1 UNK         0.0000 
     56 H56         2.0524   48.6755   22.5201 H         1 UNK         0.0000 
     57 H57         0.7908   53.4111   23.4226 H         1 UNK         0.0000 
     58 H58         2.0123   51.8988   19.2828 H         1 UNK         0.0000 
     59 H59         3.6980   52.2395   19.7472 H         1 UNK         0.0000 
     60 H60        -1.6564   51.1626   27.1894 H         1 UNK         0.0000 
     61 H61        -5.0449   49.9432   25.6557 H         1 UNK         0.0000 
     62 H62        -3.9826   50.6338   24.4262 H         1 UNK         0.0000 
     63 H63        -3.3899   49.4112   25.5412 H         1 UNK         0.0000 
     64 H64        -4.8916   50.5627   28.0393 H         1 UNK         0.0000 
     65 H65        -3.2443   50.0573   28.1601 H         1 UNK         0.0000 
     66 H66        -3.6699   51.6932   28.6254 H         1 UNK         0.0000 
     67 H67        -3.8850   53.4928   26.8817 H         1 UNK         0.0000 
     68 H68        -3.9271   53.1464   25.2214 H         1 UNK         0.0000 
     69 H69        -5.5548   54.8964   25.1238 H         1 UNK         0.0000 
     70 H70        -7.1373   54.7449   25.8755 H         1 UNK         0.0000 
     71 H71        -5.7144   55.0260   26.8714 H         1 UNK         0.0000 
     72 H72        -6.7366   51.3938   27.3438 H         1 UNK         0.0000 
     73 H73        -6.1003   52.7491   28.2745 H         1 UNK         0.0000 
     74 H74        -7.6129   52.8942   27.4025 H         1 UNK         0.0000 
     75 H75        -6.5986   51.2484   24.9362 H         1 UNK         0.0000 
     76 H76        -7.4532   52.7279   24.6128 H         1 UNK         0.0000 
     77 H77        -5.8478   52.4947   23.9547 H         1 UNK         0.0000 
     78 H78         0.2131   52.9512   30.7477 H         1 UNK         0.0000 
     79 H79         1.0576   51.8175   32.7549 H         1 UNK         0.0000 
     80 H80         3.4531   51.1758   32.8817 H         1 UNK         0.0000 
     81 H81         4.9917   51.6963   31.0392 H         1 UNK         0.0000 
     82 H82         4.1720   52.8565   29.0401 H         1 UNK         0.0000 
     83 H83         0.7047   56.9279   29.2015 H         1 UNK         0.0000 
     84 H84         2.1173   56.4270   28.2749 H         1 UNK         0.0000 
     85 H85         0.4576   56.0861   27.6871 H         1 UNK         0.0000 
@<TRIPOS>BOND
     1    1    2 1    
     2    1   42 1    
     3    1   43 1    
     4    1   44 1    
     5    2    3 1    
     6    2   45 1    
     7    2   46 1    
     8    3    4 1    
     9    3   47 1    
    10    3   48 1    
    11    4    5 1    
    12    4   49 1    
    13    4   50 1    
    14    5    6 1    
    15    5   51 1    
    16    5   52 1    
    17    6    7 1    
    18    6   53 1    
    19    6   54 1    
    20    7    8 1    
    21    7   30 am   BACKBONE|DICT|INTERRES
    22    8    9 1    
    23    8   10 1    
    24    8   19 1    
    25   10   15 ar   
    26   10   11 ar   
    27   11   12 ar   
    28   11   55 1    
    29   12   13 ar   
    30   12   56 1    
    31   13   18 1    
    32   13   14 ar   
    33   14   15 ar   
    34   14   16 1    
    35   15   57 1    
    36   16   17 1    
    37   17   18 1    
    38   17   58 1    
    39   17   59 1    
    40   19   20 2    
    41   19   21 am   BACKBONE|DICT|INTERRES
    42   21   22 1    
    43   21   60 1    
    44   22   23 1    
    45   22   24 1    
    46   22   25 1    
    47   23   61 1    
    48   23   62 1    
    49   23   63 1    
    50   24   64 1    
    51   24   65 1    
    52   24   66 1    
    53   25   26 1    
    54   25   67 1    
    55   25   68 1    
    56   26   27 1    
    57   26   28 1    
    58   26   29 1    
    59   27   69 1    
    60   27   70 1    
    61   27   71 1    
    62   28   72 1    
    63   28   73 1    
    64   28   74 1    
    65   29   75 1    
    66   29   76 1    
    67   29   77 1    
    68   30   31 2    
    69   30   32 1    
    70   32   33 1    
    71   32   34 1    
    72   32   40 1    
    73   34   39 ar   
    74   34   35 ar   
    75   35   36 ar   
    76   35   78 1    
    77   36   37 ar   
    78   36   79 1    
    79   37   38 ar   
    80   37   80 1    
    81   38   39 ar   
    82   38   81 1    
    83   39   82 1    
    84   40   41 1    
    85   41   83 1    
    86   41   84 1    
    87   41   85 1    
@<TRIPOS>SUBSTRUCTURE
     1 UNK         1 GROUP             0       ****    0 ROOT    
