ZINC03840753_5122
                    3D
 Schrodinger Suite 2024-2.
 74 76  0  0  1  0            999 V2000
    0.8923   53.4245   23.8600 C   0  0  0  0  0  0
    2.2426   52.9461   23.2627 C   0  0  2  0  0  0
    2.3093   51.8726   23.4416 H   0  0  0  0  0  0
    3.4251   53.5955   23.9860 C   0  0  0  0  0  0
    4.6179   53.9460   23.3590 C   0  0  0  0  0  0
    5.7618   54.4977   24.5543 S   0  0  0  0  0  0
    4.5600   54.2040   25.7647 C   0  0  0  0  0  0
    3.4247   53.7443   25.2991 N   0  0  0  0  0  0
    4.8825   54.4956   27.0839 N   0  0  0  0  0  0
    4.2316   54.1411   28.2143 C   0  0  0  0  0  0
    4.6808   54.5409   29.2841 O   0  0  0  0  0  0
    2.9589   53.2561   28.1779 C   0  0  0  0  0  0
    2.2098   52.9179   29.5108 C   0  0  0  0  0  0
    1.0749   51.9238   29.1770 C   0  0  0  0  0  0
    1.5690   54.1921   30.1124 C   0  0  0  0  0  0
    3.1296   52.2407   30.5580 C   0  0  0  0  0  0
    4.8633   53.9478   21.8714 C   0  0  0  0  0  0
    3.8040   53.1014   21.0863 C   0  0  2  0  0  0
    2.3560   53.2041   21.7152 C   0  0  1  0  0  0
    2.0919   54.2490   21.6835 H   0  0  0  0  0  0
    1.3116   52.3479   20.8888 C   0  0  2  0  0  0
    0.3698   52.3917   21.4244 H   0  0  0  0  0  0
    1.7148   50.8428   20.7532 C   0  0  2  0  0  0
    1.7481   50.4408   21.7671 H   0  0  0  0  0  0
    3.1728   50.7596   20.2118 C   0  0  0  0  0  0
    4.1616   51.5909   21.0682 C   0  0  0  0  0  0
    0.6788   49.9915   19.9184 C   0  0  2  0  0  0
    0.6850   50.4163   18.9151 H   0  0  0  0  0  0
   -0.7521   50.1066   20.5125 C   0  0  0  0  0  0
    1.0381   48.4889   19.7380 C   0  0  0  0  0  0
    1.8864   47.9973   20.4816 O   0  0  0  0  0  0
    0.4043   47.7271   18.7998 N   0  0  0  0  0  0
   -0.5491   48.2293   17.8041 C   0  0  0  0  0  0
    0.5538   46.2632   18.7775 C   0  0  0  0  0  0
   -0.4964   45.5484   19.6489 C   0  0  0  0  0  0
   -0.2711   44.0972   19.7727 C   0  0  0  0  0  0
   -0.0957   42.9554   19.8753 N   0  0  0  0  0  0
    0.9660   52.8965   19.6254 O   0  0  0  0  0  0
    3.8768   53.6950   19.6439 C   0  0  0  0  0  0
    0.8436   53.2368   24.9338 H   0  0  0  0  0  0
    0.7479   54.4958   23.7077 H   0  0  0  0  0  0
    0.0312   52.9128   23.4368 H   0  0  0  0  0  0
    5.7533   54.9823   27.2335 H   0  0  0  0  0  0
    3.2294   52.3264   27.6761 H   0  0  0  0  0  0
    2.2395   53.7598   27.5322 H   0  0  0  0  0  0
    0.4647   51.6969   30.0518 H   0  0  0  0  0  0
    1.4636   50.9770   28.7999 H   0  0  0  0  0  0
    0.4007   52.3196   28.4176 H   0  0  0  0  0  0
    2.3036   54.9551   30.3626 H   0  0  0  0  0  0
    0.8702   54.6501   29.4105 H   0  0  0  0  0  0
    1.0059   53.9669   31.0193 H   0  0  0  0  0  0
    3.8686   52.9215   30.9753 H   0  0  0  0  0  0
    2.5595   51.8547   31.4048 H   0  0  0  0  0  0
    3.6814   51.4092   30.1203 H   0  0  0  0  0  0
    4.7636   54.9978   21.5943 H   0  0  0  0  0  0
    5.8888   53.6645   21.6249 H   0  0  0  0  0  0
    3.5043   49.7285   20.1786 H   0  0  0  0  0  0
    3.1978   51.0574   19.1647 H   0  0  0  0  0  0
    5.1583   51.4666   20.6453 H   0  0  0  0  0  0
    4.2229   51.1950   22.0815 H   0  0  0  0  0  0
   -1.4704   49.4442   20.0319 H   0  0  0  0  0  0
   -0.7618   49.8674   21.5766 H   0  0  0  0  0  0
   -1.1553   51.1119   20.3899 H   0  0  0  0  0  0
   -1.5333   47.7890   17.9631 H   0  0  0  0  0  0
   -0.6717   49.3110   17.8038 H   0  0  0  0  0  0
   -0.2184   47.9478   16.8039 H   0  0  0  0  0  0
    0.4859   45.9069   17.7482 H   0  0  0  0  0  0
    1.5455   45.9916   19.1341 H   0  0  0  0  0  0
   -0.4968   45.9596   20.6593 H   0  0  0  0  0  0
   -1.4945   45.6930   19.2374 H   0  0  0  0  0  0
    1.1044   53.8615   19.6820 H   0  0  0  0  0  0
    3.3101   53.1520   18.8939 H   0  0  0  0  0  0
    3.5057   54.7194   19.6138 H   0  0  0  0  0  0
    4.9030   53.7148   19.2747 H   0  0  0  0  0  0
  1  2  1  0  0  0
  1 40  1  0  0  0
  1 41  1  0  0  0
  1 42  1  0  0  0
  2  3  1  0  0  0
  2 19  1  0  0  0
  2  4  1  0  0  0
  4  8  1  0  0  0
  4  5  2  0  0  0
  5  6  1  0  0  0
  5 17  1  0  0  0
  6  7  1  0  0  0
  7  8  2  0  0  0
  7  9  1  0  0  0
  9 10  1  0  0  0
  9 43  1  0  0  0
 10 11  2  0  0  0
 10 12  1  0  0  0
 12 13  1  0  0  0
 12 44  1  0  0  0
 12 45  1  0  0  0
 13 14  1  0  0  0
 13 15  1  0  0  0
 13 16  1  0  0  0
 14 46  1  0  0  0
 14 47  1  0  0  0
 14 48  1  0  0  0
 15 49  1  0  0  0
 15 50  1  0  0  0
 15 51  1  0  0  0
 16 52  1  0  0  0
 16 53  1  0  0  0
 16 54  1  0  0  0
 17 18  1  0  0  0
 17 55  1  0  0  0
 17 56  1  0  0  0
 18 26  1  0  0  0
 18 19  1  0  0  0
 18 39  1  0  0  0
 19 20  1  0  0  0
 19 21  1  0  0  0
 21 22  1  0  0  0
 21 23  1  0  0  0
 21 38  1  0  0  0
 23 24  1  0  0  0
 23 25  1  0  0  0
 23 27  1  0  0  0
 25 26  1  0  0  0
 25 57  1  0  0  0
 25 58  1  0  0  0
 26 59  1  0  0  0
 26 60  1  0  0  0
 27 28  1  0  0  0
 27 29  1  0  0  0
 27 30  1  0  0  0
 29 61  1  0  0  0
 29 62  1  0  0  0
 29 63  1  0  0  0
 30 31  2  0  0  0
 30 32  1  0  0  0
 32 33  1  0  0  0
 32 34  1  0  0  0
 33 64  1  0  0  0
 33 65  1  0  0  0
 33 66  1  0  0  0
 34 35  1  0  0  0
 34 67  1  0  0  0
 34 68  1  0  0  0
 35 36  1  0  0  0
 35 69  1  0  0  0
 35 70  1  0  0  0
 36 37  3  0  0  0
 38 71  1  0  0  0
 39 72  1  0  0  0
 39 73  1  0  0  0
 39 74  1  0  0  0
M  END
> <i_i_glide_confnum>
289

> <i_i_glide_lignum>
5123

> <i_i_glide_posenum>
286

> <i_i_glide_rotatable_bonds>
11

> <i_m_Source_File_Index>
1059

> <b_m_subgroup_collapsed>
0

> <r_i_docking_score>
-4.21283

> <r_i_glide_ecoul>
-9.53269

> <r_i_glide_eff_state_penalty>
0

> <r_i_glide_einternal>
14.3085

> <r_i_glide_emodel>
-43.2262

> <r_i_glide_energy>
-43.7035

> <r_i_glide_erotb>
0.681304

> <r_i_glide_esite>
-0.0554621

> <r_i_glide_evdw>
-34.1708

> <r_i_glide_gscore>
-4.21283

> <r_i_glide_hbond>
-0.351525

> <r_i_glide_ligand_efficiency>
-0.123907

> <r_i_glide_ligand_efficiency_ln>
-0.930731

> <r_i_glide_ligand_efficiency_sa>
-0.401409

> <r_i_glide_lipo>
-2.32752

> <r_i_glide_metal>
0

> <r_i_glide_rewards>
0.978824

> <s_i_glide_gridfile>
wee1_glide-grid

> <s_m_Source_File>
wee1_decoys_glide_SP.sdf

> <s_m_Source_Path>
/Users/zhangxujun/Desktop

> <s_m_entry_id>
1334

> <s_m_entry_name>
wee1_decoys_glide_SP.1059

> <s_m_subgroup_title>
wee1_decoys_glide_SP

> <s_m_subgroupid>
wee1_decoys_glide_SP


$$$$
