@<TRIPOS>MOLECULE
ZINC15080955_2491
55   58    1
SMALL
USER_CHARGES


@<TRIPOS>ATOM
      1 C1          2.1367   53.1863   25.4642 C.3       1 UNK         0.0000 
      2 C2          1.0907   52.4971   26.3219 C.ar      1 UNK         0.0000 
      3 C3          0.8405   53.0239   27.5947 C.ar      1 UNK         0.0000 
      4 C4         -0.0956   52.4311   28.4367 C.ar      1 UNK         0.0000 
      5 C5         -0.7829   51.2975   28.0151 C.ar      1 UNK         0.0000 
      6 C6         -0.5209   50.7419   26.7634 C.ar      1 UNK         0.0000 
      7 C7          0.4061   51.3355   25.9039 C.ar      1 UNK         0.0000 
      8 N8          0.6640   50.6897   24.6820 N.am      1 UNK         0.0000 
      9 C9          0.2858   51.1329   23.4639 C.2       1 UNK         0.0000 
     10 O10        -0.4132   52.1362   23.3054 O.2       1 UNK         0.0000 
     11 C11         0.7374   50.2764   22.2354 C.3       1 UNK         0.0000 
     12 H12         1.5471   49.6570   22.6276 H         1 UNK         0.0000 
     13 C13         1.3570   51.1227   21.0521 C.3       1 UNK         0.0000 
     14 H14         1.8665   50.4011   20.4113 H         1 UNK         0.0000 
     15 C15         0.2476   51.6588   20.1319 C.ar      1 UNK         0.0000 
     16 C16        -1.0654   51.1964   20.2135 C.ar      1 UNK         0.0000 
     17 N17        -1.7167   51.7409   19.1466 N.pl3     1 UNK         0.0000 
     18 H18        -2.6714   51.5365   18.8891 H         1 UNK         0.0000 
     19 N19        -0.9423   52.5454   18.4206 N.2       1 UNK         0.0000 
     20 H20         1.5053   53.9207   19.0757 H         1 UNK         0.0000 
     21 C21         0.2395   52.4965   18.9974 C.ar      1 UNK         0.0000 
     22 O22         1.3033   53.1822   18.4816 O.3       1 UNK         0.0000 
     23 C23        -1.6152   50.1297   21.1460 C.3       1 UNK         0.0000 
     24 C24        -0.4149   49.3314   21.7277 C.3       1 UNK         0.0000 
     25 C25         0.1190   48.3458   20.6530 C.3       1 UNK         0.0000 
     26 O26        -0.8974   48.4842   22.7583 O.3       1 UNK         0.0000 
     27 C27         2.4936   52.0834   21.4430 C.ar      1 UNK         0.0000 
     28 C28         2.2222   53.2967   22.0770 C.ar      1 UNK         0.0000 
     29 C29         3.2601   54.0936   22.5439 C.ar      1 UNK         0.0000 
     30 C30         4.5834   53.6961   22.3925 C.ar      1 UNK         0.0000 
     31 C31         4.8671   52.5202   21.6829 C.ar      1 UNK         0.0000 
     32 C32         3.8266   51.7172   21.2201 C.ar      1 UNK         0.0000 
     33 O33         5.5169   54.5035   23.0073 O.3       1 UNK         0.0000 
     34 C34         6.9036   54.2334   22.8818 C.3       1 UNK         0.0000 
     35 H35         1.6573   53.9369   24.8371 H         1 UNK         0.0000 
     36 H36         2.8951   53.6754   26.0762 H         1 UNK         0.0000 
     37 H37         2.6704   52.4770   24.8335 H         1 UNK         0.0000 
     38 H38         1.3674   53.9045   27.9325 H         1 UNK         0.0000 
     39 H39        -0.2888   52.8459   29.4153 H         1 UNK         0.0000 
     40 H40        -1.5070   50.8321   28.6683 H         1 UNK         0.0000 
     41 H41        -1.0420   49.8373   26.4807 H         1 UNK         0.0000 
     42 H42         1.1294   49.7959   24.7466 H         1 UNK         0.0000 
     43 H43        -2.1789   50.6079   21.9478 H         1 UNK         0.0000 
     44 H44        -2.3226   49.4702   20.6412 H         1 UNK         0.0000 
     45 H45         0.1829   48.8113   19.6693 H         1 UNK         0.0000 
     46 H46         1.1271   48.0040   20.8814 H         1 UNK         0.0000 
     47 H47        -0.5205   47.4698   20.5324 H         1 UNK         0.0000 
     48 H48        -0.8774   48.9617   23.5916 H         1 UNK         0.0000 
     49 H49         1.2053   53.6263   22.2224 H         1 UNK         0.0000 
     50 H50         3.0368   55.0092   23.0682 H         1 UNK         0.0000 
     51 H51         5.8798   52.1842   21.5352 H         1 UNK         0.0000 
     52 H52         4.0633   50.7955   20.7092 H         1 UNK         0.0000 
     53 H53         7.4438   54.8648   23.5856 H         1 UNK         0.0000 
     54 H54         7.1582   53.2004   23.1190 H         1 UNK         0.0000 
     55 H55         7.2540   54.4972   21.8841 H         1 UNK         0.0000 
@<TRIPOS>BOND
     1    1    2 1    
     2    1   35 1    
     3    1   36 1    
     4    1   37 1    
     5    2    7 ar   
     6    2    3 ar   
     7    3    4 ar   
     8    3   38 1    
     9    4    5 ar   
    10    4   39 1    
    11    5    6 ar   
    12    5   40 1    
    13    6    7 ar   
    14    6   41 1    
    15    7    8 1    
    16    8    9 am   BACKBONE|DICT|INTERRES
    17    8   42 1    
    18    9   10 2    
    19    9   11 1    
    20   11   12 1    
    21   11   24 1    
    22   11   13 1    
    23   13   14 1    
    24   13   15 1    
    25   13   27 1    
    26   15   21 ar   
    27   15   16 ar   
    28   16   23 1    
    29   16   17 ar   
    30   17   19 ar   
    31   17   18 1    
    32   19   21 ar   
    33   20   22 1    
    34   21   22 1    
    35   23   24 1    
    36   23   43 1    
    37   23   44 1    
    38   24   25 1    
    39   24   26 1    
    40   25   45 1    
    41   25   46 1    
    42   25   47 1    
    43   26   48 1    
    44   27   32 ar   
    45   27   28 ar   
    46   28   29 ar   
    47   28   49 1    
    48   29   30 ar   
    49   29   50 1    
    50   30   31 ar   
    51   30   33 1    
    52   31   32 ar   
    53   31   51 1    
    54   32   52 1    
    55   33   34 1    
    56   34   53 1    
    57   34   54 1    
    58   34   55 1    
@<TRIPOS>SUBSTRUCTURE
     1 UNK         1 GROUP             0       ****    0 ROOT    
