@<TRIPOS>MOLECULE
ZINC35694666_1082
72   75    1
SMALL
USER_CHARGES


@<TRIPOS>ATOM
      1 C1          0.8818   52.2915   31.6299 C.3       1 UNK         0.0000 
      2 C2          1.1796   52.5561   30.1721 C.ar      1 UNK         0.0000 
      3 C3          2.4919   52.6014   29.7108 C.ar      1 UNK         0.0000 
      4 C4          2.7414   52.8075   28.3567 C.ar      1 UNK         0.0000 
      5 C5          1.6925   52.9814   27.4330 C.ar      1 UNK         0.0000 
      6 C6          0.3793   52.9176   27.9272 C.ar      1 UNK         0.0000 
      7 C7          0.1239   52.7047   29.2766 C.ar      1 UNK         0.0000 
      8 N8          1.9709   53.2083   26.0602 N.pl3     1 UNK         0.0000 
      9 C9          3.1987   53.6964   25.5973 C.ar      1 UNK         0.0000 
     10 C10         3.1870   53.7372   24.2617 C.ar      1 UNK         0.0000 
     11 N11         1.9204   53.4057   23.8445 N.pl3     1 UNK         0.0000 
     12 C12         1.1119   52.9646   24.9271 C.ar      1 UNK         0.0000 
     13 N13        -0.0771   52.4819   24.9111 N.am      1 UNK         0.0000 
     14 C14        -0.7815   52.3437   23.7275 C.2       1 UNK         0.0000 
     15 O15        -1.8591   52.9117   23.5659 O.2       1 UNK         0.0000 
     16 C16        -0.1697   51.3825   22.6735 C.3       1 UNK         0.0000 
     17 N17        -1.0233   51.2549   21.4684 N.am      1 UNK         0.0000 
     18 C18        -0.3582   51.7291   20.2409 C.3       1 UNK         0.0000 
     19 C19         0.5976   50.6935   19.6150 C.3       1 UNK         0.0000 
     20 N20         1.2468   51.2553   18.3292 N.4       1 UNK         0.0000 
     21 C21         2.2702   52.3846   18.5913 C.3       1 UNK         0.0000 
     22 C22         1.9044   50.1264   17.5095 C.3       1 UNK         0.0000 
     23 C23        -2.1618   50.4989   21.3750 C.2       1 UNK         0.0000 
     24 O24        -2.7933   50.3899   20.3196 O.2       1 UNK         0.0000 
     25 C25        -2.7225   49.8386   22.6126 C.ar      1 UNK         0.0000 
     26 C26        -1.9879   48.8857   23.3374 C.ar      1 UNK         0.0000 
     27 C27        -2.5149   48.3367   24.5051 C.ar      1 UNK         0.0000 
     28 C28        -3.7900   48.7036   24.9276 C.ar      1 UNK         0.0000 
     29 C29        -4.5460   49.6126   24.1908 C.ar      1 UNK         0.0000 
     30 C30        -4.0148   50.1774   23.0337 C.ar      1 UNK         0.0000 
     31 F31        -4.3055   48.1668   26.0557 F         1 UNK         0.0000 
     32 C32         4.2836   54.1034   23.3393 C.ar      1 UNK         0.0000 
     33 C33         5.5346   54.4904   23.8405 C.ar      1 UNK         0.0000 
     34 C34         6.5495   54.8908   22.9787 C.ar      1 UNK         0.0000 
     35 C35         6.3438   54.9031   21.6015 C.ar      1 UNK         0.0000 
     36 C36         5.1041   54.4956   21.0887 C.ar      1 UNK         0.0000 
     37 C37         4.0862   54.0988   21.9513 C.ar      1 UNK         0.0000 
     38 O38         7.4154   55.3011   20.8278 O.3       1 UNK         0.0000 
     39 C39         7.2904   55.3050   19.4108 C.3       1 UNK         0.0000 
     40 H40         1.6695   51.7163   32.1172 H         1 UNK         0.0000 
     41 H41         0.7108   53.2164   32.1779 H         1 UNK         0.0000 
     42 H42        -0.0306   51.6978   31.6817 H         1 UNK         0.0000 
     43 H43         3.3196   52.4738   30.3938 H         1 UNK         0.0000 
     44 H44         3.7739   52.8112   28.0398 H         1 UNK         0.0000 
     45 H45        -0.4751   53.0482   27.2845 H         1 UNK         0.0000 
     46 H46        -0.8958   52.6515   29.6303 H         1 UNK         0.0000 
     47 H47         4.0045   53.9504   26.2708 H         1 UNK         0.0000 
     48 H48        -0.0132   50.4144   23.1397 H         1 UNK         0.0000 
     49 H49         0.8401   51.6659   22.3851 H         1 UNK         0.0000 
     50 H50        -1.1036   52.0181   19.4992 H         1 UNK         0.0000 
     51 H51         0.1850   52.6459   20.4771 H         1 UNK         0.0000 
     52 H52         1.4107   50.3964   20.2783 H         1 UNK         0.0000 
     53 H53         0.0469   49.8009   19.3116 H         1 UNK         0.0000 
     54 H54         3.0467   51.9945   19.2537 H         1 UNK         0.0000 
     55 H55         2.6987   52.6738   17.6284 H         1 UNK         0.0000 
     56 H56         1.7532   53.2381   19.0344 H         1 UNK         0.0000 
     57 H57         2.7044   49.6934   18.1125 H         1 UNK         0.0000 
     58 H58         1.1445   49.3807   17.2763 H         1 UNK         0.0000 
     59 H59         2.3043   50.5586   16.5926 H         1 UNK         0.0000 
     60 H60        -1.0050   48.5711   23.0136 H         1 UNK         0.0000 
     61 H61        -1.9377   47.6363   25.0935 H         1 UNK         0.0000 
     62 H62        -5.5338   49.8884   24.5244 H         1 UNK         0.0000 
     63 H63        -4.6055   50.8955   22.4835 H         1 UNK         0.0000 
     64 H64         5.7257   54.4946   24.9033 H         1 UNK         0.0000 
     65 H65         7.5037   55.1944   23.3775 H         1 UNK         0.0000 
     66 H66         4.9101   54.4878   20.0268 H         1 UNK         0.0000 
     67 H67         3.1390   53.8089   21.5271 H         1 UNK         0.0000 
     68 H68         8.2253   55.6502   18.9696 H         1 UNK         0.0000 
     69 H69         7.0951   54.3030   19.0253 H         1 UNK         0.0000 
     70 H70         6.4997   55.9791   19.0759 H         1 UNK         0.0000 
     71 H71         0.5058   51.6359   17.7533 H         1 UNK         0.0000 
     72 H72         1.6209   53.4244   22.8831 H         1 UNK         0.0000 
@<TRIPOS>BOND
     1    1    2 1    
     2    1   40 1    
     3    1   41 1    
     4    1   42 1    
     5    2    7 ar   
     6    2    3 ar   
     7    3    4 ar   
     8    3   43 1    
     9    4    5 ar   
    10    4   44 1    
    11    5    6 ar   
    12    5    8 1    
    13    6    7 ar   
    14    6   45 1    
    15    7   46 1    
    16    8   12 ar   
    17    8    9 ar   
    18    9   10 ar   
    19    9   47 1    
    20   10   11 ar   
    21   10   32 1    
    22   11   12 ar   
    23   11   72 1    
    24   12   13 2    
    25   13   14 am   BACKBONE|DICT|INTERRES
    26   14   15 2    
    27   14   16 1    
    28   16   17 1    
    29   16   48 1    
    30   16   49 1    
    31   17   18 1    
    32   17   23 am   BACKBONE|DICT|INTERRES
    33   18   19 1    
    34   18   50 1    
    35   18   51 1    
    36   19   20 1    
    37   19   52 1    
    38   19   53 1    
    39   20   21 1    
    40   20   22 1    
    41   20   71 1    
    42   21   54 1    
    43   21   55 1    
    44   21   56 1    
    45   22   57 1    
    46   22   58 1    
    47   22   59 1    
    48   23   24 2    
    49   23   25 1    
    50   25   30 ar   
    51   25   26 ar   
    52   26   27 ar   
    53   26   60 1    
    54   27   28 ar   
    55   27   61 1    
    56   28   29 ar   
    57   28   31 1    
    58   29   30 ar   
    59   29   62 1    
    60   30   63 1    
    61   32   37 ar   
    62   32   33 ar   
    63   33   34 ar   
    64   33   64 1    
    65   34   35 ar   
    66   34   65 1    
    67   35   36 ar   
    68   35   38 1    
    69   36   37 ar   
    70   36   66 1    
    71   37   67 1    
    72   38   39 1    
    73   39   68 1    
    74   39   69 1    
    75   39   70 1    
@<TRIPOS>SUBSTRUCTURE
     1 UNK         1 GROUP             0       ****    0 ROOT    
