@<TRIPOS>MOLECULE
ZINC37353046_6147
32   34    1
SMALL
USER_CHARGES


@<TRIPOS>ATOM
      1 C1          6.7048   54.8590   25.6893 C.3       1 UNK         0.0000 
      2 C2          5.2709   54.4688   25.9401 C.ar      1 UNK         0.0000 
      3 C3          4.6359   54.2849   27.1650 C.ar      1 UNK         0.0000 
      4 N4          3.2930   53.9867   26.9576 N.pl3     1 UNK         0.0000 
      5 C5          3.0702   53.9007   25.5894 C.ar      1 UNK         0.0000 
      6 C6          4.2959   54.1767   24.9311 C.ar      1 UNK         0.0000 
      7 C7          4.2578   54.0965   23.5249 C.ar      1 UNK         0.0000 
      8 N8          3.1127   53.8099   22.8636 N.ar      1 UNK         0.0000 
      9 C9          2.0079   53.5924   23.6155 C.ar      1 UNK         0.0000 
     10 N10         1.9127   53.6126   24.9697 N.ar      1 UNK         0.0000 
     11 N11         5.3945   54.2849   22.7468 N.pl3     1 UNK         0.0000 
     12 C12         2.3296   53.7456   27.9654 C.ar      1 UNK         0.0000 
     13 C13         1.6733   52.5091   27.9976 C.ar      1 UNK         0.0000 
     14 C14         0.7213   52.2459   28.9779 C.ar      1 UNK         0.0000 
     15 C15         0.4199   53.2140   29.9310 C.ar      1 UNK         0.0000 
     16 C16         1.0564   54.4561   29.9010 C.ar      1 UNK         0.0000 
     17 C17         2.0077   54.7286   28.9152 C.ar      1 UNK         0.0000 
     18 F18         2.5945   55.9486   28.8823 F         1 UNK         0.0000 
     19 F19         0.7466   55.3973   30.8238 F         1 UNK         0.0000 
     20 F20        -0.4946   52.9396   30.8815 F         1 UNK         0.0000 
     21 C21         5.2272   54.3520   28.5642 C.3       1 UNK         0.0000 
     22 H22         7.2578   55.0047   26.6161 H         1 UNK         0.0000 
     23 H23         7.2324   54.0945   25.1193 H         1 UNK         0.0000 
     24 H24         6.7740   55.7896   25.1252 H         1 UNK         0.0000 
     25 H25         1.1019   53.3655   23.0724 H         1 UNK         0.0000 
     26 H26         6.2750   54.4948   23.1916 H         1 UNK         0.0000 
     27 H27         5.3058   54.2058   21.7442 H         1 UNK         0.0000 
     28 H28         1.9017   51.7415   27.2746 H         1 UNK         0.0000 
     29 H29         0.2127   51.2930   29.0016 H         1 UNK         0.0000 
     30 H30         6.3112   54.2433   28.5585 H         1 UNK         0.0000 
     31 H31         5.0128   55.2964   29.0621 H         1 UNK         0.0000 
     32 H32         4.8514   53.5550   29.2062 H         1 UNK         0.0000 
@<TRIPOS>BOND
     1    1    2 1    
     2    1   22 1    
     3    1   23 1    
     4    1   24 1    
     5    2    6 ar   
     6    2    3 ar   
     7    3    4 ar   
     8    3   21 1    
     9    4    5 ar   
    10    4   12 1    
    11    5   10 ar   
    12    5    6 ar   
    13    6    7 ar   
    14    7    8 ar   
    15    7   11 1    
    16    8    9 ar   
    17    9   10 ar   
    18    9   25 1    
    19   11   26 1    
    20   11   27 1    
    21   12   17 ar   
    22   12   13 ar   
    23   13   14 ar   
    24   13   28 1    
    25   14   15 ar   
    26   14   29 1    
    27   15   16 ar   
    28   15   20 1    
    29   16   17 ar   
    30   16   19 1    
    31   17   18 1    
    32   21   30 1    
    33   21   31 1    
    34   21   32 1    
@<TRIPOS>SUBSTRUCTURE
     1 UNK         1 GROUP             0       ****    0 ROOT    
