@<TRIPOS>MOLECULE
ZINC58970078_4507
58   61    1
SMALL
USER_CHARGES


@<TRIPOS>ATOM
      1 C1          0.0269   53.4419   31.4845 C.3       1 UNK         0.0000 
      2 C2          0.8063   53.6027   30.1985 C.ar      1 UNK         0.0000 
      3 C3          0.7704   52.5864   29.2454 C.ar      1 UNK         0.0000 
      4 C4          1.4879   52.7265   28.0625 C.ar      1 UNK         0.0000 
      5 C5          2.2561   53.8749   27.8241 C.ar      1 UNK         0.0000 
      6 C6          2.2789   54.8899   28.7891 C.ar      1 UNK         0.0000 
      7 C7          1.5405   54.7650   29.9639 C.ar      1 UNK         0.0000 
      8 C8          3.0373   54.0061   26.5668 C.ar      1 UNK         0.0000 
      9 C9          4.3586   54.4683   26.5390 C.ar      1 UNK         0.0000 
     10 C10         5.0040   54.4928   25.2959 C.ar      1 UNK         0.0000 
     11 N11         4.3749   54.1215   24.1461 N.ar      1 UNK         0.0000 
     12 C12         3.0934   53.6979   24.2659 C.ar      1 UNK         0.0000 
     13 N13         2.3993   53.6193   25.4299 N.ar      1 UNK         0.0000 
     14 S14         2.2870   53.1768   22.7867 S.3       1 UNK         0.0000 
     15 C15         0.6513   52.5687   23.2825 C.3       1 UNK         0.0000 
     16 C16        -0.1343   51.8543   22.1730 C.3       1 UNK         0.0000 
     17 C17        -1.5503   51.4976   22.6262 C.2       1 UNK         0.0000 
     18 O18        -2.4518   52.3232   22.4793 O.2       1 UNK         0.0000 
     19 N19        -1.6735   50.2825   23.2002 N.am      1 UNK         0.0000 
     20 C20        -2.7878   49.6995   23.8025 C.2       1 UNK         0.0000 
     21 C21        -2.8011   48.4652   24.4911 C.2       1 UNK         0.0000 
     22 C22        -4.1066   48.1272   24.9453 C.2       1 UNK         0.0000 
     23 C23        -5.0488   49.1223   24.6526 C.2       1 UNK         0.0000 
     24 S24        -4.3662   50.4364   23.7701 S.3       1 UNK         0.0000 
     25 C25        -6.5275   49.0680   24.9995 C.3       1 UNK         0.0000 
     26 C26        -6.7363   48.0568   26.1411 C.3       1 UNK         0.0000 
     27 C27        -6.0404   46.7206   25.8355 C.3       1 UNK         0.0000 
     28 C28        -4.5031   46.8562   25.7096 C.3       1 UNK         0.0000 
     29 C29        -1.6443   47.5976   24.6615 C.2       1 UNK         0.0000 
     30 O30        -1.7098   46.3723   24.5887 O.2       1 UNK         0.0000 
     31 N31        -0.4903   48.2201   24.9075 N.am      1 UNK         0.0000 
     32 C32         6.4724   54.8815   25.1522 C.3       1 UNK         0.0000 
     33 F33         7.1033   54.8943   26.3307 F         1 UNK         0.0000 
     34 F34         7.1041   54.0163   24.3586 F         1 UNK         0.0000 
     35 F35         6.5585   56.0966   24.6186 F         1 UNK         0.0000 
     36 H36         0.5984   52.8720   32.2193 H         1 UNK         0.0000 
     37 H37        -0.2510   54.4024   31.9163 H         1 UNK         0.0000 
     38 H38        -0.8954   52.8963   31.2825 H         1 UNK         0.0000 
     39 H39         0.1930   51.6886   29.4176 H         1 UNK         0.0000 
     40 H40         1.4582   51.9272   27.3342 H         1 UNK         0.0000 
     41 H41         2.8547   55.7874   28.6213 H         1 UNK         0.0000 
     42 H42         1.5500   55.5657   30.6903 H         1 UNK         0.0000 
     43 H43         4.8680   54.7490   27.4495 H         1 UNK         0.0000 
     44 H44         0.0861   53.4177   23.6753 H         1 UNK         0.0000 
     45 H45         0.7999   51.8808   24.1178 H         1 UNK         0.0000 
     46 H46         0.4244   50.9963   21.7963 H         1 UNK         0.0000 
     47 H47        -0.1806   52.4966   21.2930 H         1 UNK         0.0000 
     48 H48        -0.8364   49.7199   23.2442 H         1 UNK         0.0000 
     49 H49        -7.1012   48.7587   24.1260 H         1 UNK         0.0000 
     50 H50        -6.9091   50.0488   25.2870 H         1 UNK         0.0000 
     51 H51        -7.8037   47.8951   26.3019 H         1 UNK         0.0000 
     52 H52        -6.3496   48.4644   27.0771 H         1 UNK         0.0000 
     53 H53        -6.4483   46.3105   24.9097 H         1 UNK         0.0000 
     54 H54        -6.2764   45.9924   26.6136 H         1 UNK         0.0000 
     55 H55        -4.0555   46.8842   26.7048 H         1 UNK         0.0000 
     56 H56        -4.1169   45.9603   25.2247 H         1 UNK         0.0000 
     57 H57        -0.5052   49.1845   25.1998 H         1 UNK         0.0000 
     58 H58         0.3186   47.6602   25.1344 H         1 UNK         0.0000 
@<TRIPOS>BOND
     1    1    2 1    
     2    1   36 1    
     3    1   37 1    
     4    1   38 1    
     5    2    7 ar   
     6    2    3 ar   
     7    3    4 ar   
     8    3   39 1    
     9    4    5 ar   
    10    4   40 1    
    11    5    6 ar   
    12    5    8 1    
    13    6    7 ar   
    14    6   41 1    
    15    7   42 1    
    16    8   13 ar   
    17    8    9 ar   
    18    9   10 ar   
    19    9   43 1    
    20   10   11 ar   
    21   10   32 1    
    22   11   12 ar   
    23   12   13 ar   
    24   12   14 1    
    25   14   15 1    
    26   15   16 1    
    27   15   44 1    
    28   15   45 1    
    29   16   17 1    
    30   16   46 1    
    31   16   47 1    
    32   17   18 2    
    33   17   19 am   BACKBONE|DICT|INTERRES
    34   19   20 am   BACKBONE|DICT|INTERRES
    35   19   48 1    
    36   20   24 1    
    37   20   21 2    
    38   21   22 1    
    39   21   29 1    
    40   22   28 1    
    41   22   23 2    
    42   23   24 1    
    43   23   25 1    
    44   25   26 1    
    45   25   49 1    
    46   25   50 1    
    47   26   27 1    
    48   26   51 1    
    49   26   52 1    
    50   27   28 1    
    51   27   53 1    
    52   27   54 1    
    53   28   55 1    
    54   28   56 1    
    55   29   30 2    
    56   29   31 am   BACKBONE|DICT|INTERRES
    57   31   57 1    
    58   31   58 1    
    59   32   33 1    
    60   32   34 1    
    61   32   35 1    
@<TRIPOS>SUBSTRUCTURE
     1 UNK         1 GROUP             0       ****    0 ROOT    
