ZINC22534051_2308
                    3D
 Schrodinger Suite 2024-2.
 61 64  0  0  1  0            999 V2000
    3.8214   52.3927   14.5037 C   0  0  0  0  0  0
    4.1304   53.0310   15.8491 C   0  0  0  0  0  0
    5.4694   53.2687   16.1756 C   0  0  0  0  0  0
    5.8229   53.7616   17.4279 C   0  0  0  0  0  0
    4.8406   54.0373   18.3839 C   0  0  0  0  0  0
    3.4943   53.8612   18.0337 C   0  0  0  0  0  0
    3.1283   53.3467   16.7864 C   0  0  0  0  0  0
    1.3742   53.0517   16.4874 S   0  0  0  0  0  0
    0.5855   53.7174   17.5306 O   0  0  0  0  0  0
    1.0989   53.3356   15.0747 O   0  0  0  0  0  0
    1.1666   51.3031   16.6886 N   0  0  0  0  0  0
    1.2248   50.6111   17.9090 C   0  0  0  0  0  0
    1.4076   51.2300   19.1522 C   0  0  0  0  0  0
    1.4821   50.4711   20.3221 C   0  0  0  0  0  0
    1.3416   49.0841   20.2566 C   0  0  0  0  0  0
    1.1511   48.4543   19.0251 C   0  0  0  0  0  0
    1.1028   49.2209   17.8584 C   0  0  0  0  0  0
    0.9697   46.9520   18.9436 C   0  0  0  0  0  0
    1.6919   51.1547   21.6598 C   0  0  0  0  0  0
    5.2478   54.4618   19.7748 C   0  0  0  0  0  0
    6.2949   55.0868   19.9560 O   0  0  0  0  0  0
    4.4171   54.0575   20.7605 N   0  0  0  0  0  0
    4.6127   54.1224   22.1473 C   0  0  0  0  0  0
    3.4715   54.0941   22.9430 C   0  0  0  0  0  0
    3.5846   54.1058   24.3295 C   0  0  0  0  0  0
    4.8443   54.1539   24.9513 C   0  0  0  0  0  0
    5.9885   54.1780   24.1340 C   0  0  0  0  0  0
    5.8747   54.1547   22.7504 C   0  0  0  0  0  0
    4.9151   54.1205   26.3752 N   0  0  0  0  0  0
    3.7915   53.6464   27.2032 C   0  0  0  0  0  0
    4.1640   53.9079   28.6417 C   0  0  0  0  0  0
    5.6401   54.1788   28.5905 C   0  0  0  0  0  0
    6.0027   54.4553   27.1367 C   0  0  0  0  0  0
    7.1015   54.8960   26.7892 O   0  0  0  0  0  0
    4.7155   51.9809   14.0304 H   0  0  0  0  0  0
    3.1252   51.5614   14.6253 H   0  0  0  0  0  0
    3.3708   53.1216   13.8295 H   0  0  0  0  0  0
    6.2516   53.0319   15.4693 H   0  0  0  0  0  0
    6.8709   53.8902   17.6615 H   0  0  0  0  0  0
    2.7121   54.0957   18.7406 H   0  0  0  0  0  0
    1.1860   50.7534   15.8447 H   0  0  0  0  0  0
    1.5041   52.2983   19.2348 H   0  0  0  0  0  0
    1.3876   48.4971   21.1635 H   0  0  0  0  0  0
    0.9705   48.7287   16.9051 H   0  0  0  0  0  0
    0.6332   46.5340   19.8932 H   0  0  0  0  0  0
    0.2104   46.7010   18.2006 H   0  0  0  0  0  0
    1.9041   46.4788   18.6430 H   0  0  0  0  0  0
    1.2803   50.5613   22.4782 H   0  0  0  0  0  0
    2.7545   51.3201   21.8430 H   0  0  0  0  0  0
    1.1810   52.1183   21.6857 H   0  0  0  0  0  0
    3.5430   53.6494   20.4675 H   0  0  0  0  0  0
    2.4891   54.0689   22.4954 H   0  0  0  0  0  0
    2.6704   54.0784   24.9021 H   0  0  0  0  0  0
    6.9858   54.1743   24.5430 H   0  0  0  0  0  0
    6.7775   54.1358   22.1621 H   0  0  0  0  0  0
    2.8621   54.1694   26.9739 H   0  0  0  0  0  0
    3.6281   52.5795   27.0413 H   0  0  0  0  0  0
    3.9010   53.0787   29.3004 H   0  0  0  0  0  0
    3.6408   54.7946   29.0023 H   0  0  0  0  0  0
    6.2145   53.3001   28.8815 H   0  0  0  0  0  0
    5.9043   55.0061   29.2449 H   0  0  0  0  0  0
  1  2  1  0  0  0
  1 35  1  0  0  0
  1 36  1  0  0  0
  1 37  1  0  0  0
  2  7  2  0  0  0
  2  3  1  0  0  0
  3  4  2  0  0  0
  3 38  1  0  0  0
  4  5  1  0  0  0
  4 39  1  0  0  0
  5  6  2  0  0  0
  5 20  1  0  0  0
  6  7  1  0  0  0
  6 40  1  0  0  0
  7  8  1  0  0  0
  8  9  2  0  0  0
  8 10  2  0  0  0
  8 11  1  0  0  0
 11 12  1  0  0  0
 11 41  1  0  0  0
 12 17  2  0  0  0
 12 13  1  0  0  0
 13 14  2  0  0  0
 13 42  1  0  0  0
 14 15  1  0  0  0
 14 19  1  0  0  0
 15 16  2  0  0  0
 15 43  1  0  0  0
 16 17  1  0  0  0
 16 18  1  0  0  0
 17 44  1  0  0  0
 18 45  1  0  0  0
 18 46  1  0  0  0
 18 47  1  0  0  0
 19 48  1  0  0  0
 19 49  1  0  0  0
 19 50  1  0  0  0
 20 21  2  0  0  0
 20 22  1  0  0  0
 22 23  1  0  0  0
 22 51  1  0  0  0
 23 28  2  0  0  0
 23 24  1  0  0  0
 24 25  2  0  0  0
 24 52  1  0  0  0
 25 26  1  0  0  0
 25 53  1  0  0  0
 26 27  2  0  0  0
 26 29  1  0  0  0
 27 28  1  0  0  0
 27 54  1  0  0  0
 28 55  1  0  0  0
 29 33  1  0  0  0
 29 30  1  0  0  0
 30 31  1  0  0  0
 30 56  1  0  0  0
 30 57  1  0  0  0
 31 32  1  0  0  0
 31 58  1  0  0  0
 31 59  1  0  0  0
 32 33  1  0  0  0
 32 60  1  0  0  0
 32 61  1  0  0  0
 33 34  2  0  0  0
M  END
> <i_i_glide_confnum>
174

> <i_i_glide_lignum>
2309

> <i_i_glide_posenum>
12

> <i_i_glide_rotatable_bonds>
7

> <i_m_Source_File_Index>
1599

> <b_m_subgroup_collapsed>
0

> <r_i_docking_score>
-6.04333

> <r_i_glide_ecoul>
-5.34566

> <r_i_glide_eff_state_penalty>
0

> <r_i_glide_einternal>
4.74036

> <r_i_glide_emodel>
-61.8595

> <r_i_glide_energy>
-46.4792

> <r_i_glide_erotb>
0.621745

> <r_i_glide_esite>
-0.0593426

> <r_i_glide_evdw>
-41.1335

> <r_i_glide_gscore>
-6.04333

> <r_i_glide_hbond>
-0.285772

> <r_i_glide_ligand_efficiency>
-0.177745

> <r_i_glide_ligand_efficiency_ln>
-1.33514

> <r_i_glide_ligand_efficiency_sa>
-0.575824

> <r_i_glide_lipo>
-2.04699

> <r_i_glide_metal>
0

> <r_i_glide_rewards>
-1.41444

> <s_i_glide_gridfile>
wee1_glide-grid

> <s_m_Source_File>
wee1_decoys_glide_SP.sdf

> <s_m_Source_Path>
/Users/zhangxujun/Desktop

> <s_m_entry_id>
1874

> <s_m_entry_name>
wee1_decoys_glide_SP.1599

> <s_m_subgroup_title>
wee1_decoys_glide_SP

> <s_m_subgroupid>
wee1_decoys_glide_SP


$$$$
