@<TRIPOS>MOLECULE
ZINC36221249_5406
65   69    1
SMALL
USER_CHARGES


@<TRIPOS>ATOM
      1 C1          0.8279   54.9700   30.4822 C.ar      1 UNK         0.0000 
      2 C2          0.3039   53.7163   30.7961 C.ar      1 UNK         0.0000 
      3 C3          0.4526   52.6626   29.8980 C.ar      1 UNK         0.0000 
      4 C4          1.1328   52.8661   28.6926 C.ar      1 UNK         0.0000 
      5 C5          1.6863   54.1179   28.4013 C.ar      1 UNK         0.0000 
      6 C6          1.5246   55.1762   29.2927 C.ar      1 UNK         0.0000 
      7 C7          1.3356   51.7035   27.7297 C.3       1 UNK         0.0000 
      8 N8          0.2981   51.6343   26.6995 N.am      1 UNK         0.0000 
      9 C9          0.3015   52.3562   25.5622 C.2       1 UNK         0.0000 
     10 O10         1.2473   53.0744   25.2423 O.2       1 UNK         0.0000 
     11 C11        -0.9553   52.3425   24.6504 C.3       1 UNK         0.0000 
     12 H12        -1.1202   53.3843   24.3816 H         1 UNK         0.0000 
     13 C13        -0.8395   51.4796   23.3893 C.3       1 UNK         0.0000 
     14 H14        -1.4243   51.9629   22.6033 H         1 UNK         0.0000 
     15 O15        -1.5599   50.3108   23.7437 O.3       1 UNK         0.0000 
     16 C16        -2.4502   50.5241   24.7333 C.2       1 UNK         0.0000 
     17 O17        -3.3081   49.7029   25.0486 O.2       1 UNK         0.0000 
     18 N18        -2.1557   51.7829   25.2606 N.am      1 UNK         0.0000 
     19 C19        -2.8746   52.3714   26.3927 C.3       1 UNK         0.0000 
     20 C20        -4.3384   52.6967   26.1185 C.ar      1 UNK         0.0000 
     21 C21        -4.6800   53.6125   25.1196 C.ar      1 UNK         0.0000 
     22 C22        -6.0194   53.9069   24.8818 C.ar      1 UNK         0.0000 
     23 C23        -7.0126   53.2972   25.6461 C.ar      1 UNK         0.0000 
     24 C24        -6.6765   52.3893   26.6478 C.ar      1 UNK         0.0000 
     25 C25        -5.3373   52.0858   26.8831 C.ar      1 UNK         0.0000 
     26 C26         0.5280   51.2190   22.7507 C.ar      1 UNK         0.0000 
     27 C27         1.0738   49.9296   22.6969 C.ar      1 UNK         0.0000 
     28 C28         2.3043   49.7106   22.0794 C.ar      1 UNK         0.0000 
     29 C29         3.0098   50.7800   21.5335 C.ar      1 UNK         0.0000 
     30 C30         2.4960   52.0826   21.6154 C.ar      1 UNK         0.0000 
     31 C31         1.2423   52.2905   22.1972 C.ar      1 UNK         0.0000 
     32 N32         3.1850   53.1851   21.0863 N.am      1 UNK         0.0000 
     33 C33         4.5186   53.3838   21.1569 C.2       1 UNK         0.0000 
     34 O34         5.2711   52.7146   21.8693 O.2       1 UNK         0.0000 
     35 C35         5.0700   54.4875   20.2841 C.ar      1 UNK         0.0000 
     36 C36         4.5412   54.7068   19.0006 C.ar      1 UNK         0.0000 
     37 C37         5.0606   55.7016   18.1734 C.ar      1 UNK         0.0000 
     38 C38         6.1248   56.4877   18.6115 C.ar      1 UNK         0.0000 
     39 C39         6.6641   56.2785   19.8797 C.ar      1 UNK         0.0000 
     40 C40         6.1399   55.2958   20.7201 C.ar      1 UNK         0.0000 
     41 F41         6.6864   55.1424   21.9511 F         1 UNK         0.0000 
     42 H42         0.7042   55.7882   31.1783 H         1 UNK         0.0000 
     43 H43        -0.2208   53.5592   31.7292 H         1 UNK         0.0000 
     44 H44         0.0325   51.6970   30.1421 H         1 UNK         0.0000 
     45 H45         2.2285   54.2751   27.4800 H         1 UNK         0.0000 
     46 H46         1.9367   56.1496   29.0667 H         1 UNK         0.0000 
     47 H47         2.3266   51.7944   27.2811 H         1 UNK         0.0000 
     48 H48         1.3501   50.7698   28.2893 H         1 UNK         0.0000 
     49 H49        -0.5078   51.0630   26.9118 H         1 UNK         0.0000 
     50 H50        -2.8000   51.6942   27.2464 H         1 UNK         0.0000 
     51 H51        -2.3729   53.2906   26.6943 H         1 UNK         0.0000 
     52 H52        -3.9132   54.0838   24.5215 H         1 UNK         0.0000 
     53 H53        -6.2955   54.5952   24.0946 H         1 UNK         0.0000 
     54 H54        -8.0516   53.5276   25.4554 H         1 UNK         0.0000 
     55 H55        -7.4532   51.9174   27.2340 H         1 UNK         0.0000 
     56 H56        -5.0801   51.3737   27.6547 H         1 UNK         0.0000 
     57 H57         0.5450   49.0851   23.1183 H         1 UNK         0.0000 
     58 H58         2.7083   48.7097   22.0256 H         1 UNK         0.0000 
     59 H59         3.9564   50.5907   21.0472 H         1 UNK         0.0000 
     60 H60         0.8361   53.2905   22.2473 H         1 UNK         0.0000 
     61 H61         2.6248   53.8902   20.6211 H         1 UNK         0.0000 
     62 H62         3.7325   54.0955   18.6202 H         1 UNK         0.0000 
     63 H63         4.6488   55.8544   17.1867 H         1 UNK         0.0000 
     64 H64         6.5337   57.2525   17.9653 H         1 UNK         0.0000 
     65 H65         7.5019   56.8731   20.2069 H         1 UNK         0.0000 
@<TRIPOS>BOND
     1    1    6 ar   
     2    1    2 ar   
     3    1   42 1    
     4    2    3 ar   
     5    2   43 1    
     6    3    4 ar   
     7    3   44 1    
     8    4    5 ar   
     9    4    7 1    
    10    5    6 ar   
    11    5   45 1    
    12    6   46 1    
    13    7    8 1    
    14    7   47 1    
    15    7   48 1    
    16    8    9 am   BACKBONE|DICT|INTERRES
    17    8   49 1    
    18    9   10 2    
    19    9   11 1    
    20   11   12 1    
    21   11   18 1    
    22   11   13 1    
    23   13   14 1    
    24   13   15 1    
    25   13   26 1    
    26   15   16 1    
    27   16   17 2    
    28   16   18 am   BACKBONE|DICT|INTERRES
    29   18   19 1    
    30   19   20 1    
    31   19   50 1    
    32   19   51 1    
    33   20   25 ar   
    34   20   21 ar   
    35   21   22 ar   
    36   21   52 1    
    37   22   23 ar   
    38   22   53 1    
    39   23   24 ar   
    40   23   54 1    
    41   24   25 ar   
    42   24   55 1    
    43   25   56 1    
    44   26   31 ar   
    45   26   27 ar   
    46   27   28 ar   
    47   27   57 1    
    48   28   29 ar   
    49   28   58 1    
    50   29   30 ar   
    51   29   59 1    
    52   30   31 ar   
    53   30   32 1    
    54   31   60 1    
    55   32   33 am   BACKBONE|DICT|INTERRES
    56   32   61 1    
    57   33   34 2    
    58   33   35 1    
    59   35   40 ar   
    60   35   36 ar   
    61   36   37 ar   
    62   36   62 1    
    63   37   38 ar   
    64   37   63 1    
    65   38   39 ar   
    66   38   64 1    
    67   39   40 ar   
    68   39   65 1    
    69   40   41 1    
@<TRIPOS>SUBSTRUCTURE
     1 UNK         1 GROUP             0       ****    0 ROOT    
