ZINC52342156_1866
                    3D
 Schrodinger Suite 2024-2.
 43 45  0  0  1  0            999 V2000
    3.5082   55.1796   25.6521 C   0  0  0  0  0  0
    4.3544   53.9182   25.4611 C   0  0  1  0  0  0
    3.7076   53.0641   25.2978 H   0  0  0  0  0  0
    5.2396   53.9506   24.1505 C   0  0  0  0  0  0
    4.3199   53.9891   22.8953 C   0  0  0  0  0  0
    5.0872   53.8496   21.5724 C   0  0  0  0  0  0
    6.1752   54.9304   21.4454 C   0  0  0  0  0  0
    7.1025   54.9806   22.6762 C   0  0  0  0  0  0
    6.3325   55.0576   24.0147 C   0  0  0  0  0  0
    5.0167   53.6536   26.7508 N   0  0  0  0  0  0
    4.4738   53.3036   27.9968 C   0  0  0  0  0  0
    5.4528   53.3186   28.8690 N   0  0  0  0  0  0
    6.6152   53.6695   28.1996 N   0  0  0  0  0  0
    6.3355   53.8621   26.8737 N   0  0  0  0  0  0
    3.0420   52.9693   28.4196 C   0  0  0  0  0  0
    1.9896   52.7170   27.5202 C   0  0  0  0  0  0
    0.7103   52.3797   27.9677 C   0  0  0  0  0  0
    0.4380   52.3097   29.3278 C   0  0  0  0  0  0
    1.4478   52.5646   30.2486 C   0  0  0  0  0  0
    2.7371   52.8758   29.7972 C   0  0  0  0  0  0
    1.1461   52.4962   31.6102 N   0  0  0  0  0  0
   -0.3000   52.0915   27.0538 N   0  0  0  0  0  0
    2.7839   55.2959   24.8483 H   0  0  0  0  0  0
    2.9819   55.1575   26.6046 H   0  0  0  0  0  0
    4.1585   56.0500   25.6819 H   0  0  0  0  0  0
    5.7811   53.0085   24.0823 H   0  0  0  0  0  0
    3.7194   54.8967   22.8770 H   0  0  0  0  0  0
    3.5902   53.1814   22.9502 H   0  0  0  0  0  0
    4.3946   53.9271   20.7323 H   0  0  0  0  0  0
    5.5192   52.8516   21.5100 H   0  0  0  0  0  0
    5.7036   55.9024   21.2994 H   0  0  0  0  0  0
    6.7643   54.7614   20.5436 H   0  0  0  0  0  0
    7.7721   55.8353   22.5816 H   0  0  0  0  0  0
    7.7394   54.0963   22.6877 H   0  0  0  0  0  0
    7.0571   55.0135   24.8232 H   0  0  0  0  0  0
    5.9043   56.0468   24.1240 H   0  0  0  0  0  0
    2.1314   52.7470   26.4600 H   0  0  0  0  0  0
   -0.5532   52.0489   29.6680 H   0  0  0  0  0  0
    3.5112   53.0490   30.5287 H   0  0  0  0  0  0
    1.8861   52.4954   32.2971 H   0  0  0  0  0  0
    0.2035   52.2342   31.8952 H   0  0  0  0  0  0
   -1.0623   51.5373   27.4174 H   0  0  0  0  0  0
   -0.0241   51.9359   26.0953 H   0  0  0  0  0  0
  1  2  1  0  0  0
  1 23  1  0  0  0
  1 24  1  0  0  0
  1 25  1  0  0  0
  2  3  1  0  0  0
  2  4  1  0  0  0
  2 10  1  0  0  0
  4  9  1  0  0  0
  4  5  1  0  0  0
  4 26  1  0  0  0
  5  6  1  0  0  0
  5 27  1  0  0  0
  5 28  1  0  0  0
  6  7  1  0  0  0
  6 29  1  0  0  0
  6 30  1  0  0  0
  7  8  1  0  0  0
  7 31  1  0  0  0
  7 32  1  0  0  0
  8  9  1  0  0  0
  8 33  1  0  0  0
  8 34  1  0  0  0
  9 35  1  0  0  0
  9 36  1  0  0  0
 10 14  1  0  0  0
 10 11  1  0  0  0
 11 12  2  0  0  0
 11 15  1  0  0  0
 12 13  1  0  0  0
 13 14  2  0  0  0
 15 20  2  0  0  0
 15 16  1  0  0  0
 16 17  2  0  0  0
 16 37  1  0  0  0
 17 18  1  0  0  0
 17 22  1  0  0  0
 18 19  2  0  0  0
 18 38  1  0  0  0
 19 20  1  0  0  0
 19 21  1  0  0  0
 20 39  1  0  0  0
 21 40  1  0  0  0
 21 41  1  0  0  0
 22 42  1  0  0  0
 22 43  1  0  0  0
M  END
> <i_i_glide_confnum>
21

> <i_i_glide_lignum>
1867

> <i_i_glide_posenum>
52

> <i_i_glide_rotatable_bonds>
3

> <i_m_Source_File_Index>
5709

> <b_m_subgroup_collapsed>
0

> <r_i_docking_score>
-5.85246

> <r_i_glide_ecoul>
-2.38442

> <r_i_glide_eff_state_penalty>
0

> <r_i_glide_einternal>
5.9603

> <r_i_glide_emodel>
-43.1085

> <r_i_glide_energy>
-33.1263

> <r_i_glide_erotb>
0.664266

> <r_i_glide_esite>
-0.103355

> <r_i_glide_evdw>
-30.7418

> <r_i_glide_gscore>
-5.85246

> <r_i_glide_hbond>
-0.0704202

> <r_i_glide_ligand_efficiency>
-0.278689

> <r_i_glide_ligand_efficiency_ln>
-1.44701

> <r_i_glide_ligand_efficiency_sa>
-0.768881

> <r_i_glide_lipo>
-2.35316

> <r_i_glide_metal>
0

> <r_i_glide_rewards>
-2.09503

> <s_i_glide_gridfile>
wee1_glide-grid

> <s_m_Source_File>
wee1_decoys_glide_SP.sdf

> <s_m_Source_Path>
/Users/zhangxujun/Desktop

> <s_m_entry_id>
5984

> <s_m_entry_name>
wee1_decoys_glide_SP.5709

> <s_m_subgroup_title>
wee1_decoys_glide_SP

> <s_m_subgroupid>
wee1_decoys_glide_SP


$$$$
