@<TRIPOS>MOLECULE
ZINC13572280_4603
41   42    1
SMALL
USER_CHARGES


@<TRIPOS>ATOM
      1 C1          2.0181   52.3294   31.4251 C.3       1 UNK         0.0000 
      2 N2          1.4529   53.2349   30.4256 N.pl3     1 UNK         0.0000 
      3 C3          0.0061   53.1048   30.2577 C.3       1 UNK         0.0000 
      4 C4          2.2553   53.5414   29.2984 C.ar      1 UNK         0.0000 
      5 C5          3.5469   54.0410   29.4933 C.ar      1 UNK         0.0000 
      6 C6          4.3639   54.3590   28.4164 C.ar      1 UNK         0.0000 
      7 C7          3.9246   54.1491   27.1033 C.ar      1 UNK         0.0000 
      8 C8          2.6208   53.6920   26.9019 C.ar      1 UNK         0.0000 
      9 C9          1.7924   53.3948   27.9831 C.ar      1 UNK         0.0000 
     10 N10         4.7178   54.3601   25.9582 N.pl3     1 UNK         0.0000 
     11 C11         6.1275   54.4240   25.7314 C.2       1 UNK         0.0000 
     12 N12         6.9304   54.3224   26.8804 N.pl3     1 UNK         0.0000 
     13 N13         6.7005   54.5087   24.5980 N.2       1 UNK         0.0000 
     14 C14         6.0760   54.4975   23.3362 C.ar      1 UNK         0.0000 
     15 N15         6.7045   55.2443   22.3899 N.ar      1 UNK         0.0000 
     16 C16         6.2133   55.1864   21.1199 C.ar      1 UNK         0.0000 
     17 C17         5.1049   54.3961   20.7900 C.ar      1 UNK         0.0000 
     18 C18         4.5192   53.6530   21.8207 C.ar      1 UNK         0.0000 
     19 N19         4.9964   53.6968   23.0954 N.ar      1 UNK         0.0000 
     20 C20         3.3265   52.7293   21.5758 C.3       1 UNK         0.0000 
     21 F21         2.8083   52.8958   20.3592 F         1 UNK         0.0000 
     22 F22         3.7187   51.4597   21.6814 F         1 UNK         0.0000 
     23 F23         2.3668   52.9608   22.4745 F         1 UNK         0.0000 
     24 C24         6.9586   56.0038   20.0691 C.3       1 UNK         0.0000 
     25 F25         6.7044   57.2966   20.2649 F         1 UNK         0.0000 
     26 F26         8.2744   55.8028   20.1654 F         1 UNK         0.0000 
     27 F27         6.5808   55.6868   18.8296 F         1 UNK         0.0000 
     28 H28         1.4992   52.4416   32.3779 H         1 UNK         0.0000 
     29 H29         3.0779   52.4971   31.6128 H         1 UNK         0.0000 
     30 H30         1.9045   51.2969   31.1009 H         1 UNK         0.0000 
     31 H31        -0.4949   53.1034   31.2277 H         1 UNK         0.0000 
     32 H32        -0.3985   53.9329   29.6740 H         1 UNK         0.0000 
     33 H33        -0.2459   52.1761   29.7424 H         1 UNK         0.0000 
     34 H34         3.9344   54.2102   30.4823 H         1 UNK         0.0000 
     35 H35         5.3287   54.7808   28.6412 H         1 UNK         0.0000 
     36 H36         2.2488   53.5353   25.8996 H         1 UNK         0.0000 
     37 H37         0.8000   53.0203   27.7835 H         1 UNK         0.0000 
     38 H38         4.1838   54.2941   25.1054 H         1 UNK         0.0000 
     39 H39         7.9018   54.0938   26.7530 H         1 UNK         0.0000 
     40 H40         4.7257   54.3483   19.7778 H         1 UNK         0.0000 
     41 H41         6.5393   53.8435   27.6765 H         1 UNK         0.0000 
@<TRIPOS>BOND
     1    1    2 1    
     2    1   28 1    
     3    1   29 1    
     4    1   30 1    
     5    2    3 1    
     6    2    4 1    
     7    3   31 1    
     8    3   32 1    
     9    3   33 1    
    10    4    9 ar   
    11    4    5 ar   
    12    5    6 ar   
    13    5   34 1    
    14    6    7 ar   
    15    6   35 1    
    16    7    8 ar   
    17    7   10 1    
    18    8    9 ar   
    19    8   36 1    
    20    9   37 1    
    21   10   11 1    
    22   10   38 1    
    23   11   12 1    
    24   11   13 2    
    25   12   39 1    
    26   12   41 1    
    27   13   14 1    
    28   14   19 ar   
    29   14   15 ar   
    30   15   16 ar   
    31   16   17 ar   
    32   16   24 1    
    33   17   18 ar   
    34   17   40 1    
    35   18   19 ar   
    36   18   20 1    
    37   20   21 1    
    38   20   22 1    
    39   20   23 1    
    40   24   25 1    
    41   24   26 1    
    42   24   27 1    
@<TRIPOS>SUBSTRUCTURE
     1 UNK         1 GROUP             0       ****    0 ROOT    
