@<TRIPOS>MOLECULE
ZINC07738543_2661
51   55    1
SMALL
USER_CHARGES


@<TRIPOS>ATOM
      1 C1         -7.2953   53.2868   28.0302 C.3       1 UNK         0.0000 
      2 C2         -6.6857   52.1869   28.9067 C.2       1 UNK         0.0000 
      3 O3         -6.4753   52.4907   30.0848 O.2       1 UNK         0.0000 
      4 N4         -6.3842   50.9680   28.3574 N.am      1 UNK         0.0000 
      5 C5         -6.4138   50.8069   26.8864 C.3       1 UNK         0.0000 
      6 C6         -5.0513   50.2034   26.4472 C.3       1 UNK         0.0000 
      7 H7         -5.1027   49.9657   25.3842 H         1 UNK         0.0000 
      8 O8         -4.6888   49.0025   27.1445 O.3       1 UNK         0.0000 
      9 C9         -5.0439   48.9331   28.4775 C.ar      1 UNK         0.0000 
     10 C10        -5.8762   49.8763   29.1157 C.ar      1 UNK         0.0000 
     11 C11        -6.2741   49.6044   30.4384 C.ar      1 UNK         0.0000 
     12 C12        -5.8000   48.4794   31.1127 C.ar      1 UNK         0.0000 
     13 C13        -4.9304   47.5947   30.4763 C.ar      1 UNK         0.0000 
     14 C14        -4.5577   47.8183   29.1562 C.ar      1 UNK         0.0000 
     15 C15        -3.8770   51.2152   26.4925 C.2       1 UNK         0.0000 
     16 O16        -4.0282   52.3203   25.9638 O.2       1 UNK         0.0000 
     17 N17        -2.7241   50.8287   27.0808 N.am      1 UNK         0.0000 
     18 C18        -1.4943   51.4919   26.9943 C.ar      1 UNK         0.0000 
     19 C19        -0.9997   51.9361   25.7646 C.ar      1 UNK         0.0000 
     20 C20         0.2696   52.4963   25.6927 C.ar      1 UNK         0.0000 
     21 C21         1.0503   52.6432   26.8459 C.ar      1 UNK         0.0000 
     22 C22         0.5445   52.1961   28.0742 C.ar      1 UNK         0.0000 
     23 C23        -0.7185   51.6122   28.1462 C.ar      1 UNK         0.0000 
     24 C24         2.4151   53.2537   26.7382 C.ar      1 UNK         0.0000 
     25 N25         3.3152   53.3108   27.7814 N.pl3     1 UNK         0.0000 
     26 H26         3.1145   52.9731   28.7091 H         1 UNK         0.0000 
     27 C27         4.4877   53.8359   27.2946 C.ar      1 UNK         0.0000 
     28 C28         5.7367   54.0970   27.8598 C.ar      1 UNK         0.0000 
     29 C29         6.7041   54.6310   27.0074 C.ar      1 UNK         0.0000 
     30 C30         6.4456   54.8994   25.6607 C.ar      1 UNK         0.0000 
     31 C31         5.1933   54.6388   25.1033 C.ar      1 UNK         0.0000 
     32 C32         4.2016   54.0966   25.9327 C.ar      1 UNK         0.0000 
     33 N33         2.9170   53.7406   25.6247 N.2       1 UNK         0.0000 
     34 H34        -6.5440   53.7025   27.3581 H         1 UNK         0.0000 
     35 H35        -8.1342   52.9080   27.4465 H         1 UNK         0.0000 
     36 H36        -7.6775   54.0954   28.6508 H         1 UNK         0.0000 
     37 H37        -6.6618   51.6887   26.2968 H         1 UNK         0.0000 
     38 H38        -7.1387   50.0235   26.6617 H         1 UNK         0.0000 
     39 H39        -6.9615   50.2538   30.9587 H         1 UNK         0.0000 
     40 H40        -6.1032   48.2983   32.1338 H         1 UNK         0.0000 
     41 H41        -4.5500   46.7329   31.0014 H         1 UNK         0.0000 
     42 H42        -3.8871   47.1324   28.6583 H         1 UNK         0.0000 
     43 H43        -2.7225   49.9681   27.6229 H         1 UNK         0.0000 
     44 H44        -1.5818   51.8231   24.8615 H         1 UNK         0.0000 
     45 H45         0.6408   52.8215   24.7317 H         1 UNK         0.0000 
     46 H46         1.1263   52.2819   28.9787 H         1 UNK         0.0000 
     47 H47        -1.0870   51.2413   29.0931 H         1 UNK         0.0000 
     48 H48         5.9565   53.8950   28.8960 H         1 UNK         0.0000 
     49 H49         7.6795   54.8409   27.4194 H         1 UNK         0.0000 
     50 H50         7.2240   55.3087   25.0315 H         1 UNK         0.0000 
     51 H51         4.9954   54.8386   24.0605 H         1 UNK         0.0000 
@<TRIPOS>BOND
     1    1    2 1    
     2    1   34 1    
     3    1   35 1    
     4    1   36 1    
     5    2    3 2    
     6    2    4 am   BACKBONE|DICT|INTERRES
     7    4   10 1    
     8    4    5 1    
     9    5    6 1    
    10    5   37 1    
    11    5   38 1    
    12    6    7 1    
    13    6    8 1    
    14    6   15 1    
    15    8    9 1    
    16    9   14 ar   
    17    9   10 ar   
    18   10   11 ar   
    19   11   12 ar   
    20   11   39 1    
    21   12   13 ar   
    22   12   40 1    
    23   13   14 ar   
    24   13   41 1    
    25   14   42 1    
    26   15   16 2    
    27   15   17 am   BACKBONE|DICT|INTERRES
    28   17   18 1    
    29   17   43 1    
    30   18   23 ar   
    31   18   19 ar   
    32   19   20 ar   
    33   19   44 1    
    34   20   21 ar   
    35   20   45 1    
    36   21   22 ar   
    37   21   24 1    
    38   22   23 ar   
    39   22   46 1    
    40   23   47 1    
    41   24   33 ar   
    42   24   25 ar   
    43   25   26 1    
    44   25   27 ar   
    45   27   32 ar   
    46   27   28 ar   
    47   28   29 ar   
    48   28   48 1    
    49   29   30 ar   
    50   29   49 1    
    51   30   31 ar   
    52   30   50 1    
    53   31   32 ar   
    54   31   51 1    
    55   32   33 ar   
@<TRIPOS>SUBSTRUCTURE
     1 UNK         1 GROUP             0       ****    0 ROOT    
