ZINC08822617_4212
                    3D
 Schrodinger Suite 2024-2.
 45 48  0  0  1  0            999 V2000
    2.1386   55.0019   28.8790 C   0  0  0  0  0  0
    1.4524   55.1001   30.0813 C   0  0  0  0  0  0
    0.7475   53.9986   30.5613 C   0  0  0  0  0  0
    0.6793   52.8154   29.8341 C   0  0  0  0  0  0
    1.3507   52.7217   28.6199 C   0  0  0  0  0  0
    2.1007   53.8078   28.1473 C   0  0  0  0  0  0
    2.8177   53.6969   26.8307 C   0  0  0  0  0  0
    2.2919   53.0706   25.9101 O   0  0  0  0  0  0
    4.0397   54.2774   26.7899 N   0  0  0  0  0  0
    4.8627   54.3973   25.6825 C   0  0  0  0  0  0
    6.0938   54.8387   25.7612 N   0  0  0  0  0  0
    6.6892   54.9870   24.5119 N   0  0  0  0  0  0
    5.8944   54.6726   23.5158 C   0  0  0  0  0  0
    4.3417   54.0996   24.0504 S   0  0  0  0  0  0
    6.3049   54.8970   21.8088 S   0  0  0  0  0  0
    4.7579   54.4168   20.9380 C   0  0  0  0  0  0
    4.4088   52.9229   20.8949 C   0  0  0  0  0  0
    5.1044   52.0960   21.4835 O   0  0  0  0  0  0
    3.2812   52.6166   20.2232 N   0  0  0  0  0  0
    2.6935   51.3478   20.1204 C   0  0  0  0  0  0
    2.6459   50.4448   21.1974 C   0  0  0  0  0  0
    2.0541   49.1922   21.0424 C   0  0  0  0  0  0
    1.5003   48.8366   19.8141 C   0  0  0  0  0  0
    1.5279   49.7455   18.7445 C   0  0  0  0  0  0
    2.1062   51.0028   18.9011 C   0  0  0  0  0  0
    0.9598   49.4505   17.5213 O   0  0  0  0  0  0
    0.8911   48.0456   17.2641 C   0  0  0  0  0  0
    0.2615   47.3217   18.4800 C   0  0  0  0  0  0
    1.0149   47.5493   19.6800 O   0  0  0  0  0  0
   -0.0852   54.0961   32.2606 Br  0  0  0  0  0  0
    2.6834   55.8644   28.5209 H   0  0  0  0  0  0
    1.4875   56.0146   30.6570 H   0  0  0  0  0  0
    0.1184   51.9724   30.2152 H   0  0  0  0  0  0
    1.2939   51.7998   28.0584 H   0  0  0  0  0  0
    4.4360   54.5750   27.6670 H   0  0  0  0  0  0
    4.8445   54.7688   19.9109 H   0  0  0  0  0  0
    3.9101   54.9286   21.3859 H   0  0  0  0  0  0
    2.8419   53.3491   19.6832 H   0  0  0  0  0  0
    3.0755   50.7029   22.1543 H   0  0  0  0  0  0
    2.0564   48.4969   21.8672 H   0  0  0  0  0  0
    2.1273   51.6848   18.0636 H   0  0  0  0  0  0
    0.3096   47.8706   16.3574 H   0  0  0  0  0  0
    1.8998   47.6628   17.0927 H   0  0  0  0  0  0
   -0.7578   47.6852   18.6259 H   0  0  0  0  0  0
    0.2057   46.2490   18.2901 H   0  0  0  0  0  0
  1  6  2  0  0  0
  1  2  1  0  0  0
  1 31  1  0  0  0
  2  3  2  0  0  0
  2 32  1  0  0  0
  3  4  1  0  0  0
  3 30  1  0  0  0
  4  5  2  0  0  0
  4 33  1  0  0  0
  5  6  1  0  0  0
  5 34  1  0  0  0
  6  7  1  0  0  0
  7  8  2  0  0  0
  7  9  1  0  0  0
  9 10  1  0  0  0
  9 35  1  0  0  0
 10 14  1  0  0  0
 10 11  2  0  0  0
 11 12  1  0  0  0
 12 13  2  0  0  0
 13 14  1  0  0  0
 13 15  1  0  0  0
 15 16  1  0  0  0
 16 17  1  0  0  0
 16 36  1  0  0  0
 16 37  1  0  0  0
 17 18  2  0  0  0
 17 19  1  0  0  0
 19 20  1  0  0  0
 19 38  1  0  0  0
 20 25  2  0  0  0
 20 21  1  0  0  0
 21 22  2  0  0  0
 21 39  1  0  0  0
 22 23  1  0  0  0
 22 40  1  0  0  0
 23 29  1  0  0  0
 23 24  2  0  0  0
 24 25  1  0  0  0
 24 26  1  0  0  0
 25 41  1  0  0  0
 26 27  1  0  0  0
 27 28  1  0  0  0
 27 42  1  0  0  0
 27 43  1  0  0  0
 28 29  1  0  0  0
 28 44  1  0  0  0
 28 45  1  0  0  0
M  END
> <i_i_glide_confnum>
150

> <i_i_glide_lignum>
4213

> <i_i_glide_posenum>
40

> <i_i_glide_rotatable_bonds>
8

> <i_m_Source_File_Index>
318

> <b_m_subgroup_collapsed>
0

> <r_i_docking_score>
-5.18772

> <r_i_glide_ecoul>
-3.63215

> <r_i_glide_eff_state_penalty>
0

> <r_i_glide_einternal>
3.76301

> <r_i_glide_emodel>
-68.5504

> <r_i_glide_energy>
-53.0835

> <r_i_glide_erotb>
0.556501

> <r_i_glide_esite>
-0.00589434

> <r_i_glide_evdw>
-49.4513

> <r_i_glide_gscore>
-5.18772

> <r_i_glide_hbond>
-0.0102102

> <r_i_glide_ligand_efficiency>
-0.172924

> <r_i_glide_ligand_efficiency_ln>
-1.17871

> <r_i_glide_ligand_efficiency_sa>
-0.537316

> <r_i_glide_lipo>
-2.4813

> <r_i_glide_metal>
0

> <r_i_glide_rewards>
-0.229434

> <s_i_glide_gridfile>
wee1_glide-grid

> <s_m_Source_File>
wee1_decoys_glide_SP.sdf

> <s_m_Source_Path>
/Users/zhangxujun/Desktop

> <s_m_entry_id>
593

> <s_m_entry_name>
wee1_decoys_glide_SP.318

> <s_m_subgroup_title>
wee1_decoys_glide_SP

> <s_m_subgroupid>
wee1_decoys_glide_SP


$$$$
