@<TRIPOS>MOLECULE
ZINC35701875_4631
63   66    1
SMALL
USER_CHARGES


@<TRIPOS>ATOM
      1 C1          3.3564   53.7850   26.4178 C.3       1 UNK         0.0000 
      2 C2          3.5261   53.7600   24.8988 C.2       1 UNK         0.0000 
      3 C3          2.5607   53.5538   23.9530 C.2       1 UNK         0.0000 
      4 C4          2.8861   53.6997   22.4287 C.3       1 UNK         0.0000 
      5 H5          2.3115   54.5588   22.0799 H         1 UNK         0.0000 
      6 N6          4.3207   54.0965   22.2376 N.pl3     1 UNK         0.0000 
      7 C7          4.9299   54.4634   21.0322 C.2       1 UNK         0.0000 
      8 C8          6.1838   54.9092   21.2276 C.2       1 UNK         0.0000 
      9 S9          6.7037   54.8815   22.8994 S.3       1 UNK         0.0000 
     10 C10         5.1239   54.2665   23.3683 C.2       1 UNK         0.0000 
     11 N11         4.8078   54.0985   24.5902 N.2       1 UNK         0.0000 
     12 C12         4.3040   54.4720   19.7090 C.2       1 UNK         0.0000 
     13 C13         4.5280   55.3518   18.7097 C.2       1 UNK         0.0000 
     14 O14         5.3341   56.3541   18.6635 O.co2     1 UNK         0.0000 
     15 N15         3.8094   55.2702   17.5367 N.pl3     1 UNK         0.0000 
     16 C16         4.2245   55.6017   16.1712 C.3       1 UNK         0.0000 
     17 C17         4.8103   54.4244   15.3680 C.3       1 UNK         0.0000 
     18 H18         5.0306   54.7562   14.3511 H         1 UNK         0.0000 
     19 C19         6.0710   53.7792   15.9486 C.3       1 UNK         0.0000 
     20 C20         5.9613   52.3618   15.4473 C.3       1 UNK         0.0000 
     21 C21         4.4610   52.0998   15.5704 C.3       1 UNK         0.0000 
     22 O22         3.8510   53.3647   15.3084 O.3       1 UNK         0.0000 
     23 C23         2.4496   52.5048   21.5527 C.ar      1 UNK         0.0000 
     24 C24         3.3456   51.4966   21.1834 C.ar      1 UNK         0.0000 
     25 C25         2.9363   50.4887   20.3151 C.ar      1 UNK         0.0000 
     26 C26         1.6209   50.4300   19.8514 C.ar      1 UNK         0.0000 
     27 C27         0.7224   51.4283   20.2267 C.ar      1 UNK         0.0000 
     28 C28         1.1422   52.4623   21.0559 C.ar      1 UNK         0.0000 
     29 C29         1.1618   49.2965   18.9342 C.3       1 UNK         0.0000 
     30 F30        -0.0106   48.8176   19.3554 F         1 UNK         0.0000 
     31 F31         1.0092   49.7624   17.6946 F         1 UNK         0.0000 
     32 F32         2.0272   48.2803   18.9048 F         1 UNK         0.0000 
     33 C33         1.1841   53.1987   24.3083 C.2       1 UNK         0.0000 
     34 O34         0.2144   53.6870   23.7307 O.2       1 UNK         0.0000 
     35 O35         1.1001   52.2467   25.2720 O.3       1 UNK         0.0000 
     36 C36        -0.1458   51.6996   25.6946 C.3       1 UNK         0.0000 
     37 C37        -0.6188   50.6153   24.7082 C.3       1 UNK         0.0000 
     38 C38         0.0572   51.1347   27.1077 C.3       1 UNK         0.0000 
     39 H39         3.7947   52.8909   26.8602 H         1 UNK         0.0000 
     40 H40         3.8545   54.6529   26.8531 H         1 UNK         0.0000 
     41 H41         2.3166   53.8477   26.7339 H         1 UNK         0.0000 
     42 H42         6.8541   55.2724   20.4624 H         1 UNK         0.0000 
     43 H43         3.5759   53.7024   19.5085 H         1 UNK         0.0000 
     44 H44         3.0708   54.5845   17.5313 H         1 UNK         0.0000 
     45 H45         4.9239   56.4386   16.1734 H         1 UNK         0.0000 
     46 H46         3.3441   55.9752   15.6481 H         1 UNK         0.0000 
     47 H47         6.0542   53.7940   17.0395 H         1 UNK         0.0000 
     48 H48         6.9825   54.3055   15.6645 H         1 UNK         0.0000 
     49 H49         6.5627   51.6679   16.0354 H         1 UNK         0.0000 
     50 H50         6.2793   52.2898   14.4055 H         1 UNK         0.0000 
     51 H51         4.2055   51.7844   16.5836 H         1 UNK         0.0000 
     52 H52         4.1309   51.3394   14.8628 H         1 UNK         0.0000 
     53 H53         4.3703   51.5173   21.5245 H         1 UNK         0.0000 
     54 H54         3.6476   49.7581   19.9765 H         1 UNK         0.0000 
     55 H55        -0.2930   51.4163   19.8583 H         1 UNK         0.0000 
     56 H56         0.4480   53.2525   21.2894 H         1 UNK         0.0000 
     57 H57        -0.8956   52.4909   25.7530 H         1 UNK         0.0000 
     58 H58        -1.5686   50.1856   25.0253 H         1 UNK         0.0000 
     59 H59        -0.7585   51.0209   23.7064 H         1 UNK         0.0000 
     60 H60         0.1055   49.8020   24.6387 H         1 UNK         0.0000 
     61 H61        -0.8647   50.6992   27.4940 H         1 UNK         0.0000 
     62 H62         0.8196   50.3554   27.1231 H         1 UNK         0.0000 
     63 H63         0.3670   51.9142   27.8037 H         1 UNK         0.0000 
@<TRIPOS>BOND
     1    1    2 1    
     2    1   39 1    
     3    1   40 1    
     4    1   41 1    
     5    2   11 1    
     6    2    3 2    
     7    3    4 1    
     8    3   33 1    
     9    4    5 1    
    10    4    6 1    
    11    4   23 1    
    12    6   10 1    
    13    6    7 1    
    14    7    8 2    
    15    7   12 1    
    16    8    9 1    
    17    8   42 1    
    18    9   10 1    
    19   10   11 2    
    20   12   13 2    
    21   12   43 1    
    22   13   14 1    
    23   13   15 1    
    24   15   16 1    
    25   15   44 1    
    26   16   17 1    
    27   16   45 1    
    28   16   46 1    
    29   17   18 1    
    30   17   22 1    
    31   17   19 1    
    32   19   20 1    
    33   19   47 1    
    34   19   48 1    
    35   20   21 1    
    36   20   49 1    
    37   20   50 1    
    38   21   22 1    
    39   21   51 1    
    40   21   52 1    
    41   23   28 ar   
    42   23   24 ar   
    43   24   25 ar   
    44   24   53 1    
    45   25   26 ar   
    46   25   54 1    
    47   26   27 ar   
    48   26   29 1    
    49   27   28 ar   
    50   27   55 1    
    51   28   56 1    
    52   29   30 1    
    53   29   31 1    
    54   29   32 1    
    55   33   34 2    
    56   33   35 1    
    57   35   36 1    
    58   36   37 1    
    59   36   38 1    
    60   36   57 1    
    61   37   58 1    
    62   37   59 1    
    63   37   60 1    
    64   38   61 1    
    65   38   62 1    
    66   38   63 1    
@<TRIPOS>SUBSTRUCTURE
     1 UNK         1 GROUP             0       ****    0 ROOT    
