@<TRIPOS>MOLECULE
ZINC17304830_2713
53   56    1
SMALL
USER_CHARGES


@<TRIPOS>ATOM
      1 C1         10.9742   54.0695   17.5391 C.3       1 UNK         0.0000 
      2 C2          9.4706   53.8757   17.5376 C.ar      1 UNK         0.0000 
      3 C3          8.9164   52.7784   16.8813 C.ar      1 UNK         0.0000 
      4 C4          7.5378   52.5913   16.8825 C.ar      1 UNK         0.0000 
      5 C5          6.6925   53.4972   17.5325 C.ar      1 UNK         0.0000 
      6 C6          7.2492   54.6019   18.2114 C.ar      1 UNK         0.0000 
      7 C7          8.6403   54.7755   18.2137 C.ar      1 UNK         0.0000 
      8 S8          6.2184   55.8250   19.0400 S.o2      1 UNK         0.0000 
      9 O9          5.3393   56.4015   18.0193 O.2       1 UNK         0.0000 
     10 O10         7.0637   56.7010   19.8643 O.2       1 UNK         0.0000 
     11 N11         5.1582   54.8964   20.1178 N.pl3     1 UNK         0.0000 
     12 C12         5.3361   54.6748   21.4880 C.ar      1 UNK         0.0000 
     13 C13         4.2093   54.2457   22.1843 C.ar      1 UNK         0.0000 
     14 C14         4.2485   54.0968   23.5620 C.ar      1 UNK         0.0000 
     15 C15         5.4269   54.3614   24.2796 C.ar      1 UNK         0.0000 
     16 C16         6.5722   54.7377   23.5670 C.ar      1 UNK         0.0000 
     17 C17         6.5292   54.8966   22.1831 C.ar      1 UNK         0.0000 
     18 C18         5.4783   54.2089   25.7874 C.2       1 UNK         0.0000 
     19 O19         6.5581   54.1032   26.3765 O.2       1 UNK         0.0000 
     20 N20         4.2720   54.2180   26.3941 N.am      1 UNK         0.0000 
     21 C21         3.9074   53.7917   27.6787 C.ar      1 UNK         0.0000 
     22 C22         4.6906   52.9442   28.4821 C.ar      1 UNK         0.0000 
     23 C23         4.1804   52.4406   29.6808 C.ar      1 UNK         0.0000 
     24 C24         2.8934   52.7791   30.0823 C.ar      1 UNK         0.0000 
     25 C25         2.1281   53.6685   29.3098 C.ar      1 UNK         0.0000 
     26 C26         2.6289   54.1593   28.1075 C.ar      1 UNK         0.0000 
     27 O27         0.8476   54.0355   29.6649 O.3       1 UNK         0.0000 
     28 C28         0.5689   53.8490   31.0553 C.3       1 UNK         0.0000 
     29 C29         1.0347   52.4445   31.5080 C.3       1 UNK         0.0000 
     30 O30         2.4417   52.2696   31.2828 O.3       1 UNK         0.0000 
     31 C31         5.1922   53.2400   17.4603 C.3       1 UNK         0.0000 
     32 H32        11.4949   53.1155   17.4355 H         1 UNK         0.0000 
     33 H33        11.2793   54.7338   16.7297 H         1 UNK         0.0000 
     34 H34        11.3025   54.4951   18.4814 H         1 UNK         0.0000 
     35 H35         9.5508   52.0665   16.3713 H         1 UNK         0.0000 
     36 H36         7.1249   51.7302   16.3764 H         1 UNK         0.0000 
     37 H37         9.0800   55.6199   18.7257 H         1 UNK         0.0000 
     38 H38         4.2563   54.6624   19.7306 H         1 UNK         0.0000 
     39 H39         3.2830   54.0555   21.6581 H         1 UNK         0.0000 
     40 H40         3.3436   53.7654   24.0508 H         1 UNK         0.0000 
     41 H41         7.5042   54.9250   24.0829 H         1 UNK         0.0000 
     42 H42         7.4329   55.1900   21.6734 H         1 UNK         0.0000 
     43 H43         3.4962   54.4872   25.8130 H         1 UNK         0.0000 
     44 H44         5.6743   52.6295   28.1648 H         1 UNK         0.0000 
     45 H45         4.7789   51.7767   30.2875 H         1 UNK         0.0000 
     46 H46         2.0047   54.8051   27.5046 H         1 UNK         0.0000 
     47 H47         1.1042   54.6103   31.6249 H         1 UNK         0.0000 
     48 H48        -0.4950   53.9784   31.2412 H         1 UNK         0.0000 
     49 H49         0.8057   52.2835   32.5613 H         1 UNK         0.0000 
     50 H50         0.4809   51.6985   30.9383 H         1 UNK         0.0000 
     51 H51         4.9458   52.5010   16.6962 H         1 UNK         0.0000 
     52 H52         4.8156   52.8703   18.4145 H         1 UNK         0.0000 
     53 H53         4.6448   54.1436   17.1988 H         1 UNK         0.0000 
@<TRIPOS>BOND
     1    1    2 1    
     2    1   32 1    
     3    1   33 1    
     4    1   34 1    
     5    2    7 ar   
     6    2    3 ar   
     7    3    4 ar   
     8    3   35 1    
     9    4    5 ar   
    10    4   36 1    
    11    5    6 ar   
    12    5   31 1    
    13    6    7 ar   
    14    6    8 1    
    15    7   37 1    
    16    8    9 2    
    17    8   10 2    
    18    8   11 1    
    19   11   12 1    
    20   11   38 1    
    21   12   17 ar   
    22   12   13 ar   
    23   13   14 ar   
    24   13   39 1    
    25   14   15 ar   
    26   14   40 1    
    27   15   16 ar   
    28   15   18 1    
    29   16   17 ar   
    30   16   41 1    
    31   17   42 1    
    32   18   19 2    
    33   18   20 am   BACKBONE|DICT|INTERRES
    34   20   21 1    
    35   20   43 1    
    36   21   26 ar   
    37   21   22 ar   
    38   22   23 ar   
    39   22   44 1    
    40   23   24 ar   
    41   23   45 1    
    42   24   30 1    
    43   24   25 ar   
    44   25   26 ar   
    45   25   27 1    
    46   26   46 1    
    47   27   28 1    
    48   28   29 1    
    49   28   47 1    
    50   28   48 1    
    51   29   30 1    
    52   29   49 1    
    53   29   50 1    
    54   31   51 1    
    55   31   52 1    
    56   31   53 1    
@<TRIPOS>SUBSTRUCTURE
     1 UNK         1 GROUP             0       ****    0 ROOT    
