ZINC06296742_5474
                    3D
 Schrodinger Suite 2024-2.
 53 56  0  0  1  0            999 V2000
   -4.6517   49.0429   25.4904 C   0  0  0  0  0  0
   -4.0448   49.9440   24.5092 N   0  0  0  0  0  0
   -3.1984   49.3725   23.5332 C   0  0  0  0  0  0
   -3.1300   49.9705   22.2680 C   0  0  0  0  0  0
   -2.3728   49.3945   21.2517 C   0  0  0  0  0  0
   -1.6867   48.2069   21.4904 C   0  0  0  0  0  0
   -1.7391   47.6045   22.7454 C   0  0  0  0  0  0
   -2.4818   48.1896   23.7673 C   0  0  0  0  0  0
   -0.6984   47.3909   20.0808 Br  0  0  0  0  0  0
   -3.8289   51.6374   25.0602 S   0  0  0  0  0  0
   -5.1381   52.0999   25.5331 O   0  0  0  0  0  0
   -3.1134   52.3811   24.0147 O   0  0  0  0  0  0
   -2.7713   51.5749   26.5058 C   0  0  0  0  0  0
   -3.3031   51.1659   27.7287 C   0  0  0  0  0  0
   -2.5237   51.2205   28.8814 C   0  0  0  0  0  0
   -1.2166   51.6968   28.8200 C   0  0  0  0  0  0
   -0.6459   52.0770   27.5897 C   0  0  0  0  0  0
   -1.4353   51.9829   26.4322 C   0  0  0  0  0  0
    0.7605   52.6124   27.5008 C   0  0  0  0  0  0
    1.4271   52.8551   28.8289 C   0  0  0  0  0  0
    0.7658   52.4940   29.9637 C   0  0  0  0  0  0
   -0.4795   51.9047   29.9942 N   0  0  0  0  0  0
    2.7517   53.4697   28.9793 C   0  0  0  0  0  0
    3.2592   53.6995   30.0800 O   0  0  0  0  0  0
    3.3961   53.7763   27.8394 N   0  0  0  0  0  0
    4.7311   54.3520   27.6987 C   0  0  0  0  0  0
    5.8383   53.3945   28.1566 C   0  0  0  0  0  0
    7.0677   53.7613   27.3339 C   0  0  0  0  0  0
    6.5111   54.1562   25.9671 C   0  0  0  0  0  0
    5.0576   54.5957   26.2095 C   0  0  0  0  0  0
    1.2599   52.8593   26.3994 O   0  0  0  0  0  0
   -3.9223   48.7212   26.2365 H   0  0  0  0  0  0
   -5.4730   49.5346   26.0103 H   0  0  0  0  0  0
   -5.0634   48.1583   25.0034 H   0  0  0  0  0  0
   -3.6850   50.8727   22.0601 H   0  0  0  0  0  0
   -2.3355   49.8564   20.2759 H   0  0  0  0  0  0
   -1.2167   46.6768   22.9244 H   0  0  0  0  0  0
   -2.5077   47.7074   24.7327 H   0  0  0  0  0  0
   -4.3277   50.8291   27.7972 H   0  0  0  0  0  0
   -2.9404   50.8951   29.8232 H   0  0  0  0  0  0
   -1.0327   52.2852   25.4732 H   0  0  0  0  0  0
    1.1832   52.6391   30.9539 H   0  0  0  0  0  0
    2.9123   53.5623   26.9767 H   0  0  0  0  0  0
    4.8634   55.2955   28.2316 H   0  0  0  0  0  0
    5.5501   52.3650   27.9523 H   0  0  0  0  0  0
    6.0039   53.4585   29.2292 H   0  0  0  0  0  0
    7.7736   52.9321   27.2729 H   0  0  0  0  0  0
    7.5837   54.6058   27.7897 H   0  0  0  0  0  0
    6.5366   53.2971   25.2962 H   0  0  0  0  0  0
    7.1036   54.9408   25.4961 H   0  0  0  0  0  0
    4.8864   55.6345   25.9295 H   0  0  0  0  0  0
    4.4135   53.9986   25.5601 H   0  0  0  0  0  0
   -0.8945   51.6520   30.8880 H   0  0  0  0  0  0
  1  2  1  0  0  0
  1 32  1  0  0  0
  1 33  1  0  0  0
  1 34  1  0  0  0
  2  3  1  0  0  0
  2 10  1  0  0  0
  3  8  2  0  0  0
  3  4  1  0  0  0
  4  5  2  0  0  0
  4 35  1  0  0  0
  5  6  1  0  0  0
  5 36  1  0  0  0
  6  7  2  0  0  0
  6  9  1  0  0  0
  7  8  1  0  0  0
  7 37  1  0  0  0
  8 38  1  0  0  0
 10 11  2  0  0  0
 10 12  2  0  0  0
 10 13  1  0  0  0
 13 18  2  0  0  0
 13 14  1  0  0  0
 14 15  2  0  0  0
 14 39  1  0  0  0
 15 16  1  0  0  0
 15 40  1  0  0  0
 16 22  1  0  0  0
 16 17  2  0  0  0
 17 18  1  0  0  0
 17 19  1  0  0  0
 18 41  1  0  0  0
 19 31  2  0  0  0
 19 20  1  0  0  0
 20 23  1  0  0  0
 20 21  2  0  0  0
 21 42  1  0  0  0
 21 22  1  0  0  0
 22 53  1  0  0  0
 23 24  2  0  0  0
 23 25  1  0  0  0
 25 26  1  0  0  0
 25 43  1  0  0  0
 26 30  1  0  0  0
 26 27  1  0  0  0
 26 44  1  0  0  0
 27 28  1  0  0  0
 27 45  1  0  0  0
 27 46  1  0  0  0
 28 29  1  0  0  0
 28 47  1  0  0  0
 28 48  1  0  0  0
 29 30  1  0  0  0
 29 49  1  0  0  0
 29 50  1  0  0  0
 30 51  1  0  0  0
 30 52  1  0  0  0
M  END
> <i_i_glide_confnum>
9

> <i_i_glide_lignum>
5475

> <i_i_glide_posenum>
138

> <i_i_glide_rotatable_bonds>
6

> <i_m_Source_File_Index>
154

> <b_m_subgroup_collapsed>
0

> <r_i_docking_score>
-4.34998

> <r_i_glide_ecoul>
-5.85488

> <r_i_glide_eff_state_penalty>
0

> <r_i_glide_einternal>
1.68506

> <r_i_glide_emodel>
-52.9274

> <r_i_glide_energy>
-41.6612

> <r_i_glide_erotb>
0.482193

> <r_i_glide_esite>
-0.0713158

> <r_i_glide_evdw>
-35.8063

> <r_i_glide_gscore>
-4.34998

> <r_i_glide_hbond>
-0.36288

> <r_i_glide_ligand_efficiency>
-0.140322

> <r_i_glide_ligand_efficiency_ln>
-0.981054

> <r_i_glide_ligand_efficiency_sa>
-0.440805

> <r_i_glide_lipo>
-1.6995

> <r_i_glide_metal>
0

> <r_i_glide_rewards>
-0.0299366

> <s_i_glide_gridfile>
wee1_glide-grid

> <s_m_Source_File>
wee1_decoys_glide_SP.sdf

> <s_m_Source_Path>
/Users/zhangxujun/Desktop

> <s_m_entry_id>
429

> <s_m_entry_name>
wee1_decoys_glide_SP.154

> <s_m_subgroup_title>
wee1_decoys_glide_SP

> <s_m_subgroupid>
wee1_decoys_glide_SP


$$$$
