@<TRIPOS>MOLECULE
ZINC39662452_1280
66   69    1
SMALL
USER_CHARGES


@<TRIPOS>ATOM
      1 C1          1.8037   54.7373   29.8156 C.3       1 UNK         0.0000 
      2 C2          1.2466   54.7179   28.3789 C.3       1 UNK         0.0000 
      3 C3          1.9027   53.7489   27.3398 C.3       1 UNK         0.0000 
      4 H4          1.5034   54.0788   26.3842 H         1 UNK         0.0000 
      5 C5          3.4324   53.8997   27.2091 C.ar      1 UNK         0.0000 
      6 C6          3.9652   54.4967   26.0571 C.ar      1 UNK         0.0000 
      7 C7          5.3409   54.6593   25.9127 C.ar      1 UNK         0.0000 
      8 C8          6.1939   54.2399   26.9297 C.ar      1 UNK         0.0000 
      9 C9          5.6833   53.6524   28.0830 C.ar      1 UNK         0.0000 
     10 C10         4.3090   53.4728   28.2163 C.ar      1 UNK         0.0000 
     11 C11         1.4488   52.2758   27.5430 C.2       1 UNK         0.0000 
     12 O12         1.6497   51.7491   28.6415 O.2       1 UNK         0.0000 
     13 N13         0.8253   51.5998   26.5398 N.am      1 UNK         0.0000 
     14 C14         0.3043   50.2430   26.7470 C.3       1 UNK         0.0000 
     15 C15        -0.5764   49.9813   25.5176 C.3       1 UNK         0.0000 
     16 H16        -0.5192   48.9113   25.3109 H         1 UNK         0.0000 
     17 C17         0.0733   50.8193   24.3726 C.3       1 UNK         0.0000 
     18 C18         0.6229   52.0561   25.1549 C.3       1 UNK         0.0000 
     19 C19         1.2096   49.9537   23.7304 C.3       1 UNK         0.0000 
     20 C20         2.0630   50.7206   22.7011 C.3       1 UNK         0.0000 
     21 N21         1.1310   51.2229   21.5770 N.4       1 UNK         0.0000 
     22 C22        -0.0922   52.0037   22.1039 C.3       1 UNK         0.0000 
     23 C23        -0.8326   51.1491   23.1501 C.3       1 UNK         0.0000 
     24 C24        -2.0555   50.3276   25.8308 C.2       1 UNK         0.0000 
     25 O25        -2.4343   51.4973   25.9253 O.2       1 UNK         0.0000 
     26 N26        -2.8900   49.2848   25.9518 N.am      1 UNK         0.0000 
     27 C27        -4.3289   49.3406   26.2137 C.3       1 UNK         0.0000 
     28 H28        -4.4835   49.9637   27.0998 H         1 UNK         0.0000 
     29 C29        -5.0255   50.0346   25.1083 C.1       1 UNK         0.0000 
     30 N30        -5.5690   50.5764   24.2410 N.1       1 UNK         0.0000 
     31 C31        -4.9423   47.9672   26.5342 C.ar      1 UNK         0.0000 
     32 C32        -4.1554   46.9310   27.0638 C.ar      1 UNK         0.0000 
     33 C33        -4.7135   45.6840   27.3313 C.ar      1 UNK         0.0000 
     34 C34        -6.0641   45.4615   27.0805 C.ar      1 UNK         0.0000 
     35 C35        -6.8626   46.4807   26.5673 C.ar      1 UNK         0.0000 
     36 C36        -6.3036   47.7266   26.2975 C.ar      1 UNK         0.0000 
     37 H37         1.2151   55.4144   30.4400 H         1 UNK         0.0000 
     38 H38         1.7639   53.7523   30.2807 H         1 UNK         0.0000 
     39 H39         2.8327   55.0975   29.8399 H         1 UNK         0.0000 
     40 H40         1.2990   55.7356   27.9975 H         1 UNK         0.0000 
     41 H41         0.1787   54.4980   28.4364 H         1 UNK         0.0000 
     42 H42         3.3148   54.8399   25.2662 H         1 UNK         0.0000 
     43 H43         5.7446   55.1133   25.0216 H         1 UNK         0.0000 
     44 H44         7.2620   54.3642   26.8257 H         1 UNK         0.0000 
     45 H45         6.3530   53.3279   28.8669 H         1 UNK         0.0000 
     46 H46         3.9258   53.0014   29.1114 H         1 UNK         0.0000 
     47 H47        -0.2474   50.1107   27.6808 H         1 UNK         0.0000 
     48 H48         1.1253   49.5223   26.7620 H         1 UNK         0.0000 
     49 H49         1.4886   52.5136   24.6764 H         1 UNK         0.0000 
     50 H50        -0.1765   52.8005   25.1787 H         1 UNK         0.0000 
     51 H51         1.9036   49.5947   24.4819 H         1 UNK         0.0000 
     52 H52         0.8118   49.0373   23.2929 H         1 UNK         0.0000 
     53 H53         2.5738   51.5941   23.1038 H         1 UNK         0.0000 
     54 H54         2.8023   50.0786   22.2174 H         1 UNK         0.0000 
     55 H55         1.6570   51.8016   20.9337 H         1 UNK         0.0000 
     56 H56         0.3111   52.9134   22.5334 H         1 UNK         0.0000 
     57 H57        -0.7039   52.2464   21.2352 H         1 UNK         0.0000 
     58 H58        -1.2457   50.2434   22.7034 H         1 UNK         0.0000 
     59 H59        -1.7004   51.7260   23.4735 H         1 UNK         0.0000 
     60 H60        -2.4913   48.3570   25.9003 H         1 UNK         0.0000 
     61 H61        -3.1075   47.0803   27.2833 H         1 UNK         0.0000 
     62 H62        -4.0943   44.8969   27.7360 H         1 UNK         0.0000 
     63 H63        -6.4970   44.4928   27.2851 H         1 UNK         0.0000 
     64 H64        -7.9126   46.3027   26.3791 H         1 UNK         0.0000 
     65 H65        -6.9420   48.5038   25.9027 H         1 UNK         0.0000 
     66 H66         0.8070   50.4282   21.0423 H         1 UNK         0.0000 
@<TRIPOS>BOND
     1    1    2 1    
     2    1   37 1    
     3    1   38 1    
     4    1   39 1    
     5    2    3 1    
     6    2   40 1    
     7    2   41 1    
     8    3    4 1    
     9    3    5 1    
    10    3   11 1    
    11    5   10 ar   
    12    5    6 ar   
    13    6    7 ar   
    14    6   42 1    
    15    7    8 ar   
    16    7   43 1    
    17    8    9 ar   
    18    8   44 1    
    19    9   10 ar   
    20    9   45 1    
    21   10   46 1    
    22   11   12 2    
    23   11   13 am   BACKBONE|DICT|INTERRES
    24   13   18 1    
    25   13   14 1    
    26   14   15 1    
    27   14   47 1    
    28   14   48 1    
    29   15   16 1    
    30   15   17 1    
    31   15   24 1    
    32   17   23 1    
    33   17   18 1    
    34   17   19 1    
    35   18   49 1    
    36   18   50 1    
    37   19   20 1    
    38   19   51 1    
    39   19   52 1    
    40   20   21 1    
    41   20   53 1    
    42   20   54 1    
    43   21   22 1    
    44   21   55 1    
    45   21   66 1    
    46   22   23 1    
    47   22   56 1    
    48   22   57 1    
    49   23   58 1    
    50   23   59 1    
    51   24   25 2    
    52   24   26 am   BACKBONE|DICT|INTERRES
    53   26   27 1    
    54   26   60 1    
    55   27   28 1    
    56   27   29 1    
    57   27   31 1    
    58   29   30 3    
    59   31   36 ar   
    60   31   32 ar   
    61   32   33 ar   
    62   32   61 1    
    63   33   34 ar   
    64   33   62 1    
    65   34   35 ar   
    66   34   63 1    
    67   35   36 ar   
    68   35   64 1    
    69   36   65 1    
@<TRIPOS>SUBSTRUCTURE
     1 UNK         1 GROUP             0       ****    0 ROOT    
