@<TRIPOS>MOLECULE
ZINC21938228_5638
50   52    1
SMALL
USER_CHARGES


@<TRIPOS>ATOM
      1 C1         -3.3602   48.3757   25.0836 C.3       1 UNK         0.0000 
      2 C2         -2.8170   49.8159   25.0253 C.3       1 UNK         0.0000 
      3 H3         -2.3238   49.9023   24.0528 H         1 UNK         0.0000 
      4 C4         -3.8922   50.9180   25.0833 C.ar      1 UNK         0.0000 
      5 C5         -5.1924   50.6766   25.5505 C.ar      1 UNK         0.0000 
      6 C6         -6.1246   51.7115   25.6269 C.ar      1 UNK         0.0000 
      7 C7         -5.7807   53.0175   25.2384 C.ar      1 UNK         0.0000 
      8 C8         -4.4895   53.2539   24.7573 C.ar      1 UNK         0.0000 
      9 C9         -3.5663   52.2155   24.6665 C.ar      1 UNK         0.0000 
     10 F10        -4.1239   54.4970   24.3630 F         1 UNK         0.0000 
     11 O11        -6.6412   54.0967   25.2925 O.3       1 UNK         0.0000 
     12 C12        -7.9910   53.8943   25.6938 C.3       1 UNK         0.0000 
     13 N13        -1.8234   50.0059   26.0817 N.am      1 UNK         0.0000 
     14 C14        -0.8189   50.8980   26.0629 C.2       1 UNK         0.0000 
     15 O15        -0.3782   51.4069   25.0304 O.2       1 UNK         0.0000 
     16 C16        -0.2938   51.3007   27.4136 C.ar      1 UNK         0.0000 
     17 C17        -1.1305   51.2976   28.5366 C.ar      1 UNK         0.0000 
     18 C18        -0.6489   51.6968   29.7748 C.ar      1 UNK         0.0000 
     19 C19         0.6743   52.1035   29.9135 C.ar      1 UNK         0.0000 
     20 C20         1.5307   52.1523   28.7975 C.ar      1 UNK         0.0000 
     21 C21         1.0263   51.7420   27.5604 C.ar      1 UNK         0.0000 
     22 N22         2.8315   52.5620   28.8817 N.2       1 UNK         0.0000 
     23 S23         3.1025   54.0995   28.9236 S.o2      1 UNK         0.0000 
     24 O24         1.9492   54.9437   28.5863 O.2       1 UNK         0.0000 
     25 O25         3.9044   54.4949   30.0816 O.2       1 UNK         0.0000 
     26 C26         4.2007   54.2543   27.5151 C.ar      1 UNK         0.0000 
     27 C27         3.6658   54.3293   26.2269 C.ar      1 UNK         0.0000 
     28 C28         4.5141   54.4899   25.1343 C.ar      1 UNK         0.0000 
     29 C29         5.8912   54.5553   25.3337 C.ar      1 UNK         0.0000 
     30 C30         6.4308   54.4590   26.6145 C.ar      1 UNK         0.0000 
     31 C31         5.5850   54.3079   27.7093 C.ar      1 UNK         0.0000 
     32 F32         6.7113   54.7146   24.2718 F         1 UNK         0.0000 
     33 Cl33        1.2213   52.4967   31.5071 Cl        1 UNK         0.0000 
     34 H34        -4.1021   48.1983   24.3037 H         1 UNK         0.0000 
     35 H35        -2.5533   47.6534   24.9379 H         1 UNK         0.0000 
     36 H36        -3.8171   48.1507   26.0487 H         1 UNK         0.0000 
     37 H37        -5.4921   49.6931   25.8790 H         1 UNK         0.0000 
     38 H38        -7.1105   51.4832   26.0041 H         1 UNK         0.0000 
     39 H39        -2.5781   52.4356   24.2901 H         1 UNK         0.0000 
     40 H40        -8.5224   54.8443   25.6524 H         1 UNK         0.0000 
     41 H41        -8.0546   53.5243   26.7198 H         1 UNK         0.0000 
     42 H42        -8.5060   53.1973   25.0307 H         1 UNK         0.0000 
     43 H43        -1.9403   49.4664   26.9401 H         1 UNK         0.0000 
     44 H44        -2.1584   50.9699   28.4717 H         1 UNK         0.0000 
     45 H45        -1.2952   51.6505   30.6409 H         1 UNK         0.0000 
     46 H46         1.6755   51.7792   26.6982 H         1 UNK         0.0000 
     47 H47         2.5966   54.2753   26.0791 H         1 UNK         0.0000 
     48 H48         4.1091   54.5599   24.1351 H         1 UNK         0.0000 
     49 H49         7.4991   54.4974   26.7622 H         1 UNK         0.0000 
     50 H50         6.0053   54.2441   28.7037 H         1 UNK         0.0000 
@<TRIPOS>BOND
     1    1    2 1    
     2    1   34 1    
     3    1   35 1    
     4    1   36 1    
     5    2    3 1    
     6    2    4 1    
     7    2   13 1    
     8    4    9 ar   
     9    4    5 ar   
    10    5    6 ar   
    11    5   37 1    
    12    6    7 ar   
    13    6   38 1    
    14    7    8 ar   
    15    7   11 1    
    16    8    9 ar   
    17    8   10 1    
    18    9   39 1    
    19   11   12 1    
    20   12   40 1    
    21   12   41 1    
    22   12   42 1    
    23   13   14 am   BACKBONE|DICT|INTERRES
    24   13   43 1    
    25   14   15 2    
    26   14   16 1    
    27   16   21 ar   
    28   16   17 ar   
    29   17   18 ar   
    30   17   44 1    
    31   18   19 ar   
    32   18   45 1    
    33   19   20 ar   
    34   19   33 1    
    35   20   21 ar   
    36   20   22 1    
    37   21   46 1    
    38   22   23 1    
    39   23   24 2    
    40   23   25 2    
    41   23   26 1    
    42   26   31 ar   
    43   26   27 ar   
    44   27   28 ar   
    45   27   47 1    
    46   28   29 ar   
    47   28   48 1    
    48   29   30 ar   
    49   29   32 1    
    50   30   31 ar   
    51   30   49 1    
    52   31   50 1    
@<TRIPOS>SUBSTRUCTURE
     1 UNK         1 GROUP             0       ****    0 ROOT    
