@<TRIPOS>MOLECULE
ZINC36698966_5711
73   76    1
SMALL
USER_CHARGES


@<TRIPOS>ATOM
      1 C1          6.4282   54.0934   28.0283 C.3       1 UNK         0.0000 
      2 C2          5.5053   54.0982   26.8204 C.ar      1 UNK         0.0000 
      3 C3          6.0819   54.1082   25.5463 C.ar      1 UNK         0.0000 
      4 C4          5.2454   54.0985   24.4234 C.ar      1 UNK         0.0000 
      5 C5          3.8397   54.1110   24.5881 C.ar      1 UNK         0.0000 
      6 C6          3.2614   54.0967   25.8626 C.ar      1 UNK         0.0000 
      7 C7          4.1069   54.0959   26.9774 C.ar      1 UNK         0.0000 
      8 C8          3.4738   54.0708   28.3622 C.3       1 UNK         0.0000 
      9 S9          3.0789   54.1500   23.0044 S.3       1 UNK         0.0000 
     10 C10         4.6829   54.0485   22.2841 C.2       1 UNK         0.0000 
     11 N11         5.6791   54.0506   23.1368 N.2       1 UNK         0.0000 
     12 N12         4.8679   53.9689   20.8900 N.am      1 UNK         0.0000 
     13 C13         3.8184   53.2724   20.0962 C.3       1 UNK         0.0000 
     14 C14         3.7420   51.7330   20.2609 C.3       1 UNK         0.0000 
     15 C15         2.7680   51.3309   21.3807 C.3       1 UNK         0.0000 
     16 N16         2.5224   49.8116   21.4995 N.4       1 UNK         0.0000 
     17 C17         1.6578   49.5617   22.7565 C.3       1 UNK         0.0000 
     18 C18         1.9047   49.1709   20.2375 C.3       1 UNK         0.0000 
     19 C19         5.7551   54.8380   20.2921 C.2       1 UNK         0.0000 
     20 O20         6.2145   55.8309   20.8691 O.2       1 UNK         0.0000 
     21 C21         6.2107   54.5932   18.8609 C.ar      1 UNK         0.0000 
     22 C22         6.6474   55.6642   18.0649 C.ar      1 UNK         0.0000 
     23 C23         7.1548   55.4405   16.7840 C.ar      1 UNK         0.0000 
     24 C24         7.2249   54.1395   16.2836 C.ar      1 UNK         0.0000 
     25 C25         6.7849   53.0687   17.0581 C.ar      1 UNK         0.0000 
     26 C26         6.3044   53.2956   18.3403 C.ar      1 UNK         0.0000 
     27 S27         7.9001   53.8134   14.6551 S.o2      1 UNK         0.0000 
     28 O28         7.1926   52.6391   14.1290 O.2       1 UNK         0.0000 
     29 O29         7.8378   55.0867   13.9276 O.2       1 UNK         0.0000 
     30 N30         9.6237   53.3920   14.9423 N.pl3     1 UNK         0.0000 
     31 C31         9.8659   52.2244   15.8389 C.3       1 UNK         0.0000 
     32 C32         9.5552   50.8796   15.1320 C.3       1 UNK         0.0000 
     33 C33        10.2478   50.7750   13.7410 C.3       1 UNK         0.0000 
     34 C34        10.1677   52.0780   12.8951 C.3       1 UNK         0.0000 
     35 C35        10.5483   53.2979   13.7674 C.3       1 UNK         0.0000 
     36 H36        11.5521   53.1210   14.1585 H         1 UNK         0.0000 
     37 C37        10.6078   54.6418   13.0141 C.3       1 UNK         0.0000 
     38 H38         6.4659   53.0999   28.4759 H         1 UNK         0.0000 
     39 H39         6.0635   54.7890   28.7852 H         1 UNK         0.0000 
     40 H40         7.4387   54.4153   27.7743 H         1 UNK         0.0000 
     41 H41         7.1528   54.0968   25.4210 H         1 UNK         0.0000 
     42 H42         2.1867   54.0927   25.9775 H         1 UNK         0.0000 
     43 H43         2.4009   53.8789   28.3239 H         1 UNK         0.0000 
     44 H44         3.9189   53.2805   28.9684 H         1 UNK         0.0000 
     45 H45         3.6411   55.0171   28.8775 H         1 UNK         0.0000 
     46 H46         2.8388   53.6972   20.2933 H         1 UNK         0.0000 
     47 H47         3.9428   53.4628   19.0310 H         1 UNK         0.0000 
     48 H48         3.3972   51.3243   19.3118 H         1 UNK         0.0000 
     49 H49         4.7310   51.3061   20.4303 H         1 UNK         0.0000 
     50 H50         3.1794   51.5882   22.3532 H         1 UNK         0.0000 
     51 H51         1.7853   51.7941   21.2629 H         1 UNK         0.0000 
     52 H52         0.7057   50.0767   22.6296 H         1 UNK         0.0000 
     53 H53         1.5038   48.4968   22.8664 H         1 UNK         0.0000 
     54 H54         2.2041   49.9411   23.6205 H         1 UNK         0.0000 
     55 H55         0.9779   49.6996   20.0044 H         1 UNK         0.0000 
     56 H56         2.6281   49.2511   19.4239 H         1 UNK         0.0000 
     57 H57         1.7159   48.1205   20.4601 H         1 UNK         0.0000 
     58 H58         6.6091   56.6783   18.4406 H         1 UNK         0.0000 
     59 H59         7.4991   56.2755   16.1878 H         1 UNK         0.0000 
     60 H60         6.8336   52.0562   16.6841 H         1 UNK         0.0000 
     61 H61         6.0337   52.4349   18.9273 H         1 UNK         0.0000 
     62 H62        10.9370   52.2055   16.0572 H         1 UNK         0.0000 
     63 H63         9.4055   52.3846   16.8139 H         1 UNK         0.0000 
     64 H64         9.8805   50.0509   15.7644 H         1 UNK         0.0000 
     65 H65         8.4786   50.7481   15.0248 H         1 UNK         0.0000 
     66 H66        11.3014   50.5328   13.8989 H         1 UNK         0.0000 
     67 H67         9.8399   49.9345   13.1774 H         1 UNK         0.0000 
     68 H68        10.8392   51.9894   12.0372 H         1 UNK         0.0000 
     69 H69         9.1549   52.1854   12.5041 H         1 UNK         0.0000 
     70 H70        11.4756   54.6612   12.3527 H         1 UNK         0.0000 
     71 H71         9.7371   54.8007   12.3798 H         1 UNK         0.0000 
     72 H72        10.7004   55.4900   13.6962 H         1 UNK         0.0000 
     73 H73         3.4188   49.3629   21.6476 H         1 UNK         0.0000 
@<TRIPOS>BOND
     1    1    2 1    
     2    1   38 1    
     3    1   39 1    
     4    1   40 1    
     5    2    7 ar   
     6    2    3 ar   
     7    3    4 ar   
     8    3   41 1    
     9    4   11 1    
    10    4    5 ar   
    11    5    6 ar   
    12    5    9 1    
    13    6    7 ar   
    14    6   42 1    
    15    7    8 1    
    16    8   43 1    
    17    8   44 1    
    18    8   45 1    
    19    9   10 1    
    20   10   11 2    
    21   10   12 am   BACKBONE|DICT|INTERRES
    22   12   13 1    
    23   12   19 am   BACKBONE|DICT|INTERRES
    24   13   14 1    
    25   13   46 1    
    26   13   47 1    
    27   14   15 1    
    28   14   48 1    
    29   14   49 1    
    30   15   16 1    
    31   15   50 1    
    32   15   51 1    
    33   16   17 1    
    34   16   18 1    
    35   16   73 1    
    36   17   52 1    
    37   17   53 1    
    38   17   54 1    
    39   18   55 1    
    40   18   56 1    
    41   18   57 1    
    42   19   20 2    
    43   19   21 1    
    44   21   26 ar   
    45   21   22 ar   
    46   22   23 ar   
    47   22   58 1    
    48   23   24 ar   
    49   23   59 1    
    50   24   25 ar   
    51   24   27 1    
    52   25   26 ar   
    53   25   60 1    
    54   26   61 1    
    55   27   28 2    
    56   27   29 2    
    57   27   30 1    
    58   30   35 1    
    59   30   31 1    
    60   31   32 1    
    61   31   62 1    
    62   31   63 1    
    63   32   33 1    
    64   32   64 1    
    65   32   65 1    
    66   33   34 1    
    67   33   66 1    
    68   33   67 1    
    69   34   35 1    
    70   34   68 1    
    71   34   69 1    
    72   35   36 1    
    73   35   37 1    
    74   37   70 1    
    75   37   71 1    
    76   37   72 1    
@<TRIPOS>SUBSTRUCTURE
     1 UNK         1 GROUP             0       ****    0 ROOT    
