@<TRIPOS>MOLECULE
ZINC39637234_3670
68   71    1
SMALL
USER_CHARGES


@<TRIPOS>ATOM
      1 C1          5.7627   53.5684   28.1230 C.3       1 UNK         0.0000 
      2 C2          4.2624   53.2484   28.2824 C.3       1 UNK         0.0000 
      3 H3          4.0957   52.2420   27.8999 H         1 UNK         0.0000 
      4 C4          3.8398   53.2125   29.7738 C.3       1 UNK         0.0000 
      5 C5          2.3465   52.8827   29.9720 C.3       1 UNK         0.0000 
      6 C6          1.4710   53.8489   29.1498 C.3       1 UNK         0.0000 
      7 C7          1.8370   53.7954   27.6495 C.3       1 UNK         0.0000 
      8 H8          1.2268   54.5731   27.1953 H         1 UNK         0.0000 
      9 C9          3.3368   54.1818   27.4506 C.3       1 UNK         0.0000 
     10 H10         3.4495   55.1651   27.9108 H         1 UNK         0.0000 
     11 C11         3.7745   54.3273   25.9724 C.3       1 UNK         0.0000 
     12 N12         1.4081   52.5399   27.0141 N.am      1 UNK         0.0000 
     13 C13         0.9709   52.3913   25.7491 C.2       1 UNK         0.0000 
     14 O14         1.0039   53.2943   24.9153 O.2       1 UNK         0.0000 
     15 C15         0.4803   50.9745   25.3534 C.3       1 UNK         0.0000 
     16 H16         0.9937   50.2431   25.9786 H         1 UNK         0.0000 
     17 C17         0.6735   50.6990   23.8467 C.3       1 UNK         0.0000 
     18 N18        -0.6023   51.1281   23.2447 N.am      1 UNK         0.0000 
     19 C19        -1.6208   51.4311   24.2583 C.3       1 UNK         0.0000 
     20 C20        -1.0564   50.8062   25.5505 C.3       1 UNK         0.0000 
     21 C21        -1.6452   51.3720   26.8773 C.3       1 UNK         0.0000 
     22 C22        -3.1655   51.1751   26.9631 C.3       1 UNK         0.0000 
     23 N23        -3.4421   49.6547   26.9089 N.4       1 UNK         0.0000 
     24 C24        -2.8702   48.9582   25.6592 C.3       1 UNK         0.0000 
     25 C25        -1.3644   49.2738   25.6032 C.3       1 UNK         0.0000 
     26 C26        -0.7735   51.4589   21.9414 C.2       1 UNK         0.0000 
     27 O27        -1.7530   52.0946   21.5360 O.2       1 UNK         0.0000 
     28 C28         0.2813   51.0191   20.9577 C.ar      1 UNK         0.0000 
     29 C29         0.7318   51.9101   19.9794 C.ar      1 UNK         0.0000 
     30 C30         1.7387   51.5530   19.0805 C.ar      1 UNK         0.0000 
     31 C31         2.2775   50.2652   19.1542 C.ar      1 UNK         0.0000 
     32 C32         1.8026   49.3471   20.0854 C.ar      1 UNK         0.0000 
     33 C33         0.8085   49.7197   20.9799 C.ar      1 UNK         0.0000 
     34 F34         2.3036   48.0927   20.1237 F         1 UNK         0.0000 
     35 C35         2.2424   52.5511   18.0354 C.3       1 UNK         0.0000 
     36 F36         3.2548   53.2499   18.5497 F         1 UNK         0.0000 
     37 F37         2.6657   51.9356   16.9321 F         1 UNK         0.0000 
     38 F38         1.2757   53.4009   17.6793 F         1 UNK         0.0000 
     39 H39         5.9879   54.5938   28.4179 H         1 UNK         0.0000 
     40 H40         6.3615   52.9062   28.7431 H         1 UNK         0.0000 
     41 H41         6.1054   53.4212   27.0988 H         1 UNK         0.0000 
     42 H42         4.4520   52.4885   30.3145 H         1 UNK         0.0000 
     43 H43         4.0694   54.1763   30.2313 H         1 UNK         0.0000 
     44 H44         2.1510   51.8544   29.6655 H         1 UNK         0.0000 
     45 H45         2.0793   52.9351   31.0280 H         1 UNK         0.0000 
     46 H46         0.4163   53.6075   29.2900 H         1 UNK         0.0000 
     47 H47         1.5933   54.8657   29.5261 H         1 UNK         0.0000 
     48 H48         3.8754   53.3517   25.4935 H         1 UNK         0.0000 
     49 H49         4.7306   54.8435   25.8785 H         1 UNK         0.0000 
     50 H50         3.0575   54.8965   25.3873 H         1 UNK         0.0000 
     51 H51         1.4644   51.7194   27.5956 H         1 UNK         0.0000 
     52 H52         1.5593   51.2195   23.4793 H         1 UNK         0.0000 
     53 H53         0.8296   49.6244   23.7519 H         1 UNK         0.0000 
     54 H54        -2.6336   51.1285   23.9996 H         1 UNK         0.0000 
     55 H55        -1.6624   52.5152   24.3789 H         1 UNK         0.0000 
     56 H56        -1.1491   50.9290   27.7436 H         1 UNK         0.0000 
     57 H57        -1.4587   52.4447   26.9502 H         1 UNK         0.0000 
     58 H58        -3.5774   51.5204   27.9113 H         1 UNK         0.0000 
     59 H59        -3.7153   51.6326   26.1412 H         1 UNK         0.0000 
     60 H60        -2.9674   49.2185   27.7027 H         1 UNK         0.0000 
     61 H61        -3.0548   47.8921   25.8098 H         1 UNK         0.0000 
     62 H62        -3.4416   49.3002   24.7979 H         1 UNK         0.0000 
     63 H63        -0.9754   48.7723   24.7182 H         1 UNK         0.0000 
     64 H64        -0.8327   48.8008   26.4308 H         1 UNK         0.0000 
     65 H65         0.3060   52.8986   19.9250 H         1 UNK         0.0000 
     66 H66         3.0623   49.9663   18.4838 H         1 UNK         0.0000 
     67 H67         0.4481   48.9859   21.6851 H         1 UNK         0.0000 
     68 H68        -4.4265   49.4566   27.0147 H         1 UNK         0.0000 
@<TRIPOS>BOND
     1    1    2 1    
     2    1   39 1    
     3    1   40 1    
     4    1   41 1    
     5    2    3 1    
     6    2    9 1    
     7    2    4 1    
     8    4    5 1    
     9    4   42 1    
    10    4   43 1    
    11    5    6 1    
    12    5   44 1    
    13    5   45 1    
    14    6    7 1    
    15    6   46 1    
    16    6   47 1    
    17    7    8 1    
    18    7    9 1    
    19    7   12 1    
    20    9   10 1    
    21    9   11 1    
    22   11   48 1    
    23   11   49 1    
    24   11   50 1    
    25   12   13 am   BACKBONE|DICT|INTERRES
    26   12   51 1    
    27   13   14 2    
    28   13   15 1    
    29   15   16 1    
    30   15   20 1    
    31   15   17 1    
    32   17   18 1    
    33   17   52 1    
    34   17   53 1    
    35   18   19 1    
    36   18   26 am   BACKBONE|DICT|INTERRES
    37   19   20 1    
    38   19   54 1    
    39   19   55 1    
    40   20   25 1    
    41   20   21 1    
    42   21   22 1    
    43   21   56 1    
    44   21   57 1    
    45   22   23 1    
    46   22   58 1    
    47   22   59 1    
    48   23   24 1    
    49   23   60 1    
    50   23   68 1    
    51   24   25 1    
    52   24   61 1    
    53   24   62 1    
    54   25   63 1    
    55   25   64 1    
    56   26   27 2    
    57   26   28 1    
    58   28   33 ar   
    59   28   29 ar   
    60   29   30 ar   
    61   29   65 1    
    62   30   31 ar   
    63   30   35 1    
    64   31   32 ar   
    65   31   66 1    
    66   32   33 ar   
    67   32   34 1    
    68   33   67 1    
    69   35   36 1    
    70   35   37 1    
    71   35   38 1    
@<TRIPOS>SUBSTRUCTURE
     1 UNK         1 GROUP             0       ****    0 ROOT    
