ZINC19631801_2613
                    3D
 Schrodinger Suite 2024-2.
 54 57  0  0  1  0            999 V2000
    2.0379   56.0595   29.5198 C   0  0  0  0  0  0
    2.1788   55.1222   28.4596 O   0  0  0  0  0  0
    1.3732   53.9957   28.4426 C   0  0  0  0  0  0
    0.5513   53.6181   29.5207 C   0  0  0  0  0  0
   -0.2393   52.4724   29.4482 C   0  0  0  0  0  0
   -0.2381   51.6979   28.2916 C   0  0  0  0  0  0
    0.5736   52.0502   27.2160 C   0  0  0  0  0  0
    1.3863   53.1914   27.2878 C   0  0  0  0  0  0
    2.2600   53.5221   26.2372 N   0  0  0  0  0  0
    1.9938   53.4907   24.9130 C   0  0  0  0  0  0
    0.8696   53.2974   24.4512 O   0  0  0  0  0  0
    3.1495   53.6990   24.0512 C   0  0  0  0  0  0
    4.4019   54.2211   24.4744 C   0  0  0  0  0  0
    5.3273   54.3542   23.4613 C   0  0  0  0  0  0
    4.7116   53.8979   21.9204 S   0  0  0  0  0  0
    3.1902   53.4655   22.6508 C   0  0  0  0  0  0
    2.2825   52.8965   21.7697 N   0  0  0  0  0  0
    1.8505   51.6217   21.8823 C   0  0  0  0  0  0
    2.0375   50.9215   22.8822 O   0  0  0  0  0  0
    1.1859   50.9986   20.6222 C   0  0  1  0  0  0
    1.0912   51.7681   19.8532 H   0  0  0  0  0  0
    2.2098   49.9193   20.1131 C   0  0  0  0  0  0
    1.5752   48.8420   19.2477 C   0  0  0  0  0  0
    0.2547   48.7031   19.0501 C   0  0  0  0  0  0
   -0.7967   49.5835   19.6992 C   0  0  0  0  0  0
   -0.2175   50.3561   20.9263 C   0  0  2  0  0  0
   -0.1368   49.6319   21.7410 H   0  0  0  0  0  0
   -1.2641   51.4196   21.3654 C   0  0  0  0  0  0
   -1.8392   52.0967   20.4807 O   0  0  0  0  0  0
   -1.4177   51.6047   22.5907 O   0  5  0  0  0  0
    6.6503   54.8983   23.9277 C   0  0  0  0  0  0
    6.2727   55.4338   25.3156 C   0  0  0  0  0  0
    5.0367   54.6486   25.7826 C   0  0  0  0  0  0
    2.7060   56.8975   29.3422 H   0  0  0  0  0  0
    1.0239   56.4564   29.5759 H   0  0  0  0  0  0
    2.3048   55.6247   30.4821 H   0  0  0  0  0  0
    0.5153   54.1971   30.4304 H   0  0  0  0  0  0
   -0.8580   52.1845   30.2871 H   0  0  0  0  0  0
   -0.8579   50.8138   28.2309 H   0  0  0  0  0  0
    0.5777   51.4255   26.3334 H   0  0  0  0  0  0
    3.1888   53.7971   26.5151 H   0  0  0  0  0  0
    2.1596   53.3675   20.8830 H   0  0  0  0  0  0
    3.0742   50.3817   19.6315 H   0  0  0  0  0  0
    2.6161   49.3325   20.9410 H   0  0  0  0  0  0
    2.2330   48.1554   18.7326 H   0  0  0  0  0  0
   -0.0710   47.9161   18.3852 H   0  0  0  0  0  0
   -1.6503   48.9792   20.0110 H   0  0  0  0  0  0
   -1.1688   50.2542   18.9221 H   0  0  0  0  0  0
    7.4170   54.1237   23.9844 H   0  0  0  0  0  0
    7.0363   55.6993   23.2965 H   0  0  0  0  0  0
    7.0967   55.3658   26.0258 H   0  0  0  0  0  0
    6.0141   56.4913   25.2321 H   0  0  0  0  0  0
    4.3948   55.2689   26.4095 H   0  0  0  0  0  0
    5.3458   53.7837   26.3723 H   0  0  0  0  0  0
  1  2  1  0  0  0
  1 34  1  0  0  0
  1 35  1  0  0  0
  1 36  1  0  0  0
  2  3  1  0  0  0
  3  8  2  0  0  0
  3  4  1  0  0  0
  4  5  2  0  0  0
  4 37  1  0  0  0
  5  6  1  0  0  0
  5 38  1  0  0  0
  6  7  2  0  0  0
  6 39  1  0  0  0
  7  8  1  0  0  0
  7 40  1  0  0  0
  8  9  1  0  0  0
  9 10  1  0  0  0
  9 41  1  0  0  0
 10 11  2  0  0  0
 10 12  1  0  0  0
 12 16  2  0  0  0
 12 13  1  0  0  0
 13 33  1  0  0  0
 13 14  2  0  0  0
 14 15  1  0  0  0
 14 31  1  0  0  0
 15 16  1  0  0  0
 16 17  1  0  0  0
 17 18  1  0  0  0
 17 42  1  0  0  0
 18 19  2  0  0  0
 18 20  1  0  0  0
 20 21  1  0  0  0
 20 26  1  0  0  0
 20 22  1  0  0  0
 22 23  1  0  0  0
 22 43  1  0  0  0
 22 44  1  0  0  0
 23 24  2  0  0  0
 23 45  1  0  0  0
 24 25  1  0  0  0
 24 46  1  0  0  0
 25 26  1  0  0  0
 25 47  1  0  0  0
 25 48  1  0  0  0
 26 27  1  0  0  0
 26 28  1  0  0  0
 28 29  2  0  0  0
 28 30  1  0  0  0
 31 32  1  0  0  0
 31 49  1  0  0  0
 31 50  1  0  0  0
 32 33  1  0  0  0
 32 51  1  0  0  0
 32 52  1  0  0  0
 33 53  1  0  0  0
 33 54  1  0  0  0
M  CHG  1  30  -1
M  END
> <i_i_glide_confnum>
30

> <i_i_glide_lignum>
2614

> <i_i_glide_posenum>
156

> <i_i_glide_rotatable_bonds>
8

> <i_m_Source_File_Index>
3170

> <b_m_subgroup_collapsed>
0

> <r_i_docking_score>
-6.60167

> <r_i_glide_ecoul>
-6.21036

> <r_i_glide_eff_state_penalty>
0

> <r_i_glide_einternal>
13.1729

> <r_i_glide_emodel>
-66.7978

> <r_i_glide_energy>
-50.8139

> <r_i_glide_erotb>
0.619952

> <r_i_glide_esite>
-0.00966791

> <r_i_glide_evdw>
-44.6035

> <r_i_glide_gscore>
-6.60167

> <r_i_glide_hbond>
-0.283698

> <r_i_glide_ligand_efficiency>
-0.212957

> <r_i_glide_ligand_efficiency_ln>
-1.48888

> <r_i_glide_ligand_efficiency_sa>
-0.668979

> <r_i_glide_lipo>
-2.84679

> <r_i_glide_metal>
0

> <r_i_glide_rewards>
-0.919728

> <s_i_glide_gridfile>
wee1_glide-grid

> <s_m_Source_File>
wee1_decoys_glide_SP.sdf

> <s_m_Source_Path>
/Users/zhangxujun/Desktop

> <s_m_entry_id>
3445

> <s_m_entry_name>
wee1_decoys_glide_SP.3170

> <s_m_subgroup_title>
wee1_decoys_glide_SP

> <s_m_subgroupid>
wee1_decoys_glide_SP


$$$$
