@<TRIPOS>MOLECULE
ZINC09905121_4420
46   48    1
SMALL
USER_CHARGES


@<TRIPOS>ATOM
      1 C1          5.5429   54.5737   20.1593 C.ar      1 UNK         0.0000 
      2 C2          6.7188   55.2967   20.3507 C.ar      1 UNK         0.0000 
      3 C3          7.1669   55.5594   21.6435 C.ar      1 UNK         0.0000 
      4 C4          6.4329   55.1277   22.7495 C.ar      1 UNK         0.0000 
      5 C5          5.2253   54.4245   22.5648 C.ar      1 UNK         0.0000 
      6 C6          4.8091   54.1321   21.2595 C.ar      1 UNK         0.0000 
      7 C7          4.3649   53.9586   23.6719 C.2       1 UNK         0.0000 
      8 C8          4.1419   54.6047   24.8408 C.2       1 UNK         0.0000 
      9 C9          3.3382   54.0966   25.9182 C.2       1 UNK         0.0000 
     10 O10         3.6591   54.2937   27.0883 O.2       1 UNK         0.0000 
     11 N11         2.2356   53.4409   25.5084 N.am      1 UNK         0.0000 
     12 C12         1.2502   52.7639   26.2497 C.ar      1 UNK         0.0000 
     13 C13         1.0356   53.0025   27.6177 C.ar      1 UNK         0.0000 
     14 C14         0.0904   52.2680   28.3423 C.ar      1 UNK         0.0000 
     15 C15        -0.6576   51.2967   27.6625 C.ar      1 UNK         0.0000 
     16 C16        -0.4383   51.0377   26.3143 C.ar      1 UNK         0.0000 
     17 C17         0.5170   51.7536   25.5917 C.ar      1 UNK         0.0000 
     18 N18         0.7032   51.4577   24.2304 N.pl3     1 UNK         0.0000 
     19 C19         0.8889   50.1164   23.6711 C.3       1 UNK         0.0000 
     20 C20         0.7625   50.2183   22.1490 C.3       1 UNK         0.0000 
     21 C21         1.0263   51.6861   21.8711 C.3       1 UNK         0.0000 
     22 C22         0.4539   52.3631   23.1099 C.3       1 UNK         0.0000 
     23 C23        -0.0956   52.5304   29.8199 C.2       1 UNK         0.0000 
     24 O24         0.4527   53.4722   30.3892 O.2       1 UNK         0.0000 
     25 N25        -0.8956   51.6967   30.4817 N.am      1 UNK         0.0000 
     26 Br26        7.1044   55.5676   24.4817 Br        1 UNK         0.0000 
     27 H27         5.1992   54.3537   19.1585 H         1 UNK         0.0000 
     28 H28         7.2915   55.6335   19.4987 H         1 UNK         0.0000 
     29 H29         8.0926   56.0967   21.7940 H         1 UNK         0.0000 
     30 H30         3.8931   53.5852   21.0841 H         1 UNK         0.0000 
     31 H31         3.8834   53.0075   23.4912 H         1 UNK         0.0000 
     32 H32         4.5828   55.5616   25.0625 H         1 UNK         0.0000 
     33 H33         2.1744   53.2652   24.5178 H         1 UNK         0.0000 
     34 H34         1.5981   53.7677   28.1316 H         1 UNK         0.0000 
     35 H35        -1.4092   50.7027   28.1630 H         1 UNK         0.0000 
     36 H36        -1.0239   50.2669   25.8354 H         1 UNK         0.0000 
     37 H37         1.8548   49.6967   23.9573 H         1 UNK         0.0000 
     38 H38         0.1020   49.4538   24.0333 H         1 UNK         0.0000 
     39 H39         1.4732   49.5717   21.6325 H         1 UNK         0.0000 
     40 H40        -0.2411   49.9336   21.8288 H         1 UNK         0.0000 
     41 H41         0.5450   52.0309   20.9552 H         1 UNK         0.0000 
     42 H42         2.0915   51.9011   21.7725 H         1 UNK         0.0000 
     43 H43        -0.6138   52.5700   23.0218 H         1 UNK         0.0000 
     44 H44         0.9376   53.3245   23.2785 H         1 UNK         0.0000 
     45 H45        -1.2687   50.8693   30.0365 H         1 UNK         0.0000 
     46 H46        -1.0702   51.8155   31.4833 H         1 UNK         0.0000 
@<TRIPOS>BOND
     1    1    6 ar   
     2    1    2 ar   
     3    1   27 1    
     4    2    3 ar   
     5    2   28 1    
     6    3    4 ar   
     7    3   29 1    
     8    4    5 ar   
     9    4   26 1    
    10    5    6 ar   
    11    5    7 1    
    12    6   30 1    
    13    7    8 2    
    14    7   31 1    
    15    8    9 1    
    16    8   32 1    
    17    9   10 2    
    18    9   11 am   BACKBONE|DICT|INTERRES
    19   11   12 1    
    20   11   33 1    
    21   12   17 ar   
    22   12   13 ar   
    23   13   14 ar   
    24   13   34 1    
    25   14   15 ar   
    26   14   23 1    
    27   15   16 ar   
    28   15   35 1    
    29   16   17 ar   
    30   16   36 1    
    31   17   18 1    
    32   18   22 1    
    33   18   19 1    
    34   19   20 1    
    35   19   37 1    
    36   19   38 1    
    37   20   21 1    
    38   20   39 1    
    39   20   40 1    
    40   21   22 1    
    41   21   41 1    
    42   21   42 1    
    43   22   43 1    
    44   22   44 1    
    45   23   24 2    
    46   23   25 am   BACKBONE|DICT|INTERRES
    47   25   45 1    
    48   25   46 1    
@<TRIPOS>SUBSTRUCTURE
     1 UNK         1 GROUP             0       ****    0 ROOT    
