ZINC04236425_3351
                    3D
 Schrodinger Suite 2024-2.
 68 72  0  0  1  0            999 V2000
    6.8283   54.6668   27.2730 C   0  0  0  0  0  0
    6.8565   54.6512   25.8462 O   0  0  0  0  0  0
    5.6905   54.3632   25.1566 C   0  0  0  0  0  0
    4.4320   54.2452   25.7646 C   0  0  0  0  0  0
    3.3128   53.9234   25.0042 C   0  0  0  0  0  0
    3.4200   53.6933   23.6250 C   0  0  0  0  0  0
    4.6722   53.8485   23.0138 C   0  0  0  0  0  0
    5.7962   54.1727   23.7772 C   0  0  0  0  0  0
    2.1637   53.3641   22.8383 C   0  0  0  0  0  0
    1.1045   53.8529   23.2459 O   0  0  0  0  0  0
    2.2175   52.5995   21.7020 N   0  0  0  0  0  0
    3.1960   51.5113   21.4658 C   0  0  0  0  0  0
    2.4812   50.1284   21.6015 C   0  0  2  0  0  0
    3.1496   49.3120   21.3467 H   0  0  0  0  0  0
    1.3592   50.0198   20.5719 C   0  0  0  0  0  0
    0.3627   51.1304   20.8894 C   0  0  2  0  0  0
   -0.4255   51.1052   20.1356 H   0  0  0  0  0  0
    1.0342   52.5222   20.8081 C   0  0  0  0  0  0
   -0.2799   50.9143   22.2651 C   0  0  0  0  0  0
   -1.5584   51.2793   22.4908 C   0  0  0  0  0  0
   -2.1033   51.1050   23.8140 C   0  0  0  0  0  0
   -1.3378   50.5688   24.8022 C   0  0  0  0  0  0
    0.0363   50.1135   24.5471 C   0  0  0  0  0  0
    0.7043   49.5646   25.4328 O   0  0  0  0  0  0
    0.5200   50.3389   23.2679 N   0  0  0  0  0  0
    1.9075   49.8570   23.0155 C   0  0  0  0  0  0
   -1.8246   50.3784   26.0817 N   0  0  0  0  0  0
   -2.7316   51.1488   26.7151 C   0  0  0  0  0  0
   -3.0224   52.2958   26.3613 O   0  0  0  0  0  0
   -3.3251   50.5006   27.7381 N   0  0  0  0  0  0
   -4.5071   50.9091   28.3940 C   0  0  0  0  0  0
   -5.4986   51.6792   27.7569 C   0  0  0  0  0  0
   -6.6292   52.1251   28.4512 C   0  0  0  0  0  0
   -6.7751   51.7578   29.7840 C   0  0  0  0  0  0
   -5.8380   50.9564   30.4292 C   0  0  0  0  0  0
   -4.6980   50.5264   29.7240 C   0  0  0  0  0  0
   -6.1122   50.6653   31.7471 O   0  0  0  0  0  0
   -5.2794   49.7464   32.4317 C   0  0  0  0  0  0
   -7.6190   52.9260   27.9143 O   0  0  0  0  0  0
   -7.5011   53.3610   26.5648 C   0  0  0  0  0  0
    7.8365   54.7986   27.6640 H   0  0  0  0  0  0
    6.4477   53.7283   27.6792 H   0  0  0  0  0  0
    6.2246   55.4916   27.6523 H   0  0  0  0  0  0
    4.3052   54.3932   26.8260 H   0  0  0  0  0  0
    2.3587   53.8387   25.5037 H   0  0  0  0  0  0
    4.7855   53.7291   21.9447 H   0  0  0  0  0  0
    6.7590   54.2771   23.2991 H   0  0  0  0  0  0
    3.5695   51.6248   20.4462 H   0  0  0  0  0  0
    4.0865   51.5784   22.0814 H   0  0  0  0  0  0
    1.7547   50.1331   19.5610 H   0  0  0  0  0  0
    0.8798   49.0391   20.6085 H   0  0  0  0  0  0
    0.3051   53.2968   21.0123 H   0  0  0  0  0  0
    1.3738   52.7055   19.7874 H   0  0  0  0  0  0
   -2.1561   51.7273   21.7130 H   0  0  0  0  0  0
   -3.1239   51.4099   23.9985 H   0  0  0  0  0  0
    1.9038   48.7846   23.1952 H   0  0  0  0  0  0
    2.5827   50.2447   23.7779 H   0  0  0  0  0  0
   -1.3995   49.6286   26.6186 H   0  0  0  0  0  0
   -2.8596   49.6713   28.0988 H   0  0  0  0  0  0
   -5.3831   51.9441   26.7180 H   0  0  0  0  0  0
   -7.6478   52.0909   30.3265 H   0  0  0  0  0  0
   -3.9433   49.9182   30.2039 H   0  0  0  0  0  0
   -5.6426   49.6187   33.4526 H   0  0  0  0  0  0
   -5.2988   48.7751   31.9382 H   0  0  0  0  0  0
   -4.2462   50.0970   32.4818 H   0  0  0  0  0  0
   -8.3600   53.9795   26.3086 H   0  0  0  0  0  0
   -6.6042   53.9659   26.4190 H   0  0  0  0  0  0
   -7.4852   52.5192   25.8719 H   0  0  0  0  0  0
  1  2  1  0  0  0
  1 41  1  0  0  0
  1 42  1  0  0  0
  1 43  1  0  0  0
  2  3  1  0  0  0
  3  8  2  0  0  0
  3  4  1  0  0  0
  4  5  2  0  0  0
  4 44  1  0  0  0
  5  6  1  0  0  0
  5 45  1  0  0  0
  6  7  2  0  0  0
  6  9  1  0  0  0
  7  8  1  0  0  0
  7 46  1  0  0  0
  8 47  1  0  0  0
  9 10  2  0  0  0
  9 11  1  0  0  0
 11 18  1  0  0  0
 11 12  1  0  0  0
 12 13  1  0  0  0
 12 48  1  0  0  0
 12 49  1  0  0  0
 13 14  1  0  0  0
 13 26  1  0  0  0
 13 15  1  0  0  0
 15 16  1  0  0  0
 15 50  1  0  0  0
 15 51  1  0  0  0
 16 17  1  0  0  0
 16 18  1  0  0  0
 16 19  1  0  0  0
 18 52  1  0  0  0
 18 53  1  0  0  0
 19 25  1  0  0  0
 19 20  2  0  0  0
 20 21  1  0  0  0
 20 54  1  0  0  0
 21 22  2  0  0  0
 21 55  1  0  0  0
 22 23  1  0  0  0
 22 27  1  0  0  0
 23 24  2  0  0  0
 23 25  1  0  0  0
 25 26  1  0  0  0
 26 56  1  0  0  0
 26 57  1  0  0  0
 27 28  1  0  0  0
 27 58  1  0  0  0
 28 29  2  0  0  0
 28 30  1  0  0  0
 30 31  1  0  0  0
 30 59  1  0  0  0
 31 36  2  0  0  0
 31 32  1  0  0  0
 32 33  2  0  0  0
 32 60  1  0  0  0
 33 34  1  0  0  0
 33 39  1  0  0  0
 34 35  2  0  0  0
 34 61  1  0  0  0
 35 36  1  0  0  0
 35 37  1  0  0  0
 36 62  1  0  0  0
 37 38  1  0  0  0
 38 63  1  0  0  0
 38 64  1  0  0  0
 38 65  1  0  0  0
 39 40  1  0  0  0
 40 66  1  0  0  0
 40 67  1  0  0  0
 40 68  1  0  0  0
M  END
> <i_i_glide_confnum>
58

> <i_i_glide_lignum>
3352

> <i_i_glide_posenum>
116

> <i_i_glide_rotatable_bonds>
9

> <i_m_Source_File_Index>
15

> <b_m_subgroup_collapsed>
0

> <r_i_docking_score>
-5.55295

> <r_i_glide_ecoul>
-7.04444

> <r_i_glide_eff_state_penalty>
0

> <r_i_glide_einternal>
11.1631

> <r_i_glide_emodel>
-64.1597

> <r_i_glide_energy>
-50.962

> <r_i_glide_erotb>
0.458284

> <r_i_glide_esite>
-0.225766

> <r_i_glide_evdw>
-43.9176

> <r_i_glide_gscore>
-5.55295

> <r_i_glide_hbond>
-0.472925

> <r_i_glide_ligand_efficiency>
-0.14613

> <r_i_glide_ligand_efficiency_ln>
-1.19738

> <r_i_glide_ligand_efficiency_sa>
-0.491286

> <r_i_glide_lipo>
-1.98366

> <r_i_glide_metal>
0

> <r_i_glide_rewards>
-0.0763334

> <s_i_glide_gridfile>
wee1_glide-grid

> <s_m_Source_File>
wee1_decoys_glide_SP.sdf

> <s_m_Source_Path>
/Users/zhangxujun/Desktop

> <s_m_entry_id>
290

> <s_m_entry_name>
wee1_decoys_glide_SP.15

> <s_m_subgroup_title>
wee1_decoys_glide_SP

> <s_m_subgroupid>
wee1_decoys_glide_SP


$$$$
