ZINC40333803_1789
                    3D
 Schrodinger Suite 2024-2.
 40 42  0  0  1  0            999 V2000
    6.7962   55.4633   25.0042 C   0  0  0  0  0  0
    5.4990   54.8038   25.4171 C   0  0  0  0  0  0
    4.5367   54.4966   24.4523 C   0  0  0  0  0  0
    3.3225   53.9283   24.8310 C   0  0  0  0  0  0
    3.0771   53.6549   26.1754 C   0  0  0  0  0  0
    4.0302   53.9668   27.1481 C   0  0  0  0  0  0
    5.2478   54.5323   26.7662 C   0  0  0  0  0  0
    3.6652   53.6503   28.8719 S   0  0  0  0  0  0
    3.6621   52.1956   29.0621 O   0  0  0  0  0  0
    4.5462   54.4968   29.6817 O   0  0  0  0  0  0
    2.0145   54.2273   29.0931 N   0  0  0  0  0  0
    1.6945   55.6638   28.9466 C   0  0  0  0  0  0
    1.2840   56.0284   30.3608 C   0  0  0  0  0  0
    0.5689   54.7928   30.8821 C   0  0  0  0  0  0
    1.1401   53.5897   30.1128 C   0  0  1  0  0  0
    1.7209   52.9371   30.7679 H   0  0  0  0  0  0
    0.0874   52.7556   29.3977 C   0  0  0  0  0  0
   -0.2655   52.6289   28.0535 C   0  0  0  0  0  0
   -1.2960   51.6968   27.9316 C   0  0  0  0  0  0
   -1.6143   51.2967   29.2111 C   0  0  0  0  0  0
   -0.7561   51.9138   30.0821 N   0  0  0  0  0  0
   -0.7634   51.7771   31.0870 H   0  0  0  0  0  0
    2.3605   53.6314   23.8675 N   0  0  0  0  0  0
    7.1045   56.1808   25.7623 H   0  0  0  0  0  0
    6.6857   56.0197   24.0726 H   0  0  0  0  0  0
    7.5726   54.7100   24.8823 H   0  0  0  0  0  0
    4.7297   54.7057   23.4109 H   0  0  0  0  0  0
    2.1486   53.1938   26.4658 H   0  0  0  0  0  0
    5.9875   54.7767   27.5166 H   0  0  0  0  0  0
    2.4930   56.2406   28.4820 H   0  0  0  0  0  0
    0.8425   55.7694   28.2736 H   0  0  0  0  0  0
    2.1743   56.2465   30.9454 H   0  0  0  0  0  0
    0.6636   56.9203   30.3988 H   0  0  0  0  0  0
    0.7040   54.6888   31.9593 H   0  0  0  0  0  0
   -0.4956   54.8963   30.6900 H   0  0  0  0  0  0
    0.1854   53.1612   27.2335 H   0  0  0  0  0  0
   -1.7662   51.3616   27.0193 H   0  0  0  0  0  0
   -2.3378   50.5790   29.5777 H   0  0  0  0  0  0
    1.5624   53.0734   24.1313 H   0  0  0  0  0  0
    2.5995   53.7369   22.8912 H   0  0  0  0  0  0
  1  2  1  0  0  0
  1 24  1  0  0  0
  1 25  1  0  0  0
  1 26  1  0  0  0
  2  7  2  0  0  0
  2  3  1  0  0  0
  3  4  2  0  0  0
  3 27  1  0  0  0
  4  5  1  0  0  0
  4 23  1  0  0  0
  5  6  2  0  0  0
  5 28  1  0  0  0
  6  7  1  0  0  0
  6  8  1  0  0  0
  7 29  1  0  0  0
  8  9  2  0  0  0
  8 10  2  0  0  0
  8 11  1  0  0  0
 11 15  1  0  0  0
 11 12  1  0  0  0
 12 13  1  0  0  0
 12 30  1  0  0  0
 12 31  1  0  0  0
 13 14  1  0  0  0
 13 32  1  0  0  0
 13 33  1  0  0  0
 14 15  1  0  0  0
 14 34  1  0  0  0
 14 35  1  0  0  0
 15 16  1  0  0  0
 15 17  1  0  0  0
 17 21  1  0  0  0
 17 18  2  0  0  0
 18 19  1  0  0  0
 18 36  1  0  0  0
 19 20  2  0  0  0
 19 37  1  0  0  0
 20 21  1  0  0  0
 20 38  1  0  0  0
 21 22  1  0  0  0
 23 39  1  0  0  0
 23 40  1  0  0  0
M  END
> <i_i_glide_confnum>
6

> <i_i_glide_lignum>
1790

> <i_i_glide_posenum>
226

> <i_i_glide_rotatable_bonds>
3

> <i_m_Source_File_Index>
71

> <b_m_subgroup_collapsed>
0

> <r_i_docking_score>
-5.34674

> <r_i_glide_ecoul>
-3.54127

> <r_i_glide_eff_state_penalty>
0

> <r_i_glide_einternal>
6.26031

> <r_i_glide_emodel>
-43.9913

> <r_i_glide_energy>
-38.645

> <r_i_glide_erotb>
0.593668

> <r_i_glide_esite>
-0.0673335

> <r_i_glide_evdw>
-35.1038

> <r_i_glide_gscore>
-5.34674

> <r_i_glide_hbond>
-0.0974428

> <r_i_glide_ligand_efficiency>
-0.254607

> <r_i_glide_ligand_efficiency_ln>
-1.32197

> <r_i_glide_ligand_efficiency_sa>
-0.70244

> <r_i_glide_lipo>
-2.91958

> <r_i_glide_metal>
0

> <r_i_glide_rewards>
-0.569674

> <s_i_glide_gridfile>
wee1_glide-grid

> <s_m_Source_File>
wee1_decoys_glide_SP.sdf

> <s_m_Source_Path>
/Users/zhangxujun/Desktop

> <s_m_entry_id>
346

> <s_m_entry_name>
wee1_decoys_glide_SP.71

> <s_m_subgroup_title>
wee1_decoys_glide_SP

> <s_m_subgroupid>
wee1_decoys_glide_SP


$$$$
