@<TRIPOS>MOLECULE
ZINC15277227_967
60   63    1
SMALL
USER_CHARGES


@<TRIPOS>ATOM
      1 C1         -5.9345   50.3690   18.3984 C.3       1 UNK         0.0000 
      2 C2         -6.1546   48.8651   18.1685 C.3       1 UNK         0.0000 
      3 C3         -5.0533   47.9520   18.7450 C.3       1 UNK         0.0000 
      4 O4         -3.8167   48.0741   18.0460 O.3       1 UNK         0.0000 
      5 C5         -2.8513   48.9234   18.4618 C.2       1 UNK         0.0000 
      6 O6         -2.9223   49.6544   19.4556 O.2       1 UNK         0.0000 
      7 C7         -1.5994   48.8664   17.5575 C.3       1 UNK         0.0000 
      8 C8         -1.2848   50.3007   17.0993 C.2       1 UNK         0.0000 
      9 N9         -0.3893   51.0356   17.6390 N.2       1 UNK         0.0000 
     10 C10         0.3488   50.6053   18.7041 C.2       1 UNK         0.0000 
     11 C11         0.4611   49.2876   19.0628 C.2       1 UNK         0.0000 
     12 C12        -0.3281   48.2243   18.2477 C.3       1 UNK         0.0000 
     13 H13         0.3648   47.9844   17.4375 H         1 UNK         0.0000 
     14 C14        -0.5927   46.8536   18.9234 C.ar      1 UNK         0.0000 
     15 C15        -0.1054   45.6754   18.3490 C.ar      1 UNK         0.0000 
     16 C16        -0.2253   44.4259   18.9837 C.ar      1 UNK         0.0000 
     17 C17        -0.8957   44.3843   20.2281 C.ar      1 UNK         0.0000 
     18 C18        -1.4331   45.5515   20.8101 C.ar      1 UNK         0.0000 
     19 C19        -1.2497   46.7753   20.1518 C.ar      1 UNK         0.0000 
     20 O20        -2.0962   45.4502   22.0300 O.3       1 UNK         0.0000 
     21 C21        -2.5434   46.6289   22.6920 C.3       1 UNK         0.0000 
     22 N22         0.3787   43.2229   18.3296 N.pl3     1 UNK         0.0000 
     23 O23         0.9514   43.3813   17.2551 O.co2     1 UNK         0.0000 
     24 O24         0.3045   42.1057   18.8441 O.co2     1 UNK         0.0000 
     25 C25         1.5023   48.8534   20.0192 C.2       1 UNK         0.0000 
     26 O26         1.9044   47.6966   20.0816 O.2       1 UNK         0.0000 
     27 C27         2.1928   49.9424   20.8431 C.3       1 UNK         0.0000 
     28 C28         2.4688   51.1976   19.9967 C.3       1 UNK         0.0000 
     29 H29         3.1046   50.8828   19.1635 H         1 UNK         0.0000 
     30 C30         1.1500   51.7254   19.3842 C.3       1 UNK         0.0000 
     31 C31         3.2278   52.2545   20.7778 C.2       1 UNK         0.0000 
     32 C32         4.4567   52.8438   20.4811 C.2       1 UNK         0.0000 
     33 C33         4.8865   53.7914   21.4153 C.2       1 UNK         0.0000 
     34 C34         3.9932   53.9454   22.4591 C.2       1 UNK         0.0000 
     35 S35         2.6145   52.9175   22.2739 S.3       1 UNK         0.0000 
     36 C36        -2.0515   50.8855   15.9270 C.3       1 UNK         0.0000 
     37 H37        -6.7914   50.9445   18.0473 H         1 UNK         0.0000 
     38 H38        -5.7978   50.5936   19.4567 H         1 UNK         0.0000 
     39 H39        -5.0586   50.7340   17.8622 H         1 UNK         0.0000 
     40 H40        -6.2669   48.6705   17.1013 H         1 UNK         0.0000 
     41 H41        -7.1049   48.5833   18.6232 H         1 UNK         0.0000 
     42 H42        -5.3727   46.9148   18.6420 H         1 UNK         0.0000 
     43 H43        -4.9306   48.1192   19.8168 H         1 UNK         0.0000 
     44 H44        -1.8497   48.2713   16.6795 H         1 UNK         0.0000 
     45 H45         0.4165   45.7451   17.4049 H         1 UNK         0.0000 
     46 H46        -1.5946   47.6922   20.6025 H         1 UNK         0.0000 
     47 H47        -3.0097   46.3543   23.6382 H         1 UNK         0.0000 
     48 H48        -3.2879   47.1634   22.0992 H         1 UNK         0.0000 
     49 H49        -1.7127   47.3000   22.9173 H         1 UNK         0.0000 
     50 H50         3.1046   49.5335   21.2797 H         1 UNK         0.0000 
     51 H51         1.5374   50.1881   21.6783 H         1 UNK         0.0000 
     52 H52         1.3656   52.5426   18.6925 H         1 UNK         0.0000 
     53 H53         0.5134   52.1490   20.1618 H         1 UNK         0.0000 
     54 H54         5.0241   52.5834   19.5980 H         1 UNK         0.0000 
     55 H55         5.8132   54.3402   21.3304 H         1 UNK         0.0000 
     56 H56         4.0721   54.6029   23.3117 H         1 UNK         0.0000 
     57 H57        -1.9052   50.2788   15.0336 H         1 UNK         0.0000 
     58 H58        -3.1201   50.9156   16.1390 H         1 UNK         0.0000 
     59 H59        -1.7340   51.9021   15.6885 H         1 UNK         0.0000 
     60 O60        -0.9996   43.2967   20.8819 O.co2     1 UNK         0.0000 
@<TRIPOS>BOND
     1    1    2 1    
     2    1   37 1    
     3    1   38 1    
     4    1   39 1    
     5    2    3 1    
     6    2   40 1    
     7    2   41 1    
     8    3    4 1    
     9    3   42 1    
    10    3   43 1    
    11    4    5 1    
    12    5    6 2    
    13    5    7 1    
    14    7   12 1    
    15    7    8 1    
    16    7   44 1    
    17    8   36 1    
    18    8    9 2    
    19    9   10 1    
    20   10   30 1    
    21   10   11 2    
    22   11   12 1    
    23   11   25 1    
    24   12   13 1    
    25   12   14 1    
    26   14   19 ar   
    27   14   15 ar   
    28   15   16 ar   
    29   15   45 1    
    30   16   17 ar   
    31   16   22 1    
    32   17   18 ar   
    33   17   60 1    
    34   18   19 ar   
    35   18   20 1    
    36   19   46 1    
    37   20   21 1    
    38   21   47 1    
    39   21   48 1    
    40   21   49 1    
    41   22   23 2    
    42   22   24 1    
    43   25   26 2    
    44   25   27 1    
    45   27   28 1    
    46   27   50 1    
    47   27   51 1    
    48   28   29 1    
    49   28   30 1    
    50   28   31 1    
    51   30   52 1    
    52   30   53 1    
    53   31   35 1    
    54   31   32 2    
    55   32   33 1    
    56   32   54 1    
    57   33   34 2    
    58   33   55 1    
    59   34   35 1    
    60   34   56 1    
    61   36   57 1    
    62   36   58 1    
    63   36   59 1    
@<TRIPOS>SUBSTRUCTURE
     1 UNK         1 GROUP             0       ****    0 ROOT    
