@<TRIPOS>MOLECULE
ZINC02618592_2994
56   59    1
SMALL
USER_CHARGES


@<TRIPOS>ATOM
      1 C1          6.4808   53.6108   27.4534 C.3       1 UNK         0.0000 
      2 O2          6.3523   54.7545   26.6182 O.3       1 UNK         0.0000 
      3 C3          5.8262   54.4969   25.3750 C.ar      1 UNK         0.0000 
      4 C4          6.7033   54.4064   24.2976 C.ar      1 UNK         0.0000 
      5 C5          6.2240   54.1893   23.0078 C.ar      1 UNK         0.0000 
      6 C6          4.8499   54.0625   22.7666 C.ar      1 UNK         0.0000 
      7 C7          3.9739   54.1593   23.8562 C.ar      1 UNK         0.0000 
      8 C8          4.4462   54.3463   25.1680 C.ar      1 UNK         0.0000 
      9 O9          3.6143   54.4073   26.2691 O.3       1 UNK         0.0000 
     10 C10         2.3783   53.6974   26.2231 C.3       1 UNK         0.0000 
     11 C11         4.2941   53.9430   21.3312 C.3       1 UNK         0.0000 
     12 H12         3.2948   54.3814   21.3358 H         1 UNK         0.0000 
     13 C13         5.1045   54.6780   20.2789 C.2       1 UNK         0.0000 
     14 C14         5.5043   53.8144   19.3387 C.2       1 UNK         0.0000 
     15 N15         5.0796   52.5428   19.6859 N.pl3     1 UNK         0.0000 
     16 N16         4.2107   52.5743   20.7919 N.am      1 UNK         0.0000 
     17 C17         3.3289   51.5785   21.0706 C.2       1 UNK         0.0000 
     18 O18         3.3487   50.4966   20.4814 O.2       1 UNK         0.0000 
     19 C19         2.2733   51.8277   22.1676 C.3       1 UNK         0.0000 
     20 O20         1.3464   50.7396   22.2673 O.3       1 UNK         0.0000 
     21 C21         0.6613   50.5028   23.4229 C.2       1 UNK         0.0000 
     22 O22         0.8151   51.1639   24.4545 O.2       1 UNK         0.0000 
     23 C23        -0.2619   49.3277   23.3383 C.ar      1 UNK         0.0000 
     24 C24        -0.6976   48.8148   22.1071 C.ar      1 UNK         0.0000 
     25 C25        -1.5914   47.7439   22.0627 C.ar      1 UNK         0.0000 
     26 C26        -2.0659   47.1698   23.2420 C.ar      1 UNK         0.0000 
     27 C27        -1.6412   47.6747   24.4788 C.ar      1 UNK         0.0000 
     28 C28        -0.7435   48.7433   24.5204 C.ar      1 UNK         0.0000 
     29 N29        -2.0964   47.1339   25.6827 N.pl3     1 UNK         0.0000 
     30 Cl30       -3.1630   45.8332   23.1334 Cl        1 UNK         0.0000 
     31 C31         6.1845   54.0802   18.0827 C.2       1 UNK         0.0000 
     32 C32         6.1359   55.2651   17.3500 C.2       1 UNK         0.0000 
     33 C33         6.8967   55.2261   16.1763 C.2       1 UNK         0.0000 
     34 C34         7.5307   54.0055   15.9945 C.2       1 UNK         0.0000 
     35 S35         7.1833   52.8973   17.2817 S.3       1 UNK         0.0000 
     36 H36         6.8616   53.9128   28.4299 H         1 UNK         0.0000 
     37 H37         5.5271   53.1028   27.6075 H         1 UNK         0.0000 
     38 H38         7.1900   52.8968   27.0317 H         1 UNK         0.0000 
     39 H39         7.7614   54.5039   24.4763 H         1 UNK         0.0000 
     40 H40         6.9270   54.1482   22.1913 H         1 UNK         0.0000 
     41 H41         2.9118   54.1269   23.6754 H         1 UNK         0.0000 
     42 H42         1.8937   53.7623   27.1956 H         1 UNK         0.0000 
     43 H43         1.6826   54.0983   25.4873 H         1 UNK         0.0000 
     44 H44         2.5434   52.6406   26.0081 H         1 UNK         0.0000 
     45 H45         5.2487   55.7461   20.2817 H         1 UNK         0.0000 
     46 H46         4.9025   51.7189   19.0996 H         1 UNK         0.0000 
     47 H47         1.7052   52.7204   21.8993 H         1 UNK         0.0000 
     48 H48         2.7632   52.0026   23.1197 H         1 UNK         0.0000 
     49 H49        -0.3528   49.2388   21.1737 H         1 UNK         0.0000 
     50 H50        -1.9148   47.3583   21.1066 H         1 UNK         0.0000 
     51 H51        -0.4274   49.1177   25.4853 H         1 UNK         0.0000 
     52 H52        -1.7839   47.5430   26.5670 H         1 UNK         0.0000 
     53 H53        -2.8800   46.5016   25.6754 H         1 UNK         0.0000 
     54 H54         5.5678   56.1308   17.6565 H         1 UNK         0.0000 
     55 H55         6.9786   56.0560   15.4872 H         1 UNK         0.0000 
     56 H56         8.1722   53.7072   15.1789 H         1 UNK         0.0000 
@<TRIPOS>BOND
     1    1    2 1    
     2    1   36 1    
     3    1   37 1    
     4    1   38 1    
     5    2    3 1    
     6    3    8 ar   
     7    3    4 ar   
     8    4    5 ar   
     9    4   39 1    
    10    5    6 ar   
    11    5   40 1    
    12    6    7 ar   
    13    6   11 1    
    14    7    8 ar   
    15    7   41 1    
    16    8    9 1    
    17    9   10 1    
    18   10   42 1    
    19   10   43 1    
    20   10   44 1    
    21   11   12 1    
    22   11   16 1    
    23   11   13 1    
    24   13   14 2    
    25   13   45 1    
    26   14   15 1    
    27   14   31 1    
    28   15   16 1    
    29   15   46 1    
    30   16   17 am   BACKBONE|DICT|INTERRES
    31   17   18 2    
    32   17   19 1    
    33   19   20 1    
    34   19   47 1    
    35   19   48 1    
    36   20   21 1    
    37   21   22 2    
    38   21   23 1    
    39   23   28 ar   
    40   23   24 ar   
    41   24   25 ar   
    42   24   49 1    
    43   25   26 ar   
    44   25   50 1    
    45   26   27 ar   
    46   26   30 1    
    47   27   28 ar   
    48   27   29 1    
    49   28   51 1    
    50   29   52 1    
    51   29   53 1    
    52   31   35 1    
    53   31   32 2    
    54   32   33 1    
    55   32   54 1    
    56   33   34 2    
    57   33   55 1    
    58   34   35 1    
    59   34   56 1    
@<TRIPOS>SUBSTRUCTURE
     1 UNK         1 GROUP             0       ****    0 ROOT    
