@<TRIPOS>MOLECULE
ZINC27531053_2053
61   65    1
SMALL
USER_CHARGES


@<TRIPOS>ATOM
      1 C1          0.5063   53.2292   14.0114 C.3       1 UNK         0.0000 
      2 C2          1.7108   53.2980   14.9315 C.ar      1 UNK         0.0000 
      3 C3          2.8206   52.4876   14.6900 C.ar      1 UNK         0.0000 
      4 C4          3.9209   52.5433   15.5408 C.ar      1 UNK         0.0000 
      5 C5          3.9121   53.3947   16.6527 C.ar      1 UNK         0.0000 
      6 C6          2.7964   54.2122   16.8828 C.ar      1 UNK         0.0000 
      7 C7          1.6981   54.1579   16.0299 C.ar      1 UNK         0.0000 
      8 C8          5.1206   53.4724   17.5394 C.2       1 UNK         0.0000 
      9 O9          6.2451   53.2968   17.0642 O.2       1 UNK         0.0000 
     10 C10         4.9798   53.6985   19.0089 C.2       1 UNK         0.0000 
     11 C11         4.0177   53.0949   19.7616 C.2       1 UNK         0.0000 
     12 N12         3.9178   53.3101   21.1528 N.pl3     1 UNK         0.0000 
     13 C13         4.8602   54.1130   21.8353 C.2       1 UNK         0.0000 
     14 C14         5.8973   54.7168   21.1683 C.2       1 UNK         0.0000 
     15 C15         6.0618   54.6156   19.6223 C.3       1 UNK         0.0000 
     16 H16         7.0058   54.0976   19.4358 H         1 UNK         0.0000 
     17 C17         6.3335   55.9432   18.8624 C.ar      1 UNK         0.0000 
     18 C18         5.2701   56.7045   18.3665 C.ar      1 UNK         0.0000 
     19 C19         5.5044   57.8961   17.6816 C.ar      1 UNK         0.0000 
     20 C20         6.8027   58.3723   17.5278 C.ar      1 UNK         0.0000 
     21 C21         7.8916   57.6350   18.0099 C.ar      1 UNK         0.0000 
     22 C22         7.6416   56.4029   18.6337 C.ar      1 UNK         0.0000 
     23 N23         9.2738   58.1537   17.8796 N.pl3     1 UNK         0.0000 
     24 O24        10.2094   57.3844   18.0736 O.co2     1 UNK         0.0000 
     25 O25         9.4314   59.3396   17.5989 O.co2     1 UNK         0.0000 
     26 C26         7.0025   55.3846   21.9106 C.2       1 UNK         0.0000 
     27 O27         8.0609   55.6968   21.3751 O.2       1 UNK         0.0000 
     28 C28         6.8567   55.5707   23.4262 C.3       1 UNK         0.0000 
     29 C29         6.1405   54.3721   24.0432 C.3       1 UNK         0.0000 
     30 C30         4.7694   54.1791   23.3833 C.3       1 UNK         0.0000 
     31 C31         2.8625   52.7028   21.8993 C.ar      1 UNK         0.0000 
     32 C32         2.8001   51.3084   22.0386 C.ar      1 UNK         0.0000 
     33 C33         1.7992   50.7127   22.8010 C.ar      1 UNK         0.0000 
     34 C34         0.8464   51.5117   23.4264 C.ar      1 UNK         0.0000 
     35 C35         0.8846   52.8968   23.2897 C.ar      1 UNK         0.0000 
     36 C36         1.8874   53.4884   22.5251 C.ar      1 UNK         0.0000 
     37 N37         3.1045   52.1966   19.2383 N.pl3     1 UNK         0.0000 
     38 H38         0.5729   53.9925   13.2350 H         1 UNK         0.0000 
     39 H39         0.4267   52.2487   13.5386 H         1 UNK         0.0000 
     40 H40        -0.4169   53.3823   14.5711 H         1 UNK         0.0000 
     41 H41         2.8358   51.8129   13.8460 H         1 UNK         0.0000 
     42 H42         4.7706   51.9040   15.3415 H         1 UNK         0.0000 
     43 H43         2.7607   54.8809   17.7309 H         1 UNK         0.0000 
     44 H44         0.8404   54.7849   16.2248 H         1 UNK         0.0000 
     45 H45         4.2536   56.3742   18.5140 H         1 UNK         0.0000 
     46 H46         4.6767   58.4750   17.2960 H         1 UNK         0.0000 
     47 H47         6.9511   59.3229   17.0325 H         1 UNK         0.0000 
     48 H48         8.4788   55.8109   18.9767 H         1 UNK         0.0000 
     49 H49         6.3044   56.4846   23.6078 H         1 UNK         0.0000 
     50 H50         7.8260   55.7597   23.8788 H         1 UNK         0.0000 
     51 H51         6.0254   54.5111   25.1191 H         1 UNK         0.0000 
     52 H52         6.7511   53.4748   23.9164 H         1 UNK         0.0000 
     53 H53         4.0202   54.8966   23.7156 H         1 UNK         0.0000 
     54 H54         4.4590   53.2229   23.7920 H         1 UNK         0.0000 
     55 H55         3.5462   50.6847   21.5671 H         1 UNK         0.0000 
     56 H56         1.7699   49.6382   22.9162 H         1 UNK         0.0000 
     57 H57         0.0726   51.0524   24.0248 H         1 UNK         0.0000 
     58 H58         0.1426   53.5107   23.7784 H         1 UNK         0.0000 
     59 H59         1.9151   54.5632   22.4249 H         1 UNK         0.0000 
     60 H60         3.2485   51.8046   18.3166 H         1 UNK         0.0000 
     61 H61         2.3937   51.7800   19.8199 H         1 UNK         0.0000 
@<TRIPOS>BOND
     1    1    2 1    
     2    1   38 1    
     3    1   39 1    
     4    1   40 1    
     5    2    7 ar   
     6    2    3 ar   
     7    3    4 ar   
     8    3   41 1    
     9    4    5 ar   
    10    4   42 1    
    11    5    6 ar   
    12    5    8 1    
    13    6    7 ar   
    14    6   43 1    
    15    7   44 1    
    16    8    9 2    
    17    8   10 1    
    18   10   15 1    
    19   10   11 2    
    20   11   12 1    
    21   11   37 1    
    22   12   13 1    
    23   12   31 1    
    24   13   30 1    
    25   13   14 2    
    26   14   15 1    
    27   14   26 1    
    28   15   16 1    
    29   15   17 1    
    30   17   22 ar   
    31   17   18 ar   
    32   18   19 ar   
    33   18   45 1    
    34   19   20 ar   
    35   19   46 1    
    36   20   21 ar   
    37   20   47 1    
    38   21   22 ar   
    39   21   23 1    
    40   22   48 1    
    41   23   24 2    
    42   23   25 1    
    43   26   27 2    
    44   26   28 1    
    45   28   29 1    
    46   28   49 1    
    47   28   50 1    
    48   29   30 1    
    49   29   51 1    
    50   29   52 1    
    51   30   53 1    
    52   30   54 1    
    53   31   36 ar   
    54   31   32 ar   
    55   32   33 ar   
    56   32   55 1    
    57   33   34 ar   
    58   33   56 1    
    59   34   35 ar   
    60   34   57 1    
    61   35   36 ar   
    62   35   58 1    
    63   36   59 1    
    64   37   60 1    
    65   37   61 1    
@<TRIPOS>SUBSTRUCTURE
     1 UNK         1 GROUP             0       ****    0 ROOT    
