@<TRIPOS>MOLECULE
ZINC54600177_1762
40   41    1
SMALL
USER_CHARGES


@<TRIPOS>ATOM
      1 C1         -0.7369   50.0746   25.6148 C.3       1 UNK         0.0000 
      2 C2         -1.6279   51.1780   26.2317 C.3       1 UNK         0.0000 
      3 C3         -1.8635   52.2922   25.1824 C.3       1 UNK         0.0000 
      4 C4         -3.0007   50.5641   26.5956 C.3       1 UNK         0.0000 
      5 C5         -0.9347   51.7594   27.4731 C.ar      1 UNK         0.0000 
      6 C6         -1.2953   51.6967   28.8271 C.ar      1 UNK         0.0000 
      7 C7         -0.3488   52.3994   29.5391 C.ar      1 UNK         0.0000 
      8 N8          0.5650   52.8041   28.5866 N.pl3     1 UNK         0.0000 
      9 N9          0.1912   52.4285   27.3506 N.2       1 UNK         0.0000 
     10 C10         1.8655   53.4888   28.7994 C.3       1 UNK         0.0000 
     11 H11         1.6145   54.4463   29.2577 H         1 UNK         0.0000 
     12 C12         2.6320   53.7681   27.4666 C.3       1 UNK         0.0000 
     13 C13         4.0342   54.3551   27.7089 C.3       1 UNK         0.0000 
     14 C14         4.8791   53.4565   28.6268 C.3       1 UNK         0.0000 
     15 C15         4.1507   53.1720   29.9560 C.3       1 UNK         0.0000 
     16 C16         2.7352   52.6208   29.7519 C.3       1 UNK         0.0000 
     17 H17         2.2814   52.5570   30.7389 H         1 UNK         0.0000 
     18 O18         2.8272   51.2969   29.2817 O.3       1 UNK         0.0000 
     19 N19        -0.2166   52.6271   30.8810 N.pl3     1 UNK         0.0000 
     20 H20        -1.2079   49.6080   24.7489 H         1 UNK         0.0000 
     21 H21        -0.5281   49.2854   26.3395 H         1 UNK         0.0000 
     22 H22         0.2281   50.4681   25.2924 H         1 UNK         0.0000 
     23 H23        -2.4830   53.0930   25.5884 H         1 UNK         0.0000 
     24 H24        -0.9271   52.7478   24.8571 H         1 UNK         0.0000 
     25 H25        -2.3631   51.9088   24.2917 H         1 UNK         0.0000 
     26 H26        -3.6519   51.2945   27.0773 H         1 UNK         0.0000 
     27 H27        -3.5237   50.1922   25.7137 H         1 UNK         0.0000 
     28 H28        -2.8956   49.7233   27.2819 H         1 UNK         0.0000 
     29 H29        -2.1500   51.1820   29.2398 H         1 UNK         0.0000 
     30 H30         2.6944   52.8745   26.8424 H         1 UNK         0.0000 
     31 H31         2.0709   54.4968   26.8833 H         1 UNK         0.0000 
     32 H32         3.9340   55.3315   28.1755 H         1 UNK         0.0000 
     33 H33         4.5477   54.5127   26.7593 H         1 UNK         0.0000 
     34 H34         5.8454   53.9243   28.8228 H         1 UNK         0.0000 
     35 H35         5.0957   52.5147   28.1186 H         1 UNK         0.0000 
     36 H36         4.0943   54.1256   30.4811 H         1 UNK         0.0000 
     37 H37         4.7044   52.4657   30.5692 H         1 UNK         0.0000 
     38 H38         1.9817   51.0562   28.8881 H         1 UNK         0.0000 
     39 H39        -0.7851   52.0968   31.5478 H         1 UNK         0.0000 
     40 H40         0.0267   53.5439   31.2228 H         1 UNK         0.0000 
@<TRIPOS>BOND
     1    1    2 1    
     2    1   20 1    
     3    1   21 1    
     4    1   22 1    
     5    2    3 1    
     6    2    4 1    
     7    2    5 1    
     8    3   23 1    
     9    3   24 1    
    10    3   25 1    
    11    4   26 1    
    12    4   27 1    
    13    4   28 1    
    14    5    9 ar   
    15    5    6 ar   
    16    6    7 ar   
    17    6   29 1    
    18    7    8 ar   
    19    7   19 1    
    20    8    9 ar   
    21    8   10 1    
    22   10   11 1    
    23   10   16 1    
    24   10   12 1    
    25   12   13 1    
    26   12   30 1    
    27   12   31 1    
    28   13   14 1    
    29   13   32 1    
    30   13   33 1    
    31   14   15 1    
    32   14   34 1    
    33   14   35 1    
    34   15   16 1    
    35   15   36 1    
    36   15   37 1    
    37   16   17 1    
    38   16   18 1    
    39   18   38 1    
    40   19   39 1    
    41   19   40 1    
@<TRIPOS>SUBSTRUCTURE
     1 UNK         1 GROUP             0       ****    0 ROOT    
