@<TRIPOS>MOLECULE
ZINC22242844_617
55   58    1
SMALL
USER_CHARGES


@<TRIPOS>ATOM
      1 C1         -3.3351   51.9196   26.2805 C.ar      1 UNK         0.0000 
      2 C2         -3.4031   52.7018   25.1297 C.ar      1 UNK         0.0000 
      3 C3         -2.4943   52.4920   24.0952 C.ar      1 UNK         0.0000 
      4 C4         -1.5189   51.4880   24.2133 C.ar      1 UNK         0.0000 
      5 C5         -1.4519   50.7195   25.3793 C.ar      1 UNK         0.0000 
      6 C6         -2.3624   50.9306   26.4101 C.ar      1 UNK         0.0000 
      7 N7         -0.5547   51.2015   23.2307 N.am      1 UNK         0.0000 
      8 C8         -0.5536   51.5155   21.9163 C.2       1 UNK         0.0000 
      9 O9         -1.4701   52.0962   21.3312 O.2       1 UNK         0.0000 
     10 C10         0.6929   51.0782   21.1169 C.3       1 UNK         0.0000 
     11 H11         1.3908   50.6519   21.8418 H         1 UNK         0.0000 
     12 C12         0.2910   49.9925   20.0881 C.3       1 UNK         0.0000 
     13 C13         1.5237   49.5998   19.2477 C.3       1 UNK         0.0000 
     14 C14         2.1993   50.8196   18.5909 C.3       1 UNK         0.0000 
     15 N15         2.6140   51.8230   19.6988 N.4       1 UNK         0.0000 
     16 C16         1.3403   52.3136   20.4419 C.3       1 UNK         0.0000 
     17 C17         3.4165   53.0011   19.0647 C.3       1 UNK         0.0000 
     18 C18         4.3900   53.6913   20.0468 C.2       1 UNK         0.0000 
     19 O19         5.3271   54.3271   19.5676 O.2       1 UNK         0.0000 
     20 N20         4.1448   53.5842   21.3716 N.am      1 UNK         0.0000 
     21 C21         4.8751   54.0968   22.4353 C.2       1 UNK         0.0000 
     22 N22         4.4214   53.9856   23.6565 N.2       1 UNK         0.0000 
     23 C23         5.2397   54.4644   24.5830 C.2       1 UNK         0.0000 
     24 C24         6.4145   55.0092   24.0462 C.2       1 UNK         0.0000 
     25 S25         6.4167   54.8966   22.3144 S.3       1 UNK         0.0000 
     26 C26         4.8599   54.3584   26.0400 C.ar      1 UNK         0.0000 
     27 C27         3.5261   54.0976   26.4018 C.ar      1 UNK         0.0000 
     28 C28         3.1498   53.9827   27.7391 C.ar      1 UNK         0.0000 
     29 C29         4.1026   54.1210   28.7441 C.ar      1 UNK         0.0000 
     30 C30         5.4292   54.3799   28.4093 C.ar      1 UNK         0.0000 
     31 C31         5.8062   54.4971   27.0715 C.ar      1 UNK         0.0000 
     32 F32         7.1044   54.7413   26.7990 F         1 UNK         0.0000 
     33 F33         1.8595   53.7398   28.0598 F         1 UNK         0.0000 
     34 H34        -4.0426   52.0780   27.0811 H         1 UNK         0.0000 
     35 H35        -4.1585   53.4685   25.0396 H         1 UNK         0.0000 
     36 H36        -2.5610   53.1219   23.2227 H         1 UNK         0.0000 
     37 H37        -0.7061   49.9451   25.4969 H         1 UNK         0.0000 
     38 H38        -2.3139   50.3203   27.3020 H         1 UNK         0.0000 
     39 H39         0.2097   50.6315   23.5597 H         1 UNK         0.0000 
     40 H40        -0.4477   50.3721   19.3776 H         1 UNK         0.0000 
     41 H41        -0.0661   49.0837   20.5777 H         1 UNK         0.0000 
     42 H42         1.2340   48.8915   18.4696 H         1 UNK         0.0000 
     43 H43         2.2515   49.0714   19.8668 H         1 UNK         0.0000 
     44 H44         1.5543   51.3393   17.8796 H         1 UNK         0.0000 
     45 H45         3.1043   50.4969   18.0817 H         1 UNK         0.0000 
     46 H46         1.6286   53.0594   21.1823 H         1 UNK         0.0000 
     47 H47         0.7052   52.7810   19.6844 H         1 UNK         0.0000 
     48 H48         2.7066   53.6978   18.6154 H         1 UNK         0.0000 
     49 H49         4.0144   52.5623   18.2615 H         1 UNK         0.0000 
     50 H50         3.2969   53.1097   21.6337 H         1 UNK         0.0000 
     51 H51         7.2562   55.4653   24.5425 H         1 UNK         0.0000 
     52 H52         2.7599   53.9855   25.6492 H         1 UNK         0.0000 
     53 H53         3.8113   54.0286   29.7786 H         1 UNK         0.0000 
     54 H54         6.1732   54.4951   29.1850 H         1 UNK         0.0000 
     55 H55         3.2385   51.3349   20.3274 H         1 UNK         0.0000 
@<TRIPOS>BOND
     1    1    6 ar   
     2    1    2 ar   
     3    1   34 1    
     4    2    3 ar   
     5    2   35 1    
     6    3    4 ar   
     7    3   36 1    
     8    4    5 ar   
     9    4    7 1    
    10    5    6 ar   
    11    5   37 1    
    12    6   38 1    
    13    7    8 am   BACKBONE|DICT|INTERRES
    14    7   39 1    
    15    8    9 2    
    16    8   10 1    
    17   10   11 1    
    18   10   16 1    
    19   10   12 1    
    20   12   13 1    
    21   12   40 1    
    22   12   41 1    
    23   13   14 1    
    24   13   42 1    
    25   13   43 1    
    26   14   15 1    
    27   14   44 1    
    28   14   45 1    
    29   15   16 1    
    30   15   17 1    
    31   15   55 1    
    32   16   46 1    
    33   16   47 1    
    34   17   18 1    
    35   17   48 1    
    36   17   49 1    
    37   18   19 2    
    38   18   20 am   BACKBONE|DICT|INTERRES
    39   20   21 am   BACKBONE|DICT|INTERRES
    40   20   50 1    
    41   21   25 1    
    42   21   22 2    
    43   22   23 1    
    44   23   24 2    
    45   23   26 1    
    46   24   25 1    
    47   24   51 1    
    48   26   31 ar   
    49   26   27 ar   
    50   27   28 ar   
    51   27   52 1    
    52   28   29 ar   
    53   28   33 1    
    54   29   30 ar   
    55   29   53 1    
    56   30   31 ar   
    57   30   54 1    
    58   31   32 1    
@<TRIPOS>SUBSTRUCTURE
     1 UNK         1 GROUP             0       ****    0 ROOT    
