@<TRIPOS>MOLECULE
ZINC08769247_3926
49   51    1
SMALL
USER_CHARGES


@<TRIPOS>ATOM
      1 C1         -2.5445   51.1807   26.7234 C.3       1 UNK         0.0000 
      2 C2         -1.5586   50.3456   25.9093 C.2       1 UNK         0.0000 
      3 C3         -0.2425   50.6219   25.6721 C.2       1 UNK         0.0000 
      4 C4          0.5634   49.7241   24.6792 C.3       1 UNK         0.0000 
      5 H5          1.5039   49.4627   25.1646 H         1 UNK         0.0000 
      6 N6         -0.1722   48.4532   24.4812 N.pl3     1 UNK         0.0000 
      7 C7         -1.5020   48.2477   24.7022 C.2       1 UNK         0.0000 
      8 S8         -2.2891   46.8976   24.1647 S.2       1 UNK         0.0000 
      9 N9         -2.1407   49.2260   25.3985 N.pl3     1 UNK         0.0000 
     10 C10         0.9563   50.3696   23.3460 C.ar      1 UNK         0.0000 
     11 C11         2.1777   50.0267   22.7647 C.ar      1 UNK         0.0000 
     12 C12         2.5600   50.5820   21.5497 C.ar      1 UNK         0.0000 
     13 C13         1.7210   51.4871   20.8971 C.ar      1 UNK         0.0000 
     14 C14         0.4845   51.8128   21.4622 C.ar      1 UNK         0.0000 
     15 C15         0.0987   51.2488   22.6759 C.ar      1 UNK         0.0000 
     16 C16         2.1553   52.1180   19.5722 C.3       1 UNK         0.0000 
     17 C17         3.4465   52.9442   19.7226 C.3       1 UNK         0.0000 
     18 C18         2.2953   51.0651   18.4573 C.3       1 UNK         0.0000 
     19 C19         0.4448   51.7852   26.2112 C.2       1 UNK         0.0000 
     20 O20         1.0909   52.5401   25.4861 O.2       1 UNK         0.0000 
     21 N21         0.3111   51.9324   27.5484 N.am      1 UNK         0.0000 
     22 C22         0.6951   53.0126   28.3683 C.ar      1 UNK         0.0000 
     23 C23         1.5061   54.0847   27.9556 C.ar      1 UNK         0.0000 
     24 C24         1.7403   55.1638   28.8065 C.ar      1 UNK         0.0000 
     25 C25         1.1838   55.1799   30.0800 C.ar      1 UNK         0.0000 
     26 C26         0.4203   54.0987   30.5203 C.ar      1 UNK         0.0000 
     27 C27         0.1794   53.0205   29.6689 C.ar      1 UNK         0.0000 
     28 F28        -0.0943   54.0965   31.7698 F         1 UNK         0.0000 
     29 F29         1.3860   56.2503   30.8807 F         1 UNK         0.0000 
     30 H30        -2.6463   50.7532   27.7271 H         1 UNK         0.0000 
     31 H31        -2.2301   52.2237   26.8198 H         1 UNK         0.0000 
     32 H32        -3.5353   51.1961   26.2562 H         1 UNK         0.0000 
     33 H33         0.2910   47.6944   24.0058 H         1 UNK         0.0000 
     34 H34        -3.1068   49.0065   25.5856 H         1 UNK         0.0000 
     35 H35         2.8398   49.3310   23.2602 H         1 UNK         0.0000 
     36 H36         3.5084   50.3093   21.1138 H         1 UNK         0.0000 
     37 H37        -0.1782   52.4987   20.9604 H         1 UNK         0.0000 
     38 H38        -0.8589   51.5040   23.1041 H         1 UNK         0.0000 
     39 H39         1.3764   52.8162   19.2586 H         1 UNK         0.0000 
     40 H40         3.3578   53.6745   20.5267 H         1 UNK         0.0000 
     41 H41         3.6644   53.4927   18.8063 H         1 UNK         0.0000 
     42 H42         4.3094   52.3142   19.9389 H         1 UNK         0.0000 
     43 H43         1.3766   50.4921   18.3314 H         1 UNK         0.0000 
     44 H44         2.5250   51.5325   17.4997 H         1 UNK         0.0000 
     45 H45         3.0991   50.3593   18.6721 H         1 UNK         0.0000 
     46 H46        -0.2111   51.1982   28.0033 H         1 UNK         0.0000 
     47 H47         1.9490   54.1244   26.9737 H         1 UNK         0.0000 
     48 H48         2.3384   55.9973   28.4711 H         1 UNK         0.0000 
     49 H49        -0.4341   52.2042   30.0251 H         1 UNK         0.0000 
@<TRIPOS>BOND
     1    1    2 1    
     2    1   30 1    
     3    1   31 1    
     4    1   32 1    
     5    2    9 1    
     6    2    3 2    
     7    3    4 1    
     8    3   19 1    
     9    4    5 1    
    10    4    6 1    
    11    4   10 1    
    12    6    7 1    
    13    6   33 1    
    14    7    8 2    
    15    7    9 1    
    16    9   34 1    
    17   10   15 ar   
    18   10   11 ar   
    19   11   12 ar   
    20   11   35 1    
    21   12   13 ar   
    22   12   36 1    
    23   13   14 ar   
    24   13   16 1    
    25   14   15 ar   
    26   14   37 1    
    27   15   38 1    
    28   16   17 1    
    29   16   18 1    
    30   16   39 1    
    31   17   40 1    
    32   17   41 1    
    33   17   42 1    
    34   18   43 1    
    35   18   44 1    
    36   18   45 1    
    37   19   20 2    
    38   19   21 am   BACKBONE|DICT|INTERRES
    39   21   22 1    
    40   21   46 1    
    41   22   27 ar   
    42   22   23 ar   
    43   23   24 ar   
    44   23   47 1    
    45   24   25 ar   
    46   24   48 1    
    47   25   26 ar   
    48   25   29 1    
    49   26   27 ar   
    50   26   28 1    
    51   27   49 1    
@<TRIPOS>SUBSTRUCTURE
     1 UNK         1 GROUP             0       ****    0 ROOT    
