@<TRIPOS>MOLECULE
ZINC09309437_4013
58   64    1
SMALL
USER_CHARGES


@<TRIPOS>ATOM
      1 C1          3.8579   54.0961   23.1492 C.ar      1 UNK         0.0000 
      2 C2          2.5498   54.1168   23.6291 C.ar      1 UNK         0.0000 
      3 C3          1.5855   53.2826   23.0663 C.ar      1 UNK         0.0000 
      4 C4          1.9200   52.3958   22.0332 C.ar      1 UNK         0.0000 
      5 C5          3.2480   52.3823   21.5543 C.ar      1 UNK         0.0000 
      6 C6          4.2058   53.2369   22.1080 C.ar      1 UNK         0.0000 
      7 C7          3.6408   51.4673   20.4820 C.2       1 UNK         0.0000 
      8 C8          2.7779   50.5812   19.9709 C.2       1 UNK         0.0000 
      9 C9          1.3386   50.4970   20.4696 C.3       1 UNK         0.0000 
     10 H10         1.2929   49.5616   21.0288 H         1 UNK         0.0000 
     11 N11         0.9485   51.5572   21.4319 N.pl3     1 UNK         0.0000 
     12 C12        -0.5062   51.7077   21.3300 C.3       1 UNK         0.0000 
     13 H13        -0.6635   52.7368   21.0135 H         1 UNK         0.0000 
     14 C14        -1.0258   50.7216   20.2548 C.3       1 UNK         0.0000 
     15 H15        -1.3216   49.8088   20.7701 H         1 UNK         0.0000 
     16 C16         0.2314   50.4432   19.3779 C.3       1 UNK         0.0000 
     17 C17         0.4970   51.3055   18.1669 C.ar      1 UNK         0.0000 
     18 C18         0.6828   52.6817   18.0406 C.ar      1 UNK         0.0000 
     19 C19         0.9568   53.2297   16.7850 C.ar      1 UNK         0.0000 
     20 C20         1.0510   52.3962   15.6652 C.ar      1 UNK         0.0000 
     21 C21         0.8818   51.0140   15.7978 C.ar      1 UNK         0.0000 
     22 C22         0.6079   50.4868   17.0599 C.ar      1 UNK         0.0000 
     23 N23         0.4313   49.1677   17.4434 N.am      1 UNK         0.0000 
     24 C24         0.1844   49.0232   18.7571 C.2       1 UNK         0.0000 
     25 O25        -0.0193   47.9666   19.3581 O.2       1 UNK         0.0000 
     26 C26        -2.2558   51.2790   19.4707 C.2       1 UNK         0.0000 
     27 O27        -2.3415   52.4966   19.2802 O.2       1 UNK         0.0000 
     28 C28        -3.3214   50.3290   18.9979 C.ar      1 UNK         0.0000 
     29 C29        -4.3970   50.8342   18.2451 C.ar      1 UNK         0.0000 
     30 C30        -5.3939   49.9617   17.8046 C.ar      1 UNK         0.0000 
     31 N31        -5.3812   48.6334   18.0705 N.ar      1 UNK         0.0000 
     32 C32        -4.3455   48.1475   18.7971 C.ar      1 UNK         0.0000 
     33 C33        -3.3070   48.9500   19.2753 C.ar      1 UNK         0.0000 
     34 C34        -1.2648   51.5410   22.6714 C.2       1 UNK         0.0000 
     35 O35        -2.1218   52.3893   22.9299 O.2       1 UNK         0.0000 
     36 C36        -1.0238   50.3966   23.5585 C.2       1 UNK         0.0000 
     37 C37         0.0720   49.5343   23.6698 C.2       1 UNK         0.0000 
     38 C38        -0.0973   48.5369   24.6324 C.2       1 UNK         0.0000 
     39 C39        -1.3160   48.6311   25.2814 C.2       1 UNK         0.0000 
     40 S40        -2.2543   49.9719   24.7198 S.3       1 UNK         0.0000 
     41 H41         4.6030   54.7457   23.5815 H         1 UNK         0.0000 
     42 H42         2.2800   54.7917   24.4288 H         1 UNK         0.0000 
     43 H43         0.5799   53.3342   23.4497 H         1 UNK         0.0000 
     44 H44         5.2228   53.2297   21.7408 H         1 UNK         0.0000 
     45 H45         4.6445   51.5022   20.0834 H         1 UNK         0.0000 
     46 H46         3.1073   49.9245   19.1783 H         1 UNK         0.0000 
     47 H47         0.6387   53.3117   18.9129 H         1 UNK         0.0000 
     48 H48         1.1079   54.2949   16.6840 H         1 UNK         0.0000 
     49 H49         1.2712   52.8198   14.6958 H         1 UNK         0.0000 
     50 H50         0.9756   50.3758   14.9313 H         1 UNK         0.0000 
     51 H51         0.5061   48.3824   16.8137 H         1 UNK         0.0000 
     52 H52        -4.4655   51.8839   17.9958 H         1 UNK         0.0000 
     53 H53        -6.2268   50.3249   17.2211 H         1 UNK         0.0000 
     54 H54        -4.3565   47.0865   18.9959 H         1 UNK         0.0000 
     55 H55        -2.5245   48.4736   19.8457 H         1 UNK         0.0000 
     56 H56         0.9825   49.6084   23.1021 H         1 UNK         0.0000 
     57 H57         0.6471   47.7868   24.8589 H         1 UNK         0.0000 
     58 H58        -1.6838   48.0071   26.0834 H         1 UNK         0.0000 
@<TRIPOS>BOND
     1    1    6 ar   
     2    1    2 ar   
     3    1   41 1    
     4    2    3 ar   
     5    2   42 1    
     6    3    4 ar   
     7    3   43 1    
     8    4   11 1    
     9    4    5 ar   
    10    5    6 ar   
    11    5    7 1    
    12    6   44 1    
    13    7    8 2    
    14    7   45 1    
    15    8    9 1    
    16    8   46 1    
    17    9   10 1    
    18    9   16 1    
    19    9   11 1    
    20   11   12 1    
    21   12   13 1    
    22   12   14 1    
    23   12   34 1    
    24   14   15 1    
    25   14   16 1    
    26   14   26 1    
    27   16   24 1    
    28   16   17 1    
    29   17   22 ar   
    30   17   18 ar   
    31   18   19 ar   
    32   18   47 1    
    33   19   20 ar   
    34   19   48 1    
    35   20   21 ar   
    36   20   49 1    
    37   21   22 ar   
    38   21   50 1    
    39   22   23 1    
    40   23   24 am   BACKBONE|DICT|INTERRES
    41   23   51 1    
    42   24   25 2    
    43   26   27 2    
    44   26   28 1    
    45   28   33 ar   
    46   28   29 ar   
    47   29   30 ar   
    48   29   52 1    
    49   30   31 ar   
    50   30   53 1    
    51   31   32 ar   
    52   32   33 ar   
    53   32   54 1    
    54   33   55 1    
    55   34   35 2    
    56   34   36 1    
    57   36   40 1    
    58   36   37 2    
    59   37   38 1    
    60   37   56 1    
    61   38   39 2    
    62   38   57 1    
    63   39   40 1    
    64   39   58 1    
@<TRIPOS>SUBSTRUCTURE
     1 UNK         1 GROUP             0       ****    0 ROOT    
