@<TRIPOS>MOLECULE
ZINC06146821_1433
43   46    1
SMALL
USER_CHARGES


@<TRIPOS>ATOM
      1 C1          4.1352   54.0354   25.0701 C.ar      1 UNK         0.0000 
      2 C2          4.3863   54.0971   23.7035 C.ar      1 UNK         0.0000 
      3 C3          3.3379   53.9413   22.7948 C.ar      1 UNK         0.0000 
      4 C4          2.0487   53.6948   23.2542 C.ar      1 UNK         0.0000 
      5 C5          1.8008   53.5989   24.6161 C.ar      1 UNK         0.0000 
      6 C6          2.8441   53.7664   25.5420 C.ar      1 UNK         0.0000 
      7 C7          2.5888   53.7106   27.0296 C.2       1 UNK         0.0000 
      8 O8          3.3797   54.2413   27.8129 O.2       1 UNK         0.0000 
      9 N9          1.4806   53.0288   27.3889 N.am      1 UNK         0.0000 
     10 C10         0.9425   52.8778   28.6538 C.2       1 UNK         0.0000 
     11 N11        -0.0879   52.0946   28.8438 N.2       1 UNK         0.0000 
     12 C12        -0.4708   52.0964   30.1027 C.2       1 UNK         0.0000 
     13 C13         0.2598   52.8972   30.9750 C.2       1 UNK         0.0000 
     14 S14         1.5031   53.7114   30.0819 S.3       1 UNK         0.0000 
     15 N15         3.5044   54.0966   21.4190 N.pl3     1 UNK         0.0000 
     16 S16         4.9710   53.7157   20.5418 S.o2      1 UNK         0.0000 
     17 O17         6.0167   54.6047   21.0603 O.2       1 UNK         0.0000 
     18 O18         5.1043   52.2565   20.5945 O.2       1 UNK         0.0000 
     19 C19         4.6109   54.2230   18.8710 C.ar      1 UNK         0.0000 
     20 C20         4.1517   53.3103   17.9136 C.ar      1 UNK         0.0000 
     21 C21         3.8049   53.7569   16.6351 C.ar      1 UNK         0.0000 
     22 C22         3.9125   55.1129   16.3191 C.ar      1 UNK         0.0000 
     23 C23         4.3704   56.0244   17.2837 C.ar      1 UNK         0.0000 
     24 C24         4.7379   55.5767   18.5464 C.ar      1 UNK         0.0000 
     25 O25         4.5251   57.3687   17.0180 O.3       1 UNK         0.0000 
     26 C26         3.7683   57.8276   15.8934 C.3       1 UNK         0.0000 
     27 C27         3.9196   56.8416   14.7069 C.3       1 UNK         0.0000 
     28 O28         3.4837   55.5249   15.0718 O.3       1 UNK         0.0000 
     29 H29         4.9576   54.1791   25.7559 H         1 UNK         0.0000 
     30 H30         5.3909   54.3039   23.3736 H         1 UNK         0.0000 
     31 H31         1.2324   53.5856   22.5547 H         1 UNK         0.0000 
     32 H32         0.7826   53.4201   24.9298 H         1 UNK         0.0000 
     33 H33         1.0171   52.5081   26.6614 H         1 UNK         0.0000 
     34 H34        -1.2957   51.4608   30.4005 H         1 UNK         0.0000 
     35 H35         0.1227   53.0241   32.0405 H         1 UNK         0.0000 
     36 H36         2.6865   54.3345   20.8670 H         1 UNK         0.0000 
     37 H37         4.0547   52.2596   18.1565 H         1 UNK         0.0000 
     38 H38         3.4410   53.0559   15.8993 H         1 UNK         0.0000 
     39 H39         5.1018   56.2856   19.2772 H         1 UNK         0.0000 
     40 H40         4.1036   58.8278   15.6168 H         1 UNK         0.0000 
     41 H41         2.7148   57.8986   16.1724 H         1 UNK         0.0000 
     42 H42         4.9688   56.8010   14.4107 H         1 UNK         0.0000 
     43 H43         3.3477   57.1862   13.8456 H         1 UNK         0.0000 
@<TRIPOS>BOND
     1    1    6 ar   
     2    1    2 ar   
     3    1   29 1    
     4    2    3 ar   
     5    2   30 1    
     6    3    4 ar   
     7    3   15 1    
     8    4    5 ar   
     9    4   31 1    
    10    5    6 ar   
    11    5   32 1    
    12    6    7 1    
    13    7    8 2    
    14    7    9 am   BACKBONE|DICT|INTERRES
    15    9   10 am   BACKBONE|DICT|INTERRES
    16    9   33 1    
    17   10   14 1    
    18   10   11 2    
    19   11   12 1    
    20   12   13 2    
    21   12   34 1    
    22   13   14 1    
    23   13   35 1    
    24   15   16 1    
    25   15   36 1    
    26   16   17 2    
    27   16   18 2    
    28   16   19 1    
    29   19   24 ar   
    30   19   20 ar   
    31   20   21 ar   
    32   20   37 1    
    33   21   22 ar   
    34   21   38 1    
    35   22   28 1    
    36   22   23 ar   
    37   23   24 ar   
    38   23   25 1    
    39   24   39 1    
    40   25   26 1    
    41   26   27 1    
    42   26   40 1    
    43   26   41 1    
    44   27   28 1    
    45   27   42 1    
    46   27   43 1    
@<TRIPOS>SUBSTRUCTURE
     1 UNK         1 GROUP             0       ****    0 ROOT    
