@<TRIPOS>MOLECULE
ZINC17301968_2402
44   47    1
SMALL
USER_CHARGES


@<TRIPOS>ATOM
      1 C1          2.1940   49.6055   20.8274 C.ar      1 UNK         0.0000 
      2 C2          3.1042   50.6230   20.5444 C.ar      1 UNK         0.0000 
      3 C3          3.1993   51.7483   21.3778 C.ar      1 UNK         0.0000 
      4 C4          2.3369   51.8277   22.4824 C.ar      1 UNK         0.0000 
      5 C5          1.4263   50.8099   22.7819 C.ar      1 UNK         0.0000 
      6 C6          1.3660   49.6955   21.9453 C.ar      1 UNK         0.0000 
      7 N7          0.5806   50.8558   23.9014 N.pl3     1 UNK         0.0000 
      8 S8          0.0365   52.3500   24.6917 S.o2      1 UNK         0.0000 
      9 O9          0.1023   53.4285   23.7013 O.2       1 UNK         0.0000 
     10 O10        -1.2270   52.0157   25.3562 O.2       1 UNK         0.0000 
     11 C11         1.2316   52.6972   25.9820 C.ar      1 UNK         0.0000 
     12 C12         1.0921   52.0920   27.2344 C.ar      1 UNK         0.0000 
     13 C13         2.0128   52.3608   28.2466 C.ar      1 UNK         0.0000 
     14 C14         3.0865   53.2226   28.0127 C.ar      1 UNK         0.0000 
     15 C15         3.2323   53.8279   26.7570 C.ar      1 UNK         0.0000 
     16 C16         2.3011   53.5691   25.7502 C.ar      1 UNK         0.0000 
     17 Cl17        4.5496   54.8964   26.4172 Cl        1 UNK         0.0000 
     18 Cl18        4.2172   53.5155   29.2876 Cl        1 UNK         0.0000 
     19 C19         4.2053   52.8560   21.1369 C.2       1 UNK         0.0000 
     20 O20         4.4921   53.6254   22.0572 O.2       1 UNK         0.0000 
     21 N21         4.7239   52.9397   19.8900 N.am      1 UNK         0.0000 
     22 C22         5.5004   53.9691   19.3212 C.ar      1 UNK         0.0000 
     23 C23         6.0644   53.6934   18.0603 C.ar      1 UNK         0.0000 
     24 C24         6.7995   54.6640   17.3653 C.ar      1 UNK         0.0000 
     25 C25         6.9330   55.9150   17.9561 C.ar      1 UNK         0.0000 
     26 C26         6.4032   56.1927   19.1840 C.ar      1 UNK         0.0000 
     27 C27         5.6882   55.2426   19.9048 C.ar      1 UNK         0.0000 
     28 O28         6.7042   57.4762   19.5219 O.3       1 UNK         0.0000 
     29 C29         7.1726   58.0608   18.3346 C.3       1 UNK         0.0000 
     30 O30         7.5708   57.0186   17.4844 O.3       1 UNK         0.0000 
     31 H31         2.1435   48.7400   20.1831 H         1 UNK         0.0000 
     32 H32         3.7427   50.5054   19.6815 H         1 UNK         0.0000 
     33 H33         2.4025   52.6856   23.1286 H         1 UNK         0.0000 
     34 H34         0.6715   48.8964   22.1559 H         1 UNK         0.0000 
     35 H35         0.0833   50.0167   24.1577 H         1 UNK         0.0000 
     36 H36         0.2704   51.4152   27.4273 H         1 UNK         0.0000 
     37 H37         1.8943   51.8911   29.2118 H         1 UNK         0.0000 
     38 H38         2.4121   54.0592   24.7939 H         1 UNK         0.0000 
     39 H39         4.5128   52.1806   19.2556 H         1 UNK         0.0000 
     40 H40         5.9273   52.7200   17.6068 H         1 UNK         0.0000 
     41 H41         7.2270   54.4442   16.3984 H         1 UNK         0.0000 
     42 H42         5.2700   55.5095   20.8612 H         1 UNK         0.0000 
     43 H43         6.3641   58.6283   17.8645 H         1 UNK         0.0000 
     44 H44         7.9983   58.7484   18.5152 H         1 UNK         0.0000 
@<TRIPOS>BOND
     1    1    6 ar   
     2    1    2 ar   
     3    1   31 1    
     4    2    3 ar   
     5    2   32 1    
     6    3    4 ar   
     7    3   19 1    
     8    4    5 ar   
     9    4   33 1    
    10    5    6 ar   
    11    5    7 1    
    12    6   34 1    
    13    7    8 1    
    14    7   35 1    
    15    8    9 2    
    16    8   10 2    
    17    8   11 1    
    18   11   16 ar   
    19   11   12 ar   
    20   12   13 ar   
    21   12   36 1    
    22   13   14 ar   
    23   13   37 1    
    24   14   15 ar   
    25   14   18 1    
    26   15   16 ar   
    27   15   17 1    
    28   16   38 1    
    29   19   20 2    
    30   19   21 am   BACKBONE|DICT|INTERRES
    31   21   22 1    
    32   21   39 1    
    33   22   27 ar   
    34   22   23 ar   
    35   23   24 ar   
    36   23   40 1    
    37   24   25 ar   
    38   24   41 1    
    39   25   30 1    
    40   25   26 ar   
    41   26   27 ar   
    42   26   28 1    
    43   27   42 1    
    44   28   29 1    
    45   29   30 1    
    46   29   43 1    
    47   29   44 1    
@<TRIPOS>SUBSTRUCTURE
     1 UNK         1 GROUP             0       ****    0 ROOT    
