@<TRIPOS>MOLECULE
ZINC61865226_6209
53   55    1
SMALL
USER_CHARGES


@<TRIPOS>ATOM
      1 C1          4.1614   56.6703   16.4831 C.ar      1 UNK         0.0000 
      2 C2          4.5233   56.0111   17.6545 C.ar      1 UNK         0.0000 
      3 C3          5.5399   56.5219   18.4817 C.ar      1 UNK         0.0000 
      4 C4          6.1902   57.7030   18.0919 C.ar      1 UNK         0.0000 
      5 C5          5.8225   58.3689   16.9254 C.ar      1 UNK         0.0000 
      6 C6          4.8074   57.8519   16.1210 C.ar      1 UNK         0.0000 
      7 C7          4.4195   58.5437   14.8996 C.1       1 UNK         0.0000 
      8 N8          4.1110   59.0879   13.9257 N.1       1 UNK         0.0000 
      9 C9          5.9044   55.8634   19.8003 C.2       1 UNK         0.0000 
     10 O10         6.8393   56.3014   20.4820 O.2       1 UNK         0.0000 
     11 N11         5.1044   54.8408   20.1847 N.am      1 UNK         0.0000 
     12 N12         5.3612   54.2255   21.4049 N.am      1 UNK         0.0000 
     13 C13         4.3353   54.1451   22.2770 C.2       1 UNK         0.0000 
     14 O14         3.1731   54.4967   22.0817 O.2       1 UNK         0.0000 
     15 N15         4.7456   53.6967   23.4629 N.am      1 UNK         0.0000 
     16 C16         3.9496   53.6967   24.6985 C.3       1 UNK         0.0000 
     17 C17         4.7502   53.9773   26.0251 C.3       1 UNK         0.0000 
     18 C18         6.2631   53.5728   25.9091 C.3       1 UNK         0.0000 
     19 C19         7.1028   54.8416   25.8581 C.3       1 UNK         0.0000 
     20 C20         6.1271   55.9044   25.4186 C.3       1 UNK         0.0000 
     21 C21         4.8650   55.4894   26.1569 C.3       1 UNK         0.0000 
     22 N22         3.9617   53.2967   27.2031 N.4       1 UNK         0.0000 
     23 C23         2.4744   53.7514   27.2952 C.3       1 UNK         0.0000 
     24 C24         1.6804   52.8562   28.2658 C.3       1 UNK         0.0000 
     25 S25         2.2844   52.8965   29.9729 S.3       1 UNK         0.0000 
     26 C26         4.0011   52.4605   29.6092 C.3       1 UNK         0.0000 
     27 C27         4.6651   53.4041   28.5901 C.3       1 UNK         0.0000 
     28 H28         3.3713   56.2592   15.8694 H         1 UNK         0.0000 
     29 H29         3.9840   55.1094   17.9065 H         1 UNK         0.0000 
     30 H30         6.9684   58.1375   18.7033 H         1 UNK         0.0000 
     31 H31         6.3171   59.2967   16.6671 H         1 UNK         0.0000 
     32 H32         4.6930   54.2083   19.5137 H         1 UNK         0.0000 
     33 H33         5.9585   53.4243   21.2677 H         1 UNK         0.0000 
     34 H34         5.6561   53.2671   23.5184 H         1 UNK         0.0000 
     35 H35         3.1524   54.4364   24.5901 H         1 UNK         0.0000 
     36 H36         3.4072   52.7560   24.7504 H         1 UNK         0.0000 
     37 H37         6.6217   52.8967   26.6801 H         1 UNK         0.0000 
     38 H38         6.4923   53.0481   24.9932 H         1 UNK         0.0000 
     39 H39         7.5044   55.0597   26.8495 H         1 UNK         0.0000 
     40 H40         7.9044   54.7605   25.1317 H         1 UNK         0.0000 
     41 H41         6.4607   56.8966   25.6817 H         1 UNK         0.0000 
     42 H42         5.9862   55.8891   24.3379 H         1 UNK         0.0000 
     43 H43         3.9842   56.0271   25.8186 H         1 UNK         0.0000 
     44 H44         5.0019   55.6967   27.2118 H         1 UNK         0.0000 
     45 H45         2.4442   54.8096   27.5620 H         1 UNK         0.0000 
     46 H46         2.0103   53.6270   26.3188 H         1 UNK         0.0000 
     47 H47         1.6622   51.8198   27.9241 H         1 UNK         0.0000 
     48 H48         0.6389   53.1790   28.3034 H         1 UNK         0.0000 
     49 H49         4.0438   51.4219   29.2817 H         1 UNK         0.0000 
     50 H50         4.5278   52.4964   30.5617 H         1 UNK         0.0000 
     51 H51         5.6962   53.0787   28.4896 H         1 UNK         0.0000 
     52 H52         4.6646   54.4406   28.9291 H         1 UNK         0.0000 
     53 H53         3.9755   52.3145   26.9563 H         1 UNK         0.0000 
@<TRIPOS>BOND
     1    1    6 ar   
     2    1    2 ar   
     3    1   28 1    
     4    2    3 ar   
     5    2   29 1    
     6    3    4 ar   
     7    3    9 1    
     8    4    5 ar   
     9    4   30 1    
    10    5    6 ar   
    11    5   31 1    
    12    6    7 1    
    13    7    8 3    
    14    9   10 2    
    15    9   11 am   BACKBONE|DICT|INTERRES
    16   11   12 1    
    17   11   32 1    
    18   12   13 am   BACKBONE|DICT|INTERRES
    19   12   33 1    
    20   13   14 2    
    21   13   15 am   BACKBONE|DICT|INTERRES
    22   15   16 1    
    23   15   34 1    
    24   16   17 1    
    25   16   35 1    
    26   16   36 1    
    27   17   21 1    
    28   17   18 1    
    29   17   22 1    
    30   18   19 1    
    31   18   37 1    
    32   18   38 1    
    33   19   20 1    
    34   19   39 1    
    35   19   40 1    
    36   20   21 1    
    37   20   41 1    
    38   20   42 1    
    39   21   43 1    
    40   21   44 1    
    41   22   27 1    
    42   22   23 1    
    43   22   53 1    
    44   23   24 1    
    45   23   45 1    
    46   23   46 1    
    47   24   25 1    
    48   24   47 1    
    49   24   48 1    
    50   25   26 1    
    51   26   27 1    
    52   26   49 1    
    53   26   50 1    
    54   27   51 1    
    55   27   52 1    
@<TRIPOS>SUBSTRUCTURE
     1 UNK         1 GROUP             0       ****    0 ROOT    
