@<TRIPOS>MOLECULE
ZINC63540994_5366
63   66    1
SMALL
USER_CHARGES


@<TRIPOS>ATOM
      1 C1          4.8894   54.4922   28.1704 C.3       1 UNK         0.0000 
      2 C2          5.0206   54.4533   26.6506 C.ar      1 UNK         0.0000 
      3 C3          6.2739   54.7145   26.0960 C.ar      1 UNK         0.0000 
      4 C4          6.4596   54.6724   24.7195 C.ar      1 UNK         0.0000 
      5 C5          5.3896   54.3589   23.8872 C.ar      1 UNK         0.0000 
      6 C6          4.1101   54.0965   24.4041 C.ar      1 UNK         0.0000 
      7 C7          3.9287   54.1421   25.8111 C.ar      1 UNK         0.0000 
      8 C8          2.5524   53.9003   26.4418 C.3       1 UNK         0.0000 
      9 N9          3.0840   53.7374   23.5230 N.pl3     1 UNK         0.0000 
     10 C10         2.9460   54.2662   22.1632 C.3       1 UNK         0.0000 
     11 C11         3.2212   53.2209   21.0543 C.3       1 UNK         0.0000 
     12 N12         2.2690   52.0973   21.1476 N.3       1 UNK         0.0000 
     13 C13         2.4941   51.4820   22.4644 C.3       1 UNK         0.0000 
     14 C14         2.3040   52.4933   23.6328 C.3       1 UNK         0.0000 
     15 C15         2.4303   51.1526   20.0067 C.3       1 UNK         0.0000 
     16 H16         3.4897   50.9045   19.8984 H         1 UNK         0.0000 
     17 C17         1.6662   49.8341   20.2001 C.3       1 UNK         0.0000 
     18 C18         1.9168   51.7955   18.6832 C.2       1 UNK         0.0000 
     19 O19         0.8298   52.3843   18.6496 O.2       1 UNK         0.0000 
     20 N20         2.7045   51.6358   17.6036 N.am      1 UNK         0.0000 
     21 C21         2.4338   52.1012   16.3571 C.2       1 UNK         0.0000 
     22 C22         1.9726   51.4429   15.2797 C.2       1 UNK         0.0000 
     23 C23         1.5042   50.0616   15.1082 C.2       1 UNK         0.0000 
     24 C24         1.0891   49.6091   13.9071 C.2       1 UNK         0.0000 
     25 C25         1.1250   50.5478   12.7930 C.2       1 UNK         0.0000 
     26 C26         1.5677   51.8256   12.9285 C.2       1 UNK         0.0000 
     27 C27         2.0149   52.2905   14.1708 C.2       1 UNK         0.0000 
     28 N28         2.5087   53.4672   14.5015 N.pl3     1 UNK         0.0000 
     29 C29         2.8489   53.5068   15.9454 C.3       1 UNK         0.0000 
     30 H30         3.9205   53.6836   16.0392 H         1 UNK         0.0000 
     31 C31         2.0717   54.6564   16.6152 C.2       1 UNK         0.0000 
     32 O32         2.6736   55.5513   17.2129 O.2       1 UNK         0.0000 
     33 O33         0.7292   54.5633   16.4665 O.3       1 UNK         0.0000 
     34 C34        -0.1267   55.5601   17.0005 C.3       1 UNK         0.0000 
     35 Br35        0.4884   47.7481   13.6607 Br        1 UNK         0.0000 
     36 H36         4.4680   53.5537   28.5338 H         1 UNK         0.0000 
     37 H37         5.8492   54.6353   28.6689 H         1 UNK         0.0000 
     38 H38         4.2224   55.2965   28.4775 H         1 UNK         0.0000 
     39 H39         7.1099   54.9478   26.7387 H         1 UNK         0.0000 
     40 H40         7.4363   54.8651   24.2967 H         1 UNK         0.0000 
     41 H41         5.5721   54.3039   22.8246 H         1 UNK         0.0000 
     42 H42         2.3773   54.5718   27.2821 H         1 UNK         0.0000 
     43 H43         1.7348   54.0960   25.7466 H         1 UNK         0.0000 
     44 H44         2.4755   52.8750   26.8048 H         1 UNK         0.0000 
     45 H45         1.9346   54.6629   22.0817 H         1 UNK         0.0000 
     46 H46         3.6097   55.1175   22.0229 H         1 UNK         0.0000 
     47 H47         4.2546   52.8732   21.1198 H         1 UNK         0.0000 
     48 H48         3.1046   53.7233   20.0951 H         1 UNK         0.0000 
     49 H49         1.7878   50.6722   22.6364 H         1 UNK         0.0000 
     50 H50         3.5001   51.0673   22.4816 H         1 UNK         0.0000 
     51 H51         1.2501   52.7773   23.6950 H         1 UNK         0.0000 
     52 H52         2.5315   51.9882   24.5678 H         1 UNK         0.0000 
     53 H53         1.6962   49.2265   19.2947 H         1 UNK         0.0000 
     54 H54         2.1249   49.2380   20.9895 H         1 UNK         0.0000 
     55 H55         0.6235   50.0253   20.4596 H         1 UNK         0.0000 
     56 H56         3.5547   51.0781   17.6879 H         1 UNK         0.0000 
     57 H57         1.4986   49.3672   15.9352 H         1 UNK         0.0000 
     58 H58         0.7836   50.2128   11.8242 H         1 UNK         0.0000 
     59 H59         1.5726   52.4697   12.0620 H         1 UNK         0.0000 
     60 H60        -1.1660   55.3038   16.7908 H         1 UNK         0.0000 
     61 H61        -0.0093   55.6344   18.0817 H         1 UNK         0.0000 
     62 H62         0.0818   56.5392   16.5626 H         1 UNK         0.0000 
     63 H63         2.6399   54.2486   13.8635 H         1 UNK         0.0000 
@<TRIPOS>BOND
     1    1    2 1    
     2    1   36 1    
     3    1   37 1    
     4    1   38 1    
     5    2    7 ar   
     6    2    3 ar   
     7    3    4 ar   
     8    3   39 1    
     9    4    5 ar   
    10    4   40 1    
    11    5    6 ar   
    12    5   41 1    
    13    6    7 ar   
    14    6    9 1    
    15    7    8 1    
    16    8   42 1    
    17    8   43 1    
    18    8   44 1    
    19    9   14 1    
    20    9   10 1    
    21   10   11 1    
    22   10   45 1    
    23   10   46 1    
    24   11   12 1    
    25   11   47 1    
    26   11   48 1    
    27   12   13 1    
    28   12   15 1    
    29   13   14 1    
    30   13   49 1    
    31   13   50 1    
    32   14   51 1    
    33   14   52 1    
    34   15   16 1    
    35   15   17 1    
    36   15   18 1    
    37   17   53 1    
    38   17   54 1    
    39   17   55 1    
    40   18   19 2    
    41   18   20 am   BACKBONE|DICT|INTERRES
    42   20   21 1    
    43   20   56 1    
    44   21   29 1    
    45   21   22 2    
    46   22   27 1    
    47   22   23 1    
    48   23   24 2    
    49   23   57 1    
    50   24   25 1    
    51   24   35 1    
    52   25   26 2    
    53   25   58 1    
    54   26   27 1    
    55   26   59 1    
    56   27   28 2    
    57   28   29 1    
    58   28   63 1    
    59   29   30 1    
    60   29   31 1    
    61   31   32 2    
    62   31   33 1    
    63   33   34 1    
    64   34   60 1    
    65   34   61 1    
    66   34   62 1    
@<TRIPOS>SUBSTRUCTURE
     1 UNK         1 GROUP             0       ****    0 ROOT    
