@<TRIPOS>MOLECULE
ZINC50058366_226
54   56    1
SMALL
USER_CHARGES


@<TRIPOS>ATOM
      1 C1          7.6179   55.5806   16.7208 C.3       1 UNK         0.0000 
      2 C2          6.2087   55.6321   17.3614 C.3       1 UNK         0.0000 
      3 C3          5.5931   57.0273   17.1085 C.3       1 UNK         0.0000 
      4 C4          5.3278   54.5618   16.6722 C.3       1 UNK         0.0000 
      5 C5          6.2925   55.3918   18.8774 C.2       1 UNK         0.0000 
      6 N6          7.2464   55.8928   19.6378 N.2       1 UNK         0.0000 
      7 N7          7.1060   55.6077   20.9891 N.2       1 UNK         0.0000 
      8 C8          6.0273   54.8976   21.2267 C.2       1 UNK         0.0000 
      9 S9          5.1053   54.5090   19.8154 S.3       1 UNK         0.0000 
     10 N10         5.5594   54.4967   22.4582 N.am      1 UNK         0.0000 
     11 C11         6.3433   54.0982   23.4773 C.2       1 UNK         0.0000 
     12 O12         7.4982   53.6869   23.3731 O.2       1 UNK         0.0000 
     13 N13         5.7100   54.2459   24.6433 N.am      1 UNK         0.0000 
     14 C14         6.3128   54.0923   25.9711 C.3       1 UNK         0.0000 
     15 C15         5.2823   53.8063   27.0999 C.3       1 UNK         0.0000 
     16 H16         5.2433   52.7237   27.2520 H         1 UNK         0.0000 
     17 C17         5.7325   54.4186   28.4515 C.3       1 UNK         0.0000 
     18 C18         4.7044   54.2154   29.5825 C.3       1 UNK         0.0000 
     19 C19         3.2958   54.6590   29.1826 C.3       1 UNK         0.0000 
     20 N20         2.8830   53.8617   27.9250 N.4       1 UNK         0.0000 
     21 C21         3.8263   54.2235   26.7532 C.3       1 UNK         0.0000 
     22 C22         1.4170   54.1684   27.5418 C.3       1 UNK         0.0000 
     23 C23         0.4878   53.1454   28.1630 C.2       1 UNK         0.0000 
     24 C24        -0.3713   52.2713   27.4994 C.2       1 UNK         0.0000 
     25 C25        -1.1546   51.4824   28.3377 C.2       1 UNK         0.0000 
     26 C26        -0.8796   51.6969   29.6760 C.2       1 UNK         0.0000 
     27 S27         0.3046   52.9360   29.8889 S.3       1 UNK         0.0000 
     28 H28         7.5754   55.7412   15.6420 H         1 UNK         0.0000 
     29 H29         8.0956   54.6139   16.8888 H         1 UNK         0.0000 
     30 H30         8.2815   56.3403   17.1348 H         1 UNK         0.0000 
     31 H31         4.5886   57.1072   17.5276 H         1 UNK         0.0000 
     32 H32         6.1888   57.8217   17.5608 H         1 UNK         0.0000 
     33 H33         5.5174   57.2465   16.0421 H         1 UNK         0.0000 
     34 H34         4.2946   54.5956   17.0239 H         1 UNK         0.0000 
     35 H35         5.2996   54.6942   15.5893 H         1 UNK         0.0000 
     36 H36         5.6981   53.5523   16.8664 H         1 UNK         0.0000 
     37 H37         4.5861   54.6833   22.6358 H         1 UNK         0.0000 
     38 H38         4.7863   54.6462   24.6209 H         1 UNK         0.0000 
     39 H39         7.0728   53.3044   25.9659 H         1 UNK         0.0000 
     40 H40         6.8545   55.0164   26.1775 H         1 UNK         0.0000 
     41 H41         6.7084   54.0194   28.7398 H         1 UNK         0.0000 
     42 H42         5.9043   55.4889   28.3210 H         1 UNK         0.0000 
     43 H43         4.6806   53.1625   29.8670 H         1 UNK         0.0000 
     44 H44         5.0081   54.7754   30.4716 H         1 UNK         0.0000 
     45 H45         2.5893   54.4373   29.9780 H         1 UNK         0.0000 
     46 H46         3.2388   55.7207   28.9380 H         1 UNK         0.0000 
     47 H47         3.7177   55.2949   26.5504 H         1 UNK         0.0000 
     48 H48         3.4665   53.6529   25.8941 H         1 UNK         0.0000 
     49 H49         1.1937   55.2054   27.8018 H         1 UNK         0.0000 
     50 H50         1.3682   54.0961   26.4547 H         1 UNK         0.0000 
     51 H51        -0.4449   52.2202   26.4211 H         1 UNK         0.0000 
     52 H52        -1.8847   50.7733   27.9787 H         1 UNK         0.0000 
     53 H53        -1.3145   51.2010   30.5342 H         1 UNK         0.0000 
     54 H54         2.9442   52.8650   28.0979 H         1 UNK         0.0000 
@<TRIPOS>BOND
     1    1    2 1    
     2    1   28 1    
     3    1   29 1    
     4    1   30 1    
     5    2    3 1    
     6    2    4 1    
     7    2    5 1    
     8    3   31 1    
     9    3   32 1    
    10    3   33 1    
    11    4   34 1    
    12    4   35 1    
    13    4   36 1    
    14    5    9 1    
    15    5    6 2    
    16    6    7 1    
    17    7    8 2    
    18    8    9 1    
    19    8   10 am   BACKBONE|DICT|INTERRES
    20   10   11 am   BACKBONE|DICT|INTERRES
    21   10   37 1    
    22   11   12 2    
    23   11   13 am   BACKBONE|DICT|INTERRES
    24   13   14 1    
    25   13   38 1    
    26   14   15 1    
    27   14   39 1    
    28   14   40 1    
    29   15   16 1    
    30   15   21 1    
    31   15   17 1    
    32   17   18 1    
    33   17   41 1    
    34   17   42 1    
    35   18   19 1    
    36   18   43 1    
    37   18   44 1    
    38   19   20 1    
    39   19   45 1    
    40   19   46 1    
    41   20   21 1    
    42   20   22 1    
    43   20   54 1    
    44   21   47 1    
    45   21   48 1    
    46   22   23 1    
    47   22   49 1    
    48   22   50 1    
    49   23   27 1    
    50   23   24 2    
    51   24   25 1    
    52   24   51 1    
    53   25   26 2    
    54   25   52 1    
    55   26   27 1    
    56   26   53 1    
@<TRIPOS>SUBSTRUCTURE
     1 UNK         1 GROUP             0       ****    0 ROOT    
