ZINC66198462_2384
                    3D
 Schrodinger Suite 2024-2.
 54 56  0  0  1  0            999 V2000
    4.7025   54.3582   29.5691 C   0  0  0  0  0  0
    4.9434   54.4375   28.0819 C   0  0  0  0  0  0
    6.2484   54.4957   27.5855 C   0  0  0  0  0  0
    6.4644   54.6449   26.2194 C   0  0  0  0  0  0
    5.3731   54.7392   25.3544 C   0  0  0  0  0  0
    4.0716   54.6513   25.8575 C   0  0  0  0  0  0
    3.8546   54.4965   27.2184 C   0  0  0  0  0  0
    5.5261   54.8963   23.9083 C   0  0  0  0  0  0
    6.6124   55.2901   23.2046 C   0  0  0  0  0  0
    6.6610   55.3284   21.7533 C   0  0  0  0  0  0
    7.4119   56.0965   21.1545 O   0  0  0  0  0  0
    5.8076   54.4499   21.1794 N   0  0  0  0  0  0
    5.5081   54.0538   19.9028 C   0  0  0  0  0  0
    6.2724   54.5105   18.4950 S   0  0  0  0  0  0
    4.4982   53.1317   19.8232 N   0  0  0  0  0  0
    3.5913   52.7437   20.8354 C   0  0  0  0  0  0
    3.0104   53.6949   21.6816 C   0  0  0  0  0  0
    2.1464   53.3208   22.6985 C   0  0  0  0  0  0
    1.8496   51.9716   22.9022 C   0  0  0  0  0  0
    2.4064   51.0023   22.0473 C   0  0  0  0  0  0
    3.2677   51.3951   21.0105 C   0  0  0  0  0  0
    2.1131   49.5305   22.2517 C   0  0  0  0  0  0
    1.0692   51.5989   24.0111 N   0  0  0  0  0  0
   -0.1011   52.1595   24.3762 C   0  0  0  0  0  0
   -0.7731   52.8981   23.6543 O   0  0  0  0  0  0
   -0.5691   51.8341   25.7687 C   0  0  0  0  0  0
   -1.9257   51.5792   26.0060 C   0  0  0  0  0  0
   -2.3710   51.2985   27.2929 C   0  0  0  0  0  0
   -1.4644   51.3044   28.3499 C   0  0  0  0  0  0
   -0.1166   51.5805   28.1329 C   0  0  0  0  0  0
    0.3336   51.8354   26.8429 C   0  0  0  0  0  0
    5.4963   54.8987   30.0818 H   0  0  0  0  0  0
    3.7630   54.8339   29.8528 H   0  0  0  0  0  0
    4.6967   53.3172   29.8958 H   0  0  0  0  0  0
    7.0917   54.4401   28.2574 H   0  0  0  0  0  0
    7.4760   54.6726   25.8402 H   0  0  0  0  0  0
    3.2184   54.7146   25.1992 H   0  0  0  0  0  0
    2.8430   54.4486   27.5942 H   0  0  0  0  0  0
    4.6355   54.6239   23.3739 H   0  0  0  0  0  0
    7.5043   55.6112   23.7084 H   0  0  0  0  0  0
    5.3163   53.9017   21.8658 H   0  0  0  0  0  0
    4.3645   52.6888   18.9227 H   0  0  0  0  0  0
    3.2003   54.7471   21.5332 H   0  0  0  0  0  0
    1.7189   54.0853   23.3315 H   0  0  0  0  0  0
    3.7013   50.6552   20.3509 H   0  0  0  0  0  0
    1.0558   49.3219   22.0917 H   0  0  0  0  0  0
    2.7082   48.8795   21.6094 H   0  0  0  0  0  0
    2.3417   49.2953   23.2887 H   0  0  0  0  0  0
    1.4394   50.8654   24.5982 H   0  0  0  0  0  0
   -2.6362   51.5829   25.1907 H   0  0  0  0  0  0
   -3.4107   51.0748   27.4753 H   0  0  0  0  0  0
   -1.8062   51.0666   29.3466 H   0  0  0  0  0  0
    0.5756   51.5764   28.9625 H   0  0  0  0  0  0
    1.3811   52.0524   26.6897 H   0  0  0  0  0  0
  1  2  1  0  0  0
  1 32  1  0  0  0
  1 33  1  0  0  0
  1 34  1  0  0  0
  2  7  2  0  0  0
  2  3  1  0  0  0
  3  4  2  0  0  0
  3 35  1  0  0  0
  4  5  1  0  0  0
  4 36  1  0  0  0
  5  6  2  0  0  0
  5  8  1  0  0  0
  6  7  1  0  0  0
  6 37  1  0  0  0
  7 38  1  0  0  0
  8  9  2  0  0  0
  8 39  1  0  0  0
  9 10  1  0  0  0
  9 40  1  0  0  0
 10 11  2  0  0  0
 10 12  1  0  0  0
 12 13  1  0  0  0
 12 41  1  0  0  0
 13 14  2  0  0  0
 13 15  1  0  0  0
 15 16  1  0  0  0
 15 42  1  0  0  0
 16 21  2  0  0  0
 16 17  1  0  0  0
 17 18  2  0  0  0
 17 43  1  0  0  0
 18 19  1  0  0  0
 18 44  1  0  0  0
 19 20  2  0  0  0
 19 23  1  0  0  0
 20 21  1  0  0  0
 20 22  1  0  0  0
 21 45  1  0  0  0
 22 46  1  0  0  0
 22 47  1  0  0  0
 22 48  1  0  0  0
 23 24  1  0  0  0
 23 49  1  0  0  0
 24 25  2  0  0  0
 24 26  1  0  0  0
 26 31  2  0  0  0
 26 27  1  0  0  0
 27 28  2  0  0  0
 27 50  1  0  0  0
 28 29  1  0  0  0
 28 51  1  0  0  0
 29 30  2  0  0  0
 29 52  1  0  0  0
 30 31  1  0  0  0
 30 53  1  0  0  0
 31 54  1  0  0  0
M  END
> <i_i_glide_confnum>
325

> <i_i_glide_lignum>
2385

> <i_i_glide_posenum>
6

> <i_i_glide_rotatable_bonds>
9

> <i_m_Source_File_Index>
2236

> <b_m_subgroup_collapsed>
0

> <r_i_docking_score>
-5.19427

> <r_i_glide_ecoul>
-1.81839

> <r_i_glide_eff_state_penalty>
0

> <r_i_glide_einternal>
14.0581

> <r_i_glide_emodel>
-54.3247

> <r_i_glide_energy>
-46.2874

> <r_i_glide_erotb>
0.969427

> <r_i_glide_esite>
-0.0489407

> <r_i_glide_evdw>
-44.469

> <r_i_glide_gscore>
-5.19427

> <r_i_glide_hbond>
-0.105107

> <r_i_glide_ligand_efficiency>
-0.167557

> <r_i_glide_ligand_efficiency_ln>
-1.17147

> <r_i_glide_ligand_efficiency_sa>
-0.526361

> <r_i_glide_lipo>
-2.7401

> <r_i_glide_metal>
0

> <r_i_glide_rewards>
-0.773341

> <s_i_glide_gridfile>
wee1_glide-grid

> <s_m_Source_File>
wee1_decoys_glide_SP.sdf

> <s_m_Source_Path>
/Users/zhangxujun/Desktop

> <s_m_entry_id>
2511

> <s_m_entry_name>
wee1_decoys_glide_SP.2236

> <s_m_subgroup_title>
wee1_decoys_glide_SP

> <s_m_subgroupid>
wee1_decoys_glide_SP


$$$$
