ZINC16574914_5484
                    3D
 Schrodinger Suite 2024-2.
 66 69  0  0  1  0            999 V2000
    2.2179   47.7712   19.1273 C   0  0  0  0  0  0
    1.0809   48.7768   18.8610 C   0  0  0  0  0  0
    0.7050   48.7722   17.3612 C   0  0  0  0  0  0
   -0.1316   48.4982   19.7905 C   0  0  0  0  0  0
   -1.0632   47.8226   19.3443 O   0  0  0  0  0  0
   -0.1981   49.0796   21.0208 N   0  0  0  0  0  0
    0.9457   49.7240   21.6878 C   0  0  0  0  0  0
    0.5013   51.1250   22.1688 C   0  0  0  0  0  0
   -0.7402   51.1390   22.9596 N   0  0  0  0  0  0
   -1.8218   50.4086   22.2860 C   0  0  0  0  0  0
   -1.4254   48.9832   21.8318 C   0  0  0  0  0  0
   -0.7216   51.2211   24.3458 C   0  0  0  0  0  0
    0.2716   50.5863   25.1008 C   0  0  0  0  0  0
    0.3049   50.7342   26.4832 C   0  0  0  0  0  0
   -0.6423   51.5385   27.1185 C   0  0  0  0  0  0
   -1.6907   52.0974   26.3897 C   0  0  0  0  0  0
   -1.7304   51.9320   25.0063 C   0  0  0  0  0  0
   -0.5212   51.8363   28.4853 N   0  0  0  0  0  0
    0.4794   52.5483   29.0866 C   0  0  0  0  0  0
    0.3072   52.8968   30.7082 S   0  0  0  0  0  0
    1.5167   52.9160   28.2652 N   0  0  0  0  0  0
    2.6981   53.5395   28.4794 C   0  0  0  0  0  0
    3.1386   53.9196   29.5694 O   0  0  0  0  0  0
    3.4085   53.7170   27.2359 C   0  0  0  0  0  0
    4.5962   54.3445   27.1499 C   0  0  0  0  0  0
    5.3273   54.5783   25.9252 C   0  0  0  0  0  0
    6.4978   55.2660   25.6629 C   0  0  0  0  0  0
    6.7008   55.2225   24.2841 C   0  0  0  0  0  0
    5.6492   54.4966   23.7401 C   0  0  0  0  0  0
    4.8286   54.1022   24.7503 O   0  0  0  0  0  0
    5.2467   54.1656   22.3410 C   0  0  0  0  0  0
    5.9040   54.7890   21.2740 C   0  0  0  0  0  0
    5.5409   54.4969   19.9614 C   0  0  0  0  0  0
    4.5209   53.5812   19.7152 C   0  0  0  0  0  0
    3.8476   52.9699   20.7693 C   0  0  0  0  0  0
    4.2032   53.2709   22.0812 C   0  0  0  0  0  0
    2.5385   47.7794   20.1699 H   0  0  0  0  0  0
    1.9044   46.7541   18.8891 H   0  0  0  0  0  0
    3.0954   47.9992   18.5194 H   0  0  0  0  0  0
    1.4448   49.7853   19.0554 H   0  0  0  0  0  0
   -0.0854   49.4926   17.1447 H   0  0  0  0  0  0
    1.5631   49.0386   16.7420 H   0  0  0  0  0  0
    0.3545   47.7929   17.0323 H   0  0  0  0  0  0
    1.8407   49.8093   21.0746 H   0  0  0  0  0  0
    1.2299   49.1203   22.5503 H   0  0  0  0  0  0
    0.3130   51.7544   21.2972 H   0  0  0  0  0  0
    1.3106   51.5934   22.7305 H   0  0  0  0  0  0
   -2.7029   50.3480   22.9266 H   0  0  0  0  0  0
   -2.0977   50.9994   21.4109 H   0  0  0  0  0  0
   -1.2344   48.3619   22.7078 H   0  0  0  0  0  0
   -2.2583   48.5280   21.2936 H   0  0  0  0  0  0
    1.0327   49.9888   24.6223 H   0  0  0  0  0  0
    1.0917   50.2603   27.0522 H   0  0  0  0  0  0
   -2.4442   52.6969   26.8785 H   0  0  0  0  0  0
   -2.5216   52.4007   24.4398 H   0  0  0  0  0  0
   -1.3023   51.5682   29.0676 H   0  0  0  0  0  0
    1.3654   52.6705   27.2990 H   0  0  0  0  0  0
    2.9447   53.3291   26.3380 H   0  0  0  0  0  0
    5.0808   54.7388   28.0339 H   0  0  0  0  0  0
    7.1044   55.7676   26.3986 H   0  0  0  0  0  0
    7.5045   55.6892   23.7355 H   0  0  0  0  0  0
    6.7013   55.4950   21.4542 H   0  0  0  0  0  0
    6.0529   54.9706   19.1364 H   0  0  0  0  0  0
    4.2460   53.3445   18.6970 H   0  0  0  0  0  0
    3.0488   52.2718   20.5663 H   0  0  0  0  0  0
    3.6620   52.8051   22.8896 H   0  0  0  0  0  0
  1  2  1  0  0  0
  1 37  1  0  0  0
  1 38  1  0  0  0
  1 39  1  0  0  0
  2  3  1  0  0  0
  2  4  1  0  0  0
  2 40  1  0  0  0
  3 41  1  0  0  0
  3 42  1  0  0  0
  3 43  1  0  0  0
  4  5  2  0  0  0
  4  6  1  0  0  0
  6 11  1  0  0  0
  6  7  1  0  0  0
  7  8  1  0  0  0
  7 44  1  0  0  0
  7 45  1  0  0  0
  8  9  1  0  0  0
  8 46  1  0  0  0
  8 47  1  0  0  0
  9 10  1  0  0  0
  9 12  1  0  0  0
 10 11  1  0  0  0
 10 48  1  0  0  0
 10 49  1  0  0  0
 11 50  1  0  0  0
 11 51  1  0  0  0
 12 17  2  0  0  0
 12 13  1  0  0  0
 13 14  2  0  0  0
 13 52  1  0  0  0
 14 15  1  0  0  0
 14 53  1  0  0  0
 15 16  2  0  0  0
 15 18  1  0  0  0
 16 17  1  0  0  0
 16 54  1  0  0  0
 17 55  1  0  0  0
 18 19  1  0  0  0
 18 56  1  0  0  0
 19 20  2  0  0  0
 19 21  1  0  0  0
 21 22  1  0  0  0
 21 57  1  0  0  0
 22 23  2  0  0  0
 22 24  1  0  0  0
 24 25  2  0  0  0
 24 58  1  0  0  0
 25 26  1  0  0  0
 25 59  1  0  0  0
 26 30  1  0  0  0
 26 27  2  0  0  0
 27 28  1  0  0  0
 27 60  1  0  0  0
 28 29  2  0  0  0
 28 61  1  0  0  0
 29 30  1  0  0  0
 29 31  1  0  0  0
 31 36  2  0  0  0
 31 32  1  0  0  0
 32 33  2  0  0  0
 32 62  1  0  0  0
 33 34  1  0  0  0
 33 63  1  0  0  0
 34 35  2  0  0  0
 34 64  1  0  0  0
 35 36  1  0  0  0
 35 65  1  0  0  0
 36 66  1  0  0  0
M  END
> <i_i_glide_confnum>
107

> <i_i_glide_lignum>
5485

> <i_i_glide_posenum>
206

> <i_i_glide_rotatable_bonds>
10

> <i_m_Source_File_Index>
5183

> <b_m_subgroup_collapsed>
0

> <r_i_docking_score>
-3.88302

> <r_i_glide_ecoul>
-2.72067

> <r_i_glide_eff_state_penalty>
0

> <r_i_glide_einternal>
6.55109

> <r_i_glide_emodel>
-55.2039

> <r_i_glide_energy>
-50.0403

> <r_i_glide_erotb>
0.727966

> <r_i_glide_esite>
-0.0920304

> <r_i_glide_evdw>
-47.3196

> <r_i_glide_gscore>
-3.88302

> <r_i_glide_hbond>
-0.0999648

> <r_i_glide_ligand_efficiency>
-0.107862

> <r_i_glide_ligand_efficiency_ln>
-0.84717

> <r_i_glide_ligand_efficiency_sa>
-0.356151

> <r_i_glide_lipo>
-2.26222

> <r_i_glide_metal>
0

> <r_i_glide_rewards>
0.617311

> <s_i_glide_gridfile>
wee1_glide-grid

> <s_m_Source_File>
wee1_decoys_glide_SP.sdf

> <s_m_Source_Path>
/Users/zhangxujun/Desktop

> <s_m_entry_id>
5458

> <s_m_entry_name>
wee1_decoys_glide_SP.5183

> <s_m_subgroup_title>
wee1_decoys_glide_SP

> <s_m_subgroupid>
wee1_decoys_glide_SP


$$$$
