@<TRIPOS>MOLECULE
ZINC20885412_5988
66   71    1
SMALL
USER_CHARGES


@<TRIPOS>ATOM
      1 C1          9.5844   54.4981   17.9310 C.3       1 UNK         0.0000 
      2 C2          8.6899   55.7453   18.0515 C.3       1 UNK         0.0000 
      3 C3          8.0845   56.1357   16.6909 C.3       1 UNK         0.0000 
      4 C4          7.6059   55.5689   19.1356 C.3       1 UNK         0.0000 
      5 O5          6.7179   54.5075   18.7839 O.3       1 UNK         0.0000 
      6 C6          5.7449   54.1160   19.6825 C.ar      1 UNK         0.0000 
      7 C7          4.9832   53.0026   19.3387 C.ar      1 UNK         0.0000 
      8 C8          4.0144   52.5051   20.2059 C.ar      1 UNK         0.0000 
      9 C9          3.7705   53.1305   21.4324 C.ar      1 UNK         0.0000 
     10 C10         4.5277   54.2630   21.7686 C.ar      1 UNK         0.0000 
     11 C11         5.5047   54.7503   20.9074 C.ar      1 UNK         0.0000 
     12 C12         2.7099   52.5431   22.3870 C.3       1 UNK         0.0000 
     13 H13         3.0985   51.5503   22.6139 H         1 UNK         0.0000 
     14 C14         2.5354   53.3373   23.7063 C.3       1 UNK         0.0000 
     15 C15         1.4578   52.7139   24.5912 C.2       1 UNK         0.0000 
     16 C16         0.4263   51.9698   24.1093 C.2       1 UNK         0.0000 
     17 C17        -0.6679   51.3120   24.9892 C.3       1 UNK         0.0000 
     18 H18        -0.9092   50.3642   24.5045 H         1 UNK         0.0000 
     19 N19        -0.2150   50.8601   26.3117 N.pl3     1 UNK         0.0000 
     20 C20         0.0901   51.7937   27.3181 C.ar      1 UNK         0.0000 
     21 C21        -0.5143   51.6955   28.5785 C.ar      1 UNK         0.0000 
     22 C22        -0.2378   52.5967   29.6013 C.ar      1 UNK         0.0000 
     23 C23         0.6435   53.6435   29.3697 C.ar      1 UNK         0.0000 
     24 C24         1.2692   53.7502   28.1309 C.ar      1 UNK         0.0000 
     25 C25         1.0337   52.8272   27.1015 C.ar      1 UNK         0.0000 
     26 N26         1.7832   52.9074   25.9182 N.pl3     1 UNK         0.0000 
     27 C27        -2.0347   52.0601   25.0442 C.ar      1 UNK         0.0000 
     28 C28        -2.3770   53.0395   24.0799 C.ar      1 UNK         0.0000 
     29 C29        -3.6128   53.6963   24.0854 C.ar      1 UNK         0.0000 
     30 C30        -4.5000   53.3731   25.1005 C.ar      1 UNK         0.0000 
     31 C31        -4.2042   52.4261   26.0363 C.ar      1 UNK         0.0000 
     32 C32        -2.9938   51.7382   26.0310 C.ar      1 UNK         0.0000 
     33 O33        -5.2585   52.2879   26.8811 O.3       1 UNK         0.0000 
     34 C34        -6.1649   53.3053   26.5404 C.3       1 UNK         0.0000 
     35 O35        -5.7421   53.8739   25.3299 O.3       1 UNK         0.0000 
     36 C36         0.2849   51.7366   22.6431 C.2       1 UNK         0.0000 
     37 O37        -0.6990   51.1773   22.1574 O.2       1 UNK         0.0000 
     38 C38         1.3451   52.3342   21.7012 C.3       1 UNK         0.0000 
     39 H39         9.0143   53.6183   17.6308 H         1 UNK         0.0000 
     40 H40        10.0658   54.2702   18.8818 H         1 UNK         0.0000 
     41 H41        10.3748   54.6461   17.1951 H         1 UNK         0.0000 
     42 H42         9.3302   56.5686   18.3711 H         1 UNK         0.0000 
     43 H43         7.4320   55.3526   16.3031 H         1 UNK         0.0000 
     44 H44         7.4931   57.0487   16.7677 H         1 UNK         0.0000 
     45 H45         8.8621   56.3143   15.9472 H         1 UNK         0.0000 
     46 H46         8.0887   55.3593   20.0918 H         1 UNK         0.0000 
     47 H47         7.0466   56.4997   19.2531 H         1 UNK         0.0000 
     48 H48         5.1632   52.4968   18.4001 H         1 UNK         0.0000 
     49 H49         3.4663   51.6211   19.9154 H         1 UNK         0.0000 
     50 H50         4.3827   54.7840   22.7009 H         1 UNK         0.0000 
     51 H51         6.0671   55.6189   21.2124 H         1 UNK         0.0000 
     52 H52         3.5159   53.2979   24.1877 H         1 UNK         0.0000 
     53 H53         2.2495   54.3777   23.5383 H         1 UNK         0.0000 
     54 H54        -0.7945   50.1108   26.6687 H         1 UNK         0.0000 
     55 H55        -1.2178   50.8978   28.7730 H         1 UNK         0.0000 
     56 H56        -0.7217   52.4857   30.5627 H         1 UNK         0.0000 
     57 H57         0.8525   54.3593   30.1506 H         1 UNK         0.0000 
     58 H58         1.9768   54.5529   27.9762 H         1 UNK         0.0000 
     59 H59         2.6374   53.4248   26.0534 H         1 UNK         0.0000 
     60 H60        -1.6868   53.3246   23.3036 H         1 UNK         0.0000 
     61 H61        -3.8435   54.4478   23.3462 H         1 UNK         0.0000 
     62 H62        -2.8002   50.9773   26.7730 H         1 UNK         0.0000 
     63 H63        -6.1527   54.0711   27.3171 H         1 UNK         0.0000 
     64 H64        -7.1647   52.8874   26.4299 H         1 UNK         0.0000 
     65 H65         0.9734   53.2968   21.3540 H         1 UNK         0.0000 
     66 H66         1.4125   51.6835   20.8298 H         1 UNK         0.0000 
@<TRIPOS>BOND
     1    1    2 1    
     2    1   39 1    
     3    1   40 1    
     4    1   41 1    
     5    2    3 1    
     6    2    4 1    
     7    2   42 1    
     8    3   43 1    
     9    3   44 1    
    10    3   45 1    
    11    4    5 1    
    12    4   46 1    
    13    4   47 1    
    14    5    6 1    
    15    6   11 ar   
    16    6    7 ar   
    17    7    8 ar   
    18    7   48 1    
    19    8    9 ar   
    20    8   49 1    
    21    9   10 ar   
    22    9   12 1    
    23   10   11 ar   
    24   10   50 1    
    25   11   51 1    
    26   12   13 1    
    27   12   38 1    
    28   12   14 1    
    29   14   15 1    
    30   14   52 1    
    31   14   53 1    
    32   15   26 1    
    33   15   16 2    
    34   16   17 1    
    35   16   36 1    
    36   17   18 1    
    37   17   19 1    
    38   17   27 1    
    39   19   20 1    
    40   19   54 1    
    41   20   25 ar   
    42   20   21 ar   
    43   21   22 ar   
    44   21   55 1    
    45   22   23 ar   
    46   22   56 1    
    47   23   24 ar   
    48   23   57 1    
    49   24   25 ar   
    50   24   58 1    
    51   25   26 1    
    52   26   59 1    
    53   27   32 ar   
    54   27   28 ar   
    55   28   29 ar   
    56   28   60 1    
    57   29   30 ar   
    58   29   61 1    
    59   30   35 1    
    60   30   31 ar   
    61   31   32 ar   
    62   31   33 1    
    63   32   62 1    
    64   33   34 1    
    65   34   35 1    
    66   34   63 1    
    67   34   64 1    
    68   36   37 2    
    69   36   38 1    
    70   38   65 1    
    71   38   66 1    
@<TRIPOS>SUBSTRUCTURE
     1 UNK         1 GROUP             0       ****    0 ROOT    
