@<TRIPOS>MOLECULE
ZINC38610792_2063
49   52    1
SMALL
USER_CHARGES


@<TRIPOS>ATOM
      1 C1         -2.1651   51.8859   22.4158 C.3       1 UNK         0.0000 
      2 C2         -2.5707   52.2056   23.8407 C.2       1 UNK         0.0000 
      3 C3         -1.8626   52.4128   24.9593 C.2       1 UNK         0.0000 
      4 C4         -0.3879   52.3189   25.3760 C.3       1 UNK         0.0000 
      5 H5          0.0727   53.2963   25.2878 H         1 UNK         0.0000 
      6 C6         -0.3516   51.9430   26.8697 C.2       1 UNK         0.0000 
      7 C7         -1.4751   51.6801   27.5793 C.2       1 UNK         0.0000 
      8 O8         -2.7516   51.7850   27.1182 O.3       1 UNK         0.0000 
      9 C9         -2.8862   52.6892   26.0146 C.3       1 UNK         0.0000 
     10 H10        -2.8301   53.6966   26.4195 H         1 UNK         0.0000 
     11 N11        -4.1248   52.5462   25.3243 N.2       1 UNK         0.0000 
     12 N12        -3.8971   52.2947   24.0991 N.2       1 UNK         0.0000 
     13 N13        -1.5425   51.2968   28.8881 N.pl3     1 UNK         0.0000 
     14 C14         0.9115   51.8457   27.5228 C.1       1 UNK         0.0000 
     15 N15         1.9060   51.7987   28.1100 N.1       1 UNK         0.0000 
     16 C16         0.3922   51.3758   24.4518 C.ar      1 UNK         0.0000 
     17 C17         0.0870   50.0110   24.4808 C.ar      1 UNK         0.0000 
     18 C18         0.6370   49.1470   23.5441 C.ar      1 UNK         0.0000 
     19 C19         1.4991   49.6321   22.5656 C.ar      1 UNK         0.0000 
     20 C20         1.8474   50.9909   22.5300 C.ar      1 UNK         0.0000 
     21 C21         1.3183   51.8550   23.5041 C.ar      1 UNK         0.0000 
     22 O22         1.6545   53.1899   23.4722 O.3       1 UNK         0.0000 
     23 C23         2.7739   53.5537   24.2877 C.3       1 UNK         0.0000 
     24 C24         3.9930   53.9690   23.4614 C.ar      1 UNK         0.0000 
     25 C25         5.2206   54.1482   24.1094 C.ar      1 UNK         0.0000 
     26 C26         6.3253   54.6179   23.4005 C.ar      1 UNK         0.0000 
     27 C27         6.2062   54.8974   22.0404 C.ar      1 UNK         0.0000 
     28 C28         5.0109   54.6478   21.3721 C.ar      1 UNK         0.0000 
     29 C29         3.9002   54.2047   22.0850 C.ar      1 UNK         0.0000 
     30 Br30        7.6536   55.6941   21.0946 Br        1 UNK         0.0000 
     31 O31         2.6791   51.5364   21.5709 O.3       1 UNK         0.0000 
     32 C32         2.9940   50.7870   20.4021 C.3       1 UNK         0.0000 
     33 H33        -2.7260   52.4936   21.7024 H         1 UNK         0.0000 
     34 H34        -1.1060   52.0846   22.2520 H         1 UNK         0.0000 
     35 H35        -2.3554   50.8318   22.1994 H         1 UNK         0.0000 
     36 H36        -0.6936   51.2261   29.4284 H         1 UNK         0.0000 
     37 H37        -2.2767   50.6559   29.1615 H         1 UNK         0.0000 
     38 H38        -0.6133   49.6233   25.2088 H         1 UNK         0.0000 
     39 H39         0.3840   48.0968   23.5740 H         1 UNK         0.0000 
     40 H40         1.8962   48.9314   21.8478 H         1 UNK         0.0000 
     41 H41         2.4711   54.4139   24.8859 H         1 UNK         0.0000 
     42 H42         3.0554   52.7730   24.9993 H         1 UNK         0.0000 
     43 H43         5.3098   53.9578   25.1693 H         1 UNK         0.0000 
     44 H44         7.2608   54.7974   23.9096 H         1 UNK         0.0000 
     45 H45         4.9229   54.8526   20.3144 H         1 UNK         0.0000 
     46 H46         2.9635   54.0728   21.5626 H         1 UNK         0.0000 
     47 H47         3.6558   51.3716   19.7622 H         1 UNK         0.0000 
     48 H48         3.5045   49.8572   20.6419 H         1 UNK         0.0000 
     49 H49         2.0957   50.5527   19.8286 H         1 UNK         0.0000 
@<TRIPOS>BOND
     1    1    2 1    
     2    1   33 1    
     3    1   34 1    
     4    1   35 1    
     5    2   12 1    
     6    2    3 2    
     7    3    9 1    
     8    3    4 1    
     9    4    5 1    
    10    4    6 1    
    11    4   16 1    
    12    6    7 2    
    13    6   14 1    
    14    7    8 1    
    15    7   13 1    
    16    8    9 1    
    17    9   10 1    
    18    9   11 1    
    19   11   12 2    
    20   13   36 1    
    21   13   37 1    
    22   14   15 3    
    23   16   21 ar   
    24   16   17 ar   
    25   17   18 ar   
    26   17   38 1    
    27   18   19 ar   
    28   18   39 1    
    29   19   20 ar   
    30   19   40 1    
    31   20   21 ar   
    32   20   31 1    
    33   21   22 1    
    34   22   23 1    
    35   23   24 1    
    36   23   41 1    
    37   23   42 1    
    38   24   29 ar   
    39   24   25 ar   
    40   25   26 ar   
    41   25   43 1    
    42   26   27 ar   
    43   26   44 1    
    44   27   28 ar   
    45   27   30 1    
    46   28   29 ar   
    47   28   45 1    
    48   29   46 1    
    49   31   32 1    
    50   32   47 1    
    51   32   48 1    
    52   32   49 1    
@<TRIPOS>SUBSTRUCTURE
     1 UNK         1 GROUP             0       ****    0 ROOT    
