@<TRIPOS>MOLECULE
ZINC44166839_5001
59   63    1
SMALL
USER_CHARGES


@<TRIPOS>ATOM
      1 C1          5.9531   54.0172   27.8970 C.3       1 UNK         0.0000 
      2 C2          5.0806   54.0951   26.6594 C.2       1 UNK         0.0000 
      3 C3          3.6762   54.0087   26.5699 C.2       1 UNK         0.0000 
      4 S4          3.2771   54.0969   24.8710 S.3       1 UNK         0.0000 
      5 C5          4.9562   54.2923   24.4824 C.2       1 UNK         0.0000 
      6 N6          5.7394   54.2635   25.5268 N.2       1 UNK         0.0000 
      7 C7          5.4362   54.4943   23.0791 C.ar      1 UNK         0.0000 
      8 C8          6.7046   55.0143   22.7874 C.ar      1 UNK         0.0000 
      9 N9          7.0890   55.2981   21.5146 N.ar      1 UNK         0.0000 
     10 C10         6.1973   55.0366   20.5238 C.ar      1 UNK         0.0000 
     11 C11         4.9392   54.4959   20.8008 C.ar      1 UNK         0.0000 
     12 N12         4.5524   54.2254   22.0747 N.ar      1 UNK         0.0000 
     13 C13         2.5783   53.8938   27.6177 C.3       1 UNK         0.0000 
     14 H14         1.6606   54.3325   27.2203 H         1 UNK         0.0000 
     15 C15         2.9117   54.5744   28.9556 C.3       1 UNK         0.0000 
     16 S16         1.5036   54.5581   30.0817 S.3       1 UNK         0.0000 
     17 C17         1.3972   52.7395   30.2306 C.3       1 UNK         0.0000 
     18 C18         1.1778   51.9801   28.8928 C.3       1 UNK         0.0000 
     19 H19         1.2442   50.8965   28.9993 H         1 UNK         0.0000 
     20 N20         2.2465   52.3985   27.8365 N.4       1 UNK         0.0000 
     21 C21        -0.1957   52.3021   28.2569 C.2       1 UNK         0.0000 
     22 O22        -0.4956   53.4748   28.0816 O.2       1 UNK         0.0000 
     23 N23        -1.0355   51.2968   27.9321 N.am      1 UNK         0.0000 
     24 C24        -2.2797   51.4437   27.1491 C.3       1 UNK         0.0000 
     25 H25        -2.7712   52.3290   27.5492 H         1 UNK         0.0000 
     26 C26        -3.2955   50.3157   27.3840 C.3       1 UNK         0.0000 
     27 C27        -2.0574   51.6811   25.6472 C.ar      1 UNK         0.0000 
     28 C28        -2.7169   52.7478   25.0317 C.ar      1 UNK         0.0000 
     29 C29        -2.5319   53.0302   23.6854 C.ar      1 UNK         0.0000 
     30 C30        -1.6623   52.2680   22.9164 C.ar      1 UNK         0.0000 
     31 C31        -0.9746   51.1722   23.4874 C.ar      1 UNK         0.0000 
     32 C32        -1.1947   50.8412   24.8642 C.ar      1 UNK         0.0000 
     33 C33        -0.5485   49.6799   25.3762 C.ar      1 UNK         0.0000 
     34 C34         0.3041   48.9257   24.5812 C.ar      1 UNK         0.0000 
     35 C35         0.5615   49.2969   23.2681 C.ar      1 UNK         0.0000 
     36 C36        -0.0781   50.3971   22.7114 C.ar      1 UNK         0.0000 
     37 H37         5.8932   54.9320   28.4909 H         1 UNK         0.0000 
     38 H38         5.6635   53.1860   28.5398 H         1 UNK         0.0000 
     39 H39         7.0108   53.8615   27.6698 H         1 UNK         0.0000 
     40 H40         7.4193   55.2465   23.5632 H         1 UNK         0.0000 
     41 H41         6.5067   55.2573   19.5118 H         1 UNK         0.0000 
     42 H42         4.2262   54.2832   20.0172 H         1 UNK         0.0000 
     43 H43         3.1691   55.6220   28.7974 H         1 UNK         0.0000 
     44 H44         3.7527   54.1077   29.4640 H         1 UNK         0.0000 
     45 H45         0.5873   52.5274   30.9327 H         1 UNK         0.0000 
     46 H46         2.3141   52.4064   30.7148 H         1 UNK         0.0000 
     47 H47         3.1183   51.9482   28.0707 H         1 UNK         0.0000 
     48 H48        -0.8215   50.3386   28.1880 H         1 UNK         0.0000 
     49 H49        -4.2711   50.5680   26.9685 H         1 UNK         0.0000 
     50 H50        -2.9775   49.3817   26.9185 H         1 UNK         0.0000 
     51 H51        -3.4300   50.1147   28.4480 H         1 UNK         0.0000 
     52 H52        -3.3799   53.3787   25.6062 H         1 UNK         0.0000 
     53 H53        -3.0599   53.8667   23.2533 H         1 UNK         0.0000 
     54 H54        -1.5088   52.5001   21.8726 H         1 UNK         0.0000 
     55 H55        -0.7157   49.3504   26.3895 H         1 UNK         0.0000 
     56 H56         0.7780   48.0523   25.0029 H         1 UNK         0.0000 
     57 H57         1.2534   48.7169   22.6735 H         1 UNK         0.0000 
     58 H58         0.1053   50.6628   21.6792 H         1 UNK         0.0000 
     59 H59         1.9766   52.0116   26.9424 H         1 UNK         0.0000 
@<TRIPOS>BOND
     1    1    2 1    
     2    1   37 1    
     3    1   38 1    
     4    1   39 1    
     5    2    6 1    
     6    2    3 2    
     7    3    4 1    
     8    3   13 1    
     9    4    5 1    
    10    5    6 2    
    11    5    7 1    
    12    7   12 ar   
    13    7    8 ar   
    14    8    9 ar   
    15    8   40 1    
    16    9   10 ar   
    17   10   11 ar   
    18   10   41 1    
    19   11   12 ar   
    20   11   42 1    
    21   13   14 1    
    22   13   20 1    
    23   13   15 1    
    24   15   16 1    
    25   15   43 1    
    26   15   44 1    
    27   16   17 1    
    28   17   18 1    
    29   17   45 1    
    30   17   46 1    
    31   18   19 1    
    32   18   20 1    
    33   18   21 1    
    34   20   47 1    
    35   20   59 1    
    36   21   22 2    
    37   21   23 am   BACKBONE|DICT|INTERRES
    38   23   24 1    
    39   23   48 1    
    40   24   25 1    
    41   24   26 1    
    42   24   27 1    
    43   26   49 1    
    44   26   50 1    
    45   26   51 1    
    46   27   32 ar   
    47   27   28 ar   
    48   28   29 ar   
    49   28   52 1    
    50   29   30 ar   
    51   29   53 1    
    52   30   31 ar   
    53   30   54 1    
    54   31   36 ar   
    55   31   32 ar   
    56   32   33 ar   
    57   33   34 ar   
    58   33   55 1    
    59   34   35 ar   
    60   34   56 1    
    61   35   36 ar   
    62   35   57 1    
    63   36   58 1    
@<TRIPOS>SUBSTRUCTURE
     1 UNK         1 GROUP             0       ****    0 ROOT    
