@<TRIPOS>MOLECULE
ZINC01874671_3342
47   50    1
SMALL
USER_CHARGES


@<TRIPOS>ATOM
      1 C1          0.7072   51.7585   25.9284 C.3       1 UNK         0.0000 
      2 C2         -0.0598   50.6599   25.2163 C.ar      1 UNK         0.0000 
      3 C3         -0.9499   50.9895   24.1925 C.ar      1 UNK         0.0000 
      4 C4         -1.6800   49.9879   23.5575 C.ar      1 UNK         0.0000 
      5 C5         -1.5204   48.6581   23.9507 C.ar      1 UNK         0.0000 
      6 C6         -0.6235   48.3264   24.9661 C.ar      1 UNK         0.0000 
      7 C7          0.1053   49.3281   25.6012 C.ar      1 UNK         0.0000 
      8 S8         -2.4805   47.3893   23.1382 S.o2      1 UNK         0.0000 
      9 O9         -2.1308   46.0973   23.7380 O.2       1 UNK         0.0000 
     10 O10        -3.8684   47.8621   23.1318 O.2       1 UNK         0.0000 
     11 N11        -1.8673   47.4125   21.4867 N.pl3     1 UNK         0.0000 
     12 C12        -2.4617   46.6339   20.3547 C.3       1 UNK         0.0000 
     13 C13        -1.6202   45.4216   20.0203 C.ar      1 UNK         0.0000 
     14 C14        -1.4321   44.1294   20.6776 C.ar      1 UNK         0.0000 
     15 N15        -0.5671   43.2857   20.1266 N.2       1 UNK         0.0000 
     16 C16         0.1033   43.5082   18.9918 C.ar      1 UNK         0.0000 
     17 O17         0.8782   42.6790   18.5100 O.2       1 UNK         0.0000 
     18 N18        -0.0863   44.7183   18.3281 N.pl3     1 UNK         0.0000 
     19 C19        -0.9609   45.6494   18.8699 C.ar      1 UNK         0.0000 
     20 N20        -1.3118   46.8571   18.3609 N.am      1 UNK         0.0000 
     21 C21        -2.2095   47.5132   19.1135 C.2       1 UNK         0.0000 
     22 O22        -2.7086   48.6102   18.8654 O.2       1 UNK         0.0000 
     23 C23         0.6256   45.0427   17.1479 C.ar      1 UNK         0.0000 
     24 C24         0.4322   44.2984   15.9769 C.ar      1 UNK         0.0000 
     25 C25         1.1208   44.6415   14.8164 C.ar      1 UNK         0.0000 
     26 C26         1.9975   45.7241   14.8290 C.ar      1 UNK         0.0000 
     27 C27         2.1989   46.4662   15.9902 C.ar      1 UNK         0.0000 
     28 C28         1.5049   46.1330   17.1489 C.ar      1 UNK         0.0000 
     29 O29        -2.0950   43.8939   21.6813 O.2       1 UNK         0.0000 
     30 C30        -4.0022   46.3340   20.4583 C.3       1 UNK         0.0000 
     31 F31        -4.7468   47.4386   20.5529 F         1 UNK         0.0000 
     32 F32        -4.4463   45.6743   19.3834 F         1 UNK         0.0000 
     33 F33        -4.3132   45.5699   21.5057 F         1 UNK         0.0000 
     34 H34         1.5386   52.1044   25.3141 H         1 UNK         0.0000 
     35 H35         1.0874   51.4242   26.8944 H         1 UNK         0.0000 
     36 H36         0.0541   52.6095   26.1229 H         1 UNK         0.0000 
     37 H37        -1.0821   52.0187   23.8936 H         1 UNK         0.0000 
     38 H38        -2.3737   50.2434   22.7693 H         1 UNK         0.0000 
     39 H39        -0.4972   47.2999   25.2792 H         1 UNK         0.0000 
     40 H40         0.7803   49.0595   26.4009 H         1 UNK         0.0000 
     41 H41        -0.8530   47.2859   21.4720 H         1 UNK         0.0000 
     42 H42        -0.9523   47.2141   17.4885 H         1 UNK         0.0000 
     43 H43        -0.2483   43.4593   15.9668 H         1 UNK         0.0000 
     44 H44         0.9741   44.0719   13.9103 H         1 UNK         0.0000 
     45 H45         2.5262   45.9951   13.9288 H         1 UNK         0.0000 
     46 H46         2.8902   47.2972   15.9937 H         1 UNK         0.0000 
     47 H47         1.6669   46.7140   18.0459 H         1 UNK         0.0000 
@<TRIPOS>BOND
     1    1    2 1    
     2    1   34 1    
     3    1   35 1    
     4    1   36 1    
     5    2    7 ar   
     6    2    3 ar   
     7    3    4 ar   
     8    3   37 1    
     9    4    5 ar   
    10    4   38 1    
    11    5    6 ar   
    12    5    8 1    
    13    6    7 ar   
    14    6   39 1    
    15    7   40 1    
    16    8    9 2    
    17    8   10 2    
    18    8   11 1    
    19   11   12 1    
    20   11   41 1    
    21   12   21 1    
    22   12   13 1    
    23   12   30 1    
    24   13   19 ar   
    25   13   14 ar   
    26   14   15 ar   
    27   14   29 2    
    28   15   16 ar   
    29   16   18 ar   
    30   16   17 2    
    31   18   19 ar   
    32   18   23 1    
    33   19   20 1    
    34   20   21 am   BACKBONE|DICT|INTERRES
    35   20   42 1    
    36   21   22 2    
    37   23   28 ar   
    38   23   24 ar   
    39   24   25 ar   
    40   24   43 1    
    41   25   26 ar   
    42   25   44 1    
    43   26   27 ar   
    44   26   45 1    
    45   27   28 ar   
    46   27   46 1    
    47   28   47 1    
    48   30   31 1    
    49   30   32 1    
    50   30   33 1    
@<TRIPOS>SUBSTRUCTURE
     1 UNK         1 GROUP             0       ****    0 ROOT    
