ZINC65920996_4713
                    3D
 Schrodinger Suite 2024-2.
 35 36  0  0  1  0            999 V2000
    4.6979   54.4966   19.7788 C   0  0  0  0  0  0
    5.7412   54.7509   20.6865 C   0  0  0  0  0  0
    6.9345   55.3270   20.1798 C   0  0  0  0  0  0
    7.0430   55.6284   18.8200 C   0  0  0  0  0  0
    5.9901   55.3760   17.9462 C   0  0  0  0  0  0
    4.8144   54.8089   18.4264 C   0  0  0  0  0  0
    3.7824   54.5655   17.5866 F   0  0  0  0  0  0
    6.1167   55.6819   16.6342 F   0  0  0  0  0  0
    8.3227   55.6989   21.1476 Cl  0  0  0  0  0  0
    5.5082   54.4011   22.1467 C   0  0  0  0  0  0
    4.3579   54.3473   22.5913 O   0  0  0  0  0  0
    6.6019   54.0945   22.8819 N   0  0  0  0  0  0
    6.4762   53.6970   24.2136 N   0  0  0  0  0  0
    6.2657   54.6040   25.1858 C   0  0  0  0  0  0
    6.3326   55.8238   25.0359 O   0  0  0  0  0  0
    5.9578   54.0110   26.3504 N   0  0  0  0  0  0
    5.1973   54.6520   27.4233 C   0  0  0  0  0  0
    3.6796   54.4957   27.2485 C   0  0  0  0  0  0
    3.2921   53.2415   28.0424 C   0  0  0  0  0  0
    4.4848   52.9120   28.9576 C   0  0  0  0  0  0
    5.4986   54.0473   28.7852 C   0  0  0  0  0  0
    3.7706   54.0550   20.1150 H   0  0  0  0  0  0
    7.9531   56.0645   18.4349 H   0  0  0  0  0  0
    7.5302   54.4331   22.6699 H   0  0  0  0  0  0
    6.3171   52.7050   24.3193 H   0  0  0  0  0  0
    6.0358   53.0064   26.4152 H   0  0  0  0  0  0
    5.5062   55.6965   27.4133 H   0  0  0  0  0  0
    3.1757   55.3438   27.7084 H   0  0  0  0  0  0
    3.3582   54.4827   26.2056 H   0  0  0  0  0  0
    2.3824   53.4076   28.6229 H   0  0  0  0  0  0
    3.0876   52.4105   27.3649 H   0  0  0  0  0  0
    4.1839   52.7959   30.0008 H   0  0  0  0  0  0
    4.9455   51.9738   28.6539 H   0  0  0  0  0  0
    6.5406   53.7386   28.8844 H   0  0  0  0  0  0
    5.3314   54.8050   29.5525 H   0  0  0  0  0  0
  1  6  2  0  0  0
  1  2  1  0  0  0
  1 22  1  0  0  0
  2  3  2  0  0  0
  2 10  1  0  0  0
  3  4  1  0  0  0
  3  9  1  0  0  0
  4  5  2  0  0  0
  4 23  1  0  0  0
  5  6  1  0  0  0
  5  8  1  0  0  0
  6  7  1  0  0  0
 10 11  2  0  0  0
 10 12  1  0  0  0
 12 13  1  0  0  0
 12 24  1  0  0  0
 13 14  1  0  0  0
 13 25  1  0  0  0
 14 15  2  0  0  0
 14 16  1  0  0  0
 16 17  1  0  0  0
 16 26  1  0  0  0
 17 21  1  0  0  0
 17 18  1  0  0  0
 17 27  1  0  0  0
 18 19  1  0  0  0
 18 28  1  0  0  0
 18 29  1  0  0  0
 19 20  1  0  0  0
 19 30  1  0  0  0
 19 31  1  0  0  0
 20 21  1  0  0  0
 20 32  1  0  0  0
 20 33  1  0  0  0
 21 34  1  0  0  0
 21 35  1  0  0  0
M  END
> <i_i_glide_confnum>
61

> <i_i_glide_lignum>
4714

> <i_i_glide_posenum>
310

> <i_i_glide_rotatable_bonds>
6

> <i_m_Source_File_Index>
3406

> <b_m_subgroup_collapsed>
0

> <r_i_docking_score>
-4.8534

> <r_i_glide_ecoul>
-1.98611

> <r_i_glide_eff_state_penalty>
0

> <r_i_glide_einternal>
4.73667

> <r_i_glide_emodel>
-44.7262

> <r_i_glide_energy>
-34.3956

> <r_i_glide_erotb>
0.738413

> <r_i_glide_esite>
-0.00449059

> <r_i_glide_evdw>
-32.4095

> <r_i_glide_gscore>
-4.8534

> <r_i_glide_hbond>
0

> <r_i_glide_ligand_efficiency>
-0.231114

> <r_i_glide_ligand_efficiency_ln>
-1.19999

> <r_i_glide_ligand_efficiency_sa>
-0.637627

> <r_i_glide_lipo>
-1.79229

> <r_i_glide_metal>
0

> <r_i_glide_rewards>
-1.87665

> <s_i_glide_gridfile>
wee1_glide-grid

> <s_m_Source_File>
wee1_decoys_glide_SP.sdf

> <s_m_Source_Path>
/Users/zhangxujun/Desktop

> <s_m_entry_id>
3681

> <s_m_entry_name>
wee1_decoys_glide_SP.3406

> <s_m_subgroup_title>
wee1_decoys_glide_SP

> <s_m_subgroupid>
wee1_decoys_glide_SP


$$$$
