@<TRIPOS>MOLECULE
ZINC01762768_5768
66   70    1
SMALL
USER_CHARGES


@<TRIPOS>ATOM
      1 C1          1.8232   56.4657   29.3932 C.3       1 UNK         0.0000 
      2 C2          2.6607   55.1866   29.2819 C.3       1 UNK         0.0000 
      3 O3          2.0761   54.1556   30.0817 O.3       1 UNK         0.0000 
      4 C4          1.0977   53.3176   29.5710 C.ar      1 UNK         0.0000 
      5 C5          0.9560   53.0370   28.2015 C.ar      1 UNK         0.0000 
      6 C6         -0.0058   52.1305   27.7263 C.ar      1 UNK         0.0000 
      7 C7         -0.8367   51.5020   28.6555 C.ar      1 UNK         0.0000 
      8 C8         -0.7129   51.7604   30.0168 C.ar      1 UNK         0.0000 
      9 C9          0.2424   52.6635   30.4752 C.ar      1 UNK         0.0000 
     10 O10         0.3044   52.8994   31.8266 O.3       1 UNK         0.0000 
     11 C11        -0.1497   51.8104   26.3004 C.2       1 UNK         0.0000 
     12 N12         0.4483   52.4564   25.3831 N.2       1 UNK         0.0000 
     13 N13         0.1903   52.0052   24.1419 N.am      1 UNK         0.0000 
     14 C14         0.6308   52.6522   23.0455 C.2       1 UNK         0.0000 
     15 O15         1.2881   53.6966   23.0823 O.2       1 UNK         0.0000 
     16 C16         0.2208   52.0684   21.6861 C.3       1 UNK         0.0000 
     17 S17         1.4710   50.9657   20.9444 S.3       1 UNK         0.0000 
     18 C18         2.6500   52.2017   20.3473 C.ar      1 UNK         0.0000 
     19 N19         3.4931   52.5962   21.2326 N.2       1 UNK         0.0000 
     20 C20         4.3930   53.5362   20.8602 C.ar      1 UNK         0.0000 
     21 C21         4.5270   54.0629   19.5816 C.ar      1 UNK         0.0000 
     22 C22         5.6225   54.9422   19.4776 C.2       1 UNK         0.0000 
     23 C23         6.2815   55.0937   20.7116 C.2       1 UNK         0.0000 
     24 S24         5.5046   54.2038   21.9901 S.3       1 UNK         0.0000 
     25 C25         7.5861   55.8506   20.9198 C.3       1 UNK         0.0000 
     26 C26         7.9087   56.6873   19.6625 C.3       1 UNK         0.0000 
     27 C27         7.6370   55.9358   18.3519 C.3       1 UNK         0.0000 
     28 C28         6.1423   55.5898   18.1944 C.3       1 UNK         0.0000 
     29 C29         3.5736   53.6543   18.5498 C.ar      1 UNK         0.0000 
     30 O30         3.5520   54.0902   17.3921 O.2       1 UNK         0.0000 
     31 N31         2.6606   52.7185   19.0414 N.pl3     1 UNK         0.0000 
     32 C32         1.6721   52.2940   18.1239 C.ar      1 UNK         0.0000 
     33 C33         0.4060   52.8901   18.1128 C.ar      1 UNK         0.0000 
     34 C34        -0.5610   52.4579   17.2098 C.ar      1 UNK         0.0000 
     35 C35        -0.2612   51.4300   16.3122 C.ar      1 UNK         0.0000 
     36 C36         1.0135   50.8596   16.2962 C.ar      1 UNK         0.0000 
     37 C37         1.9780   51.2978   17.1964 C.ar      1 UNK         0.0000 
     38 C38        -1.3128   50.9549   15.3279 C.3       1 UNK         0.0000 
     39 H39         2.3041   57.2967   28.8804 H         1 UNK         0.0000 
     40 H40         1.6888   56.7600   30.4358 H         1 UNK         0.0000 
     41 H41         0.8344   56.3300   28.9507 H         1 UNK         0.0000 
     42 H42         2.8372   54.9220   28.2427 H         1 UNK         0.0000 
     43 H43         3.6548   55.3747   29.6811 H         1 UNK         0.0000 
     44 H44         1.6133   53.4896   27.4780 H         1 UNK         0.0000 
     45 H45        -1.5827   50.7852   28.3372 H         1 UNK         0.0000 
     46 H46        -1.3537   51.2428   30.7187 H         1 UNK         0.0000 
     47 H47        -0.3802   52.4206   32.3323 H         1 UNK         0.0000 
     48 H48        -0.8222   50.9790   26.0915 H         1 UNK         0.0000 
     49 H49        -0.3747   51.1723   24.0849 H         1 UNK         0.0000 
     50 H50        -0.7198   51.5266   21.7729 H         1 UNK         0.0000 
     51 H51         0.0371   52.8953   21.0040 H         1 UNK         0.0000 
     52 H52         7.5457   56.4967   21.7961 H         1 UNK         0.0000 
     53 H53         8.3941   55.1373   21.0832 H         1 UNK         0.0000 
     54 H54         7.3167   57.6032   19.6779 H         1 UNK         0.0000 
     55 H55         8.9584   56.9830   19.6803 H         1 UNK         0.0000 
     56 H56         7.9599   56.5382   17.5013 H         1 UNK         0.0000 
     57 H57         8.2314   55.0226   18.3192 H         1 UNK         0.0000 
     58 H58         6.0173   54.9344   17.3339 H         1 UNK         0.0000 
     59 H59         5.5630   56.4903   17.9744 H         1 UNK         0.0000 
     60 H60         0.1921   53.6956   18.7958 H         1 UNK         0.0000 
     61 H61        -1.5350   52.9232   17.2077 H         1 UNK         0.0000 
     62 H62         1.2637   50.0820   15.5893 H         1 UNK         0.0000 
     63 H63         2.9779   50.8970   17.1724 H         1 UNK         0.0000 
     64 H64        -1.8859   50.1300   15.7528 H         1 UNK         0.0000 
     65 H65        -2.0003   51.7595   15.0601 H         1 UNK         0.0000 
     66 H66        -0.8533   50.6183   14.3982 H         1 UNK         0.0000 
@<TRIPOS>BOND
     1    1    2 1    
     2    1   39 1    
     3    1   40 1    
     4    1   41 1    
     5    2    3 1    
     6    2   42 1    
     7    2   43 1    
     8    3    4 1    
     9    4    9 ar   
    10    4    5 ar   
    11    5    6 ar   
    12    5   44 1    
    13    6    7 ar   
    14    6   11 1    
    15    7    8 ar   
    16    7   45 1    
    17    8    9 ar   
    18    8   46 1    
    19    9   10 1    
    20   10   47 1    
    21   11   12 2    
    22   11   48 1    
    23   12   13 1    
    24   13   14 am   BACKBONE|DICT|INTERRES
    25   13   49 1    
    26   14   15 2    
    27   14   16 1    
    28   16   17 1    
    29   16   50 1    
    30   16   51 1    
    31   17   18 1    
    32   18   31 ar   
    33   18   19 ar   
    34   19   20 ar   
    35   20   24 1    
    36   20   21 ar   
    37   21   22 1    
    38   21   29 ar   
    39   22   28 1    
    40   22   23 2    
    41   23   24 1    
    42   23   25 1    
    43   25   26 1    
    44   25   52 1    
    45   25   53 1    
    46   26   27 1    
    47   26   54 1    
    48   26   55 1    
    49   27   28 1    
    50   27   56 1    
    51   27   57 1    
    52   28   58 1    
    53   28   59 1    
    54   29   30 2    
    55   29   31 ar   
    56   31   32 1    
    57   32   37 ar   
    58   32   33 ar   
    59   33   34 ar   
    60   33   60 1    
    61   34   35 ar   
    62   34   61 1    
    63   35   36 ar   
    64   35   38 1    
    65   36   37 ar   
    66   36   62 1    
    67   37   63 1    
    68   38   64 1    
    69   38   65 1    
    70   38   66 1    
@<TRIPOS>SUBSTRUCTURE
     1 UNK         1 GROUP             0       ****    0 ROOT    
