@<TRIPOS>MOLECULE
ZINC25611773_4435
51   54    1
SMALL
USER_CHARGES


@<TRIPOS>ATOM
      1 C1          7.1090   55.4195   21.6538 C.ar      1 UNK         0.0000 
      2 C2          7.7447   55.6947   20.4460 C.ar      1 UNK         0.0000 
      3 C3          7.1336   55.3326   19.2512 C.ar      1 UNK         0.0000 
      4 C4          5.8932   54.7005   19.2535 C.ar      1 UNK         0.0000 
      5 C5          5.2561   54.4298   20.4617 C.ar      1 UNK         0.0000 
      6 C6          5.8600   54.7812   21.6766 C.ar      1 UNK         0.0000 
      7 C7          5.1590   54.4967   22.9758 C.2       1 UNK         0.0000 
      8 N8          3.9094   54.0925   23.0695 N.2       1 UNK         0.0000 
      9 C9          3.4893   53.9893   24.3220 C.2       1 UNK         0.0000 
     10 C10         4.4294   54.3905   25.2831 C.2       1 UNK         0.0000 
     11 S11         5.9268   54.7920   24.5136 S.3       1 UNK         0.0000 
     12 C12         2.1277   53.5515   24.5753 C.2       1 UNK         0.0000 
     13 O13         1.2259   53.6438   23.7407 O.2       1 UNK         0.0000 
     14 N14         1.9971   53.0238   25.8072 N.am      1 UNK         0.0000 
     15 C15         0.8846   52.4945   26.4886 C.ar      1 UNK         0.0000 
     16 C16        -0.2058   51.9090   25.8316 C.ar      1 UNK         0.0000 
     17 C17        -1.2396   51.3143   26.5680 C.ar      1 UNK         0.0000 
     18 C18        -1.1990   51.3667   27.9684 C.ar      1 UNK         0.0000 
     19 C19        -0.1444   51.9873   28.6269 C.ar      1 UNK         0.0000 
     20 C20         0.9006   52.5530   27.8956 C.ar      1 UNK         0.0000 
     21 N21         1.9615   53.1552   28.5488 N.pl3     1 UNK         0.0000 
     22 C22         2.9773   52.3436   29.2270 C.3       1 UNK         0.0000 
     23 C23         4.3415   53.0481   29.0978 C.3       1 UNK         0.0000 
     24 C24         4.3041   54.4966   29.6181 C.3       1 UNK         0.0000 
     25 C25         3.0531   55.2541   29.1256 C.3       1 UNK         0.0000 
     26 C26         1.7649   54.4206   29.2578 C.3       1 UNK         0.0000 
     27 C27        -2.3658   50.6164   25.8553 C.2       1 UNK         0.0000 
     28 O28        -2.7621   50.9823   24.7506 O.2       1 UNK         0.0000 
     29 N29        -2.9031   49.5697   26.4794 N.am      1 UNK         0.0000 
     30 F30         7.7510   55.5912   18.0768 F         1 UNK         0.0000 
     31 H31         7.6065   55.7043   22.5673 H         1 UNK         0.0000 
     32 H32         8.7154   56.1670   20.4360 H         1 UNK         0.0000 
     33 H33         5.4252   54.4243   18.3204 H         1 UNK         0.0000 
     34 H34         4.2905   53.9430   20.4414 H         1 UNK         0.0000 
     35 H35         4.3401   54.4463   26.3577 H         1 UNK         0.0000 
     36 H36         2.8027   53.1290   26.4042 H         1 UNK         0.0000 
     37 H37        -0.2198   51.8591   24.7514 H         1 UNK         0.0000 
     38 H38        -1.9802   50.9160   28.5688 H         1 UNK         0.0000 
     39 H39        -0.1334   52.0113   29.7084 H         1 UNK         0.0000 
     40 H40         3.0429   51.3666   28.7443 H         1 UNK         0.0000 
     41 H41         2.7014   52.1752   30.2703 H         1 UNK         0.0000 
     42 H42         4.6836   53.0014   28.0630 H         1 UNK         0.0000 
     43 H43         5.0959   52.4893   29.6565 H         1 UNK         0.0000 
     44 H44         4.3034   54.4732   30.7051 H         1 UNK         0.0000 
     45 H45         5.2105   55.0295   29.3323 H         1 UNK         0.0000 
     46 H46         2.9383   56.1854   29.6782 H         1 UNK         0.0000 
     47 H47         3.1630   55.5656   28.0890 H         1 UNK         0.0000 
     48 H48         0.9463   54.9762   28.7996 H         1 UNK         0.0000 
     49 H49         1.4994   54.2420   30.3008 H         1 UNK         0.0000 
     50 H50        -3.6684   49.0788   26.0476 H         1 UNK         0.0000 
     51 H51        -2.3997   49.1302   27.2576 H         1 UNK         0.0000 
@<TRIPOS>BOND
     1    1    6 ar   
     2    1    2 ar   
     3    1   31 1    
     4    2    3 ar   
     5    2   32 1    
     6    3    4 ar   
     7    3   30 1    
     8    4    5 ar   
     9    4   33 1    
    10    5    6 ar   
    11    5   34 1    
    12    6    7 1    
    13    7   11 1    
    14    7    8 2    
    15    8    9 1    
    16    9   10 2    
    17    9   12 1    
    18   10   11 1    
    19   10   35 1    
    20   12   13 2    
    21   12   14 am   BACKBONE|DICT|INTERRES
    22   14   15 1    
    23   14   36 1    
    24   15   20 ar   
    25   15   16 ar   
    26   16   17 ar   
    27   16   37 1    
    28   17   18 ar   
    29   17   27 1    
    30   18   19 ar   
    31   18   38 1    
    32   19   20 ar   
    33   19   39 1    
    34   20   21 1    
    35   21   26 1    
    36   21   22 1    
    37   22   23 1    
    38   22   40 1    
    39   22   41 1    
    40   23   24 1    
    41   23   42 1    
    42   23   43 1    
    43   24   25 1    
    44   24   44 1    
    45   24   45 1    
    46   25   26 1    
    47   25   46 1    
    48   25   47 1    
    49   26   48 1    
    50   26   49 1    
    51   27   28 2    
    52   27   29 am   BACKBONE|DICT|INTERRES
    53   29   50 1    
    54   29   51 1    
@<TRIPOS>SUBSTRUCTURE
     1 UNK         1 GROUP             0       ****    0 ROOT    
