ZINC16734677_4024
                    3D
 Schrodinger Suite 2024-2.
 57 61  0  0  1  0            999 V2000
    7.4294   56.5580   17.4147 C   0  0  0  0  0  0
    7.1990   56.1125   18.8465 C   0  0  0  0  0  0
    8.2754   55.9784   19.7209 C   0  0  0  0  0  0
    8.0529   55.5846   21.0379 C   0  0  0  0  0  0
    6.7622   55.2963   21.4977 C   0  0  0  0  0  0
    5.6960   55.4609   20.6135 C   0  0  0  0  0  0
    5.9051   55.8601   19.2968 C   0  0  0  0  0  0
    6.5350   54.8862   22.9671 C   0  0  0  0  0  0
    5.7223   53.6945   23.2433 N   0  0  0  0  0  0
    4.4541   53.3981   22.7898 C   0  0  0  0  0  0
    3.3096   53.5325   23.5251 C   0  0  0  0  0  0
    2.0358   53.2891   22.8322 C   0  0  0  0  0  0
    0.9648   53.7006   23.2818 O   0  0  0  0  0  0
    2.1442   52.6326   21.6318 N   0  0  0  0  0  0
    0.9857   52.2080   20.9765 C   0  0  0  0  0  0
    0.9384   51.6319   19.7509 C   0  0  0  0  0  0
    2.2297   51.4460   19.0939 C   0  0  0  0  0  0
    3.3685   51.8428   19.7035 C   0  0  0  0  0  0
    3.3759   52.4554   21.0039 C   0  0  0  0  0  0
    4.4709   52.8303   21.5538 N   0  0  0  0  0  0
   -0.3537   51.1419   19.1269 C   0  0  0  0  0  0
    3.3088   53.9577   24.9373 C   0  0  0  0  0  0
    2.4614   53.5709   25.9340 C   0  0  0  0  0  0
    2.6125   54.0969   27.2728 C   0  0  0  0  0  0
    3.4913   54.8867   27.6342 O   0  0  0  0  0  0
    1.6382   53.6159   28.0867 N   0  0  0  0  0  0
    0.7890   52.6564   27.6105 C   0  0  0  0  0  0
   -0.4087   51.7675   28.3534 S   0  0  0  0  0  0
    1.1049   52.4206   25.9268 S   0  0  0  0  0  0
    1.6081   54.0221   29.5040 C   0  0  0  0  0  0
    2.3797   53.0622   30.3778 C   0  0  0  0  0  0
    3.7109   52.6809   30.4574 C   0  0  0  0  0  0
    3.8128   51.8009   31.5335 C   0  0  0  0  0  0
    2.5397   51.6968   32.0649 C   0  0  0  0  0  0
    1.6702   52.4588   31.3620 O   0  0  0  0  0  0
    6.6328   57.2285   17.0898 H   0  0  0  0  0  0
    8.3649   57.1097   17.3112 H   0  0  0  0  0  0
    7.4479   55.6971   16.7457 H   0  0  0  0  0  0
    9.2848   56.1770   19.3879 H   0  0  0  0  0  0
    8.9099   55.4896   21.6817 H   0  0  0  0  0  0
    4.6868   55.2966   20.9460 H   0  0  0  0  0  0
    5.0608   55.9753   18.6327 H   0  0  0  0  0  0
    6.0972   55.7017   23.5283 H   0  0  0  0  0  0
    7.5044   54.7060   23.4283 H   0  0  0  0  0  0
    5.8710   53.4250   24.2035 H   0  0  0  0  0  0
    0.0706   52.3476   21.5407 H   0  0  0  0  0  0
    2.2822   50.9850   18.1156 H   0  0  0  0  0  0
    4.3044   51.6968   19.1979 H   0  0  0  0  0  0
   -0.5855   51.7168   18.2299 H   0  0  0  0  0  0
   -0.2236   50.1109   18.7975 H   0  0  0  0  0  0
   -1.1923   51.1627   19.8235 H   0  0  0  0  0  0
    4.0902   54.6596   25.2026 H   0  0  0  0  0  0
    0.5721   54.1044   29.8379 H   0  0  0  0  0  0
    2.0036   55.0320   29.6272 H   0  0  0  0  0  0
    4.5087   53.0083   29.8055 H   0  0  0  0  0  0
    4.7038   51.3062   31.8867 H   0  0  0  0  0  0
    2.1132   51.1352   32.8815 H   0  0  0  0  0  0
  1  2  1  0  0  0
  1 36  1  0  0  0
  1 37  1  0  0  0
  1 38  1  0  0  0
  2  7  2  0  0  0
  2  3  1  0  0  0
  3  4  2  0  0  0
  3 39  1  0  0  0
  4  5  1  0  0  0
  4 40  1  0  0  0
  5  6  2  0  0  0
  5  8  1  0  0  0
  6  7  1  0  0  0
  6 41  1  0  0  0
  7 42  1  0  0  0
  8  9  1  0  0  0
  8 43  1  0  0  0
  8 44  1  0  0  0
  9 10  1  0  0  0
  9 45  1  0  0  0
 10 20  1  0  0  0
 10 11  2  0  0  0
 11 12  1  0  0  0
 11 22  1  0  0  0
 12 13  2  0  0  0
 12 14  1  0  0  0
 14 19  1  0  0  0
 14 15  1  0  0  0
 15 16  2  0  0  0
 15 46  1  0  0  0
 16 17  1  0  0  0
 16 21  1  0  0  0
 17 18  2  0  0  0
 17 47  1  0  0  0
 18 19  1  0  0  0
 18 48  1  0  0  0
 19 20  2  0  0  0
 21 49  1  0  0  0
 21 50  1  0  0  0
 21 51  1  0  0  0
 22 23  2  0  0  0
 22 52  1  0  0  0
 23 29  1  0  0  0
 23 24  1  0  0  0
 24 25  2  0  0  0
 24 26  1  0  0  0
 26 27  1  0  0  0
 26 30  1  0  0  0
 27 28  2  0  0  0
 27 29  1  0  0  0
 30 31  1  0  0  0
 30 53  1  0  0  0
 30 54  1  0  0  0
 31 35  1  0  0  0
 31 32  2  0  0  0
 32 33  1  0  0  0
 32 55  1  0  0  0
 33 34  2  0  0  0
 33 56  1  0  0  0
 34 35  1  0  0  0
 34 57  1  0  0  0
M  END
> <i_i_glide_confnum>
94

> <i_i_glide_lignum>
4025

> <i_i_glide_posenum>
180

> <i_i_glide_rotatable_bonds>
6

> <i_m_Source_File_Index>
2019

> <b_m_subgroup_collapsed>
0

> <r_i_docking_score>
-5.73319

> <r_i_glide_ecoul>
-6.12773

> <r_i_glide_eff_state_penalty>
0

> <r_i_glide_einternal>
14.1544

> <r_i_glide_emodel>
-57.6917

> <r_i_glide_energy>
-47.6288

> <r_i_glide_erotb>
0.485344

> <r_i_glide_esite>
-0.0447242

> <r_i_glide_evdw>
-41.5011

> <r_i_glide_gscore>
-5.73319

> <r_i_glide_hbond>
0

> <r_i_glide_ligand_efficiency>
-0.163805

> <r_i_glide_ligand_efficiency_ln>
-1.25856

> <r_i_glide_ligand_efficiency_sa>
-0.535819

> <r_i_glide_lipo>
-2.5016

> <r_i_glide_metal>
0

> <r_i_glide_rewards>
-0.678004

> <s_i_glide_gridfile>
wee1_glide-grid

> <s_m_Source_File>
wee1_decoys_glide_SP.sdf

> <s_m_Source_Path>
/Users/zhangxujun/Desktop

> <s_m_entry_id>
2294

> <s_m_entry_name>
wee1_decoys_glide_SP.2019

> <s_m_subgroup_title>
wee1_decoys_glide_SP

> <s_m_subgroupid>
wee1_decoys_glide_SP


$$$$
