ZINC63205566_1110
                    3D
 Schrodinger Suite 2024-2.
 75 79  0  0  1  0            999 V2000
    7.0547   54.0571   26.1410 C   0  0  0  0  0  0
    6.7184   55.1425   25.2830 O   0  0  0  0  0  0
    6.1143   54.7980   24.0927 C   0  0  0  0  0  0
    6.7194   55.2048   22.9059 C   0  0  0  0  0  0
    6.1607   54.8976   21.6666 C   0  0  0  0  0  0
    4.9515   54.1916   21.5775 C   0  0  0  0  0  0
    4.3270   53.8266   22.7831 C   0  0  0  0  0  0
    4.8935   54.1077   24.0256 C   0  0  0  0  0  0
    4.2209   53.6966   25.1494 O   0  0  0  0  0  0
    3.6642   54.7475   25.9215 C   0  0  0  0  0  0
    4.2424   53.9054   20.2448 C   0  0  2  0  0  0
    3.3483   54.5145   20.2713 H   0  0  0  0  0  0
    3.6573   52.4561   20.1269 C   0  0  0  0  0  0
    4.0131   51.5676   20.9068 O   0  0  0  0  0  0
    2.7988   52.2406   19.1156 N   0  0  0  0  0  0
    2.2456   50.9339   18.7520 C   0  0  0  0  0  0
    1.3089   50.2783   19.8039 C   0  0  0  0  0  0
    0.7575   48.9082   19.3605 C   0  0  0  0  0  0
    0.1041   48.9727   17.9704 C   0  0  0  0  0  0
    1.0829   49.5266   16.9229 C   0  0  0  0  0  0
    1.6598   50.8995   17.3220 C   0  0  0  0  0  0
    5.0102   54.3636   19.0281 N   0  0  0  0  0  0
    4.8734   55.7864   18.6772 C   0  0  0  0  0  0
    3.8135   56.0568   17.6331 C   0  0  0  0  0  0
    2.9266   55.2811   16.8944 C   0  0  0  0  0  0
    2.2005   56.1567   16.0849 C   0  0  0  0  0  0
    2.6865   57.4254   16.3492 C   0  0  0  0  0  0
    3.6687   57.3603   17.2813 O   0  0  0  0  0  0
    5.9649   53.6098   18.4150 C   0  0  0  0  0  0
    6.3044   52.5353   18.8820 O   0  0  0  0  0  0
    6.6104   54.0227   17.0768 C   0  0  0  0  0  0
    8.1275   53.9057   17.1285 C   0  0  0  0  0  0
    8.9519   52.9509   16.6561 C   0  0  0  0  0  0
    8.6586   51.6768   15.9788 C   0  0  0  0  0  0
    9.6543   50.8571   15.5867 C   0  0  0  0  0  0
   11.0245   51.2733   15.8525 C   0  0  0  0  0  0
   11.3137   52.4436   16.4821 C   0  0  0  0  0  0
   10.2841   53.2982   16.8994 C   0  0  0  0  0  0
   10.3529   54.4434   17.5370 N   0  3  0  0  0  0
    8.9973   54.9766   17.7616 C   0  0  0  0  0  0
    7.7813   54.3897   26.8834 H   0  0  0  0  0  0
    6.1921   53.6890   26.6956 H   0  0  0  0  0  0
    7.4752   53.2200   25.5815 H   0  0  0  0  0  0
    7.6393   55.7661   22.9535 H   0  0  0  0  0  0
    6.6771   55.2322   20.7806 H   0  0  0  0  0  0
    3.3763   53.3133   22.7666 H   0  0  0  0  0  0
    2.9509   54.3431   26.6407 H   0  0  0  0  0  0
    4.4254   55.2985   26.4750 H   0  0  0  0  0  0
    3.1410   55.4457   25.2747 H   0  0  0  0  0  0
    2.5067   53.0295   18.5601 H   0  0  0  0  0  0
    3.1036   50.2584   18.6996 H   0  0  0  0  0  0
    1.8260   50.1543   20.7564 H   0  0  0  0  0  0
    0.4659   50.9452   19.9890 H   0  0  0  0  0  0
    1.5751   48.1856   19.3398 H   0  0  0  0  0  0
    0.0434   48.5305   20.0954 H   0  0  0  0  0  0
   -0.2346   47.9796   17.6756 H   0  0  0  0  0  0
   -0.7854   49.6028   18.0106 H   0  0  0  0  0  0
    1.9046   48.8221   16.7889 H   0  0  0  0  0  0
    0.5921   49.5974   15.9517 H   0  0  0  0  0  0
    0.8591   51.6361   17.2499 H   0  0  0  0  0  0
    2.4271   51.1846   16.5999 H   0  0  0  0  0  0
    4.7045   56.3472   19.5866 H   0  0  0  0  0  0
    5.8250   56.1844   18.3249 H   0  0  0  0  0  0
    2.8178   54.2076   16.9409 H   0  0  0  0  0  0
    1.4182   55.8993   15.3855 H   0  0  0  0  0  0
    2.4487   58.4139   15.9789 H   0  0  0  0  0  0
    6.3289   55.0064   16.7072 H   0  0  0  0  0  0
    6.2417   53.3165   16.3329 H   0  0  0  0  0  0
    7.6414   51.3574   15.7982 H   0  0  0  0  0  0
    9.4463   49.9126   15.1010 H   0  0  0  0  0  0
   11.8353   50.6263   15.5446 H   0  0  0  0  0  0
   12.3499   52.6938   16.6579 H   0  0  0  0  0  0
    8.8530   55.0820   18.8407 H   0  0  0  0  0  0
    8.9269   55.9517   17.2744 H   0  0  0  0  0  0
   11.2068   54.8985   17.8546 H   0  0  0  0  0  0
  1  2  1  0  0  0
  1 41  1  0  0  0
  1 42  1  0  0  0
  1 43  1  0  0  0
  2  3  1  0  0  0
  3  8  2  0  0  0
  3  4  1  0  0  0
  4  5  2  0  0  0
  4 44  1  0  0  0
  5  6  1  0  0  0
  5 45  1  0  0  0
  6  7  2  0  0  0
  6 11  1  0  0  0
  7  8  1  0  0  0
  7 46  1  0  0  0
  8  9  1  0  0  0
  9 10  1  0  0  0
 10 47  1  0  0  0
 10 48  1  0  0  0
 10 49  1  0  0  0
 11 12  1  0  0  0
 11 13  1  0  0  0
 11 22  1  0  0  0
 13 14  2  0  0  0
 13 15  1  0  0  0
 15 16  1  0  0  0
 15 50  1  0  0  0
 16 21  1  0  0  0
 16 17  1  0  0  0
 16 51  1  0  0  0
 17 18  1  0  0  0
 17 52  1  0  0  0
 17 53  1  0  0  0
 18 19  1  0  0  0
 18 54  1  0  0  0
 18 55  1  0  0  0
 19 20  1  0  0  0
 19 56  1  0  0  0
 19 57  1  0  0  0
 20 21  1  0  0  0
 20 58  1  0  0  0
 20 59  1  0  0  0
 21 60  1  0  0  0
 21 61  1  0  0  0
 22 23  1  0  0  0
 22 29  1  0  0  0
 23 24  1  0  0  0
 23 62  1  0  0  0
 23 63  1  0  0  0
 24 28  1  0  0  0
 24 25  2  0  0  0
 25 26  1  0  0  0
 25 64  1  0  0  0
 26 27  2  0  0  0
 26 65  1  0  0  0
 27 28  1  0  0  0
 27 66  1  0  0  0
 29 30  2  0  0  0
 29 31  1  0  0  0
 31 32  1  0  0  0
 31 67  1  0  0  0
 31 68  1  0  0  0
 32 40  1  0  0  0
 32 33  2  0  0  0
 33 38  1  0  0  0
 33 34  1  0  0  0
 34 35  2  0  0  0
 34 69  1  0  0  0
 35 36  1  0  0  0
 35 70  1  0  0  0
 36 37  2  0  0  0
 36 71  1  0  0  0
 37 38  1  0  0  0
 37 72  1  0  0  0
 38 39  2  0  0  0
 39 40  1  0  0  0
 39 75  1  0  0  0
 40 73  1  0  0  0
 40 74  1  0  0  0
M  CHG  1  39   1
M  END
> <i_i_glide_confnum>
132

> <i_i_glide_lignum>
1111

> <i_i_glide_posenum>
202

> <i_i_glide_rotatable_bonds>
12

> <i_m_Source_File_Index>
3016

> <b_m_subgroup_collapsed>
0

> <r_i_docking_score>
-4.44397

> <r_i_glide_ecoul>
-4.61203

> <r_i_glide_eff_state_penalty>
0

> <r_i_glide_einternal>
29.0701

> <r_i_glide_emodel>
-33.5471

> <r_i_glide_energy>
-36.756

> <r_i_glide_erotb>
0.512496

> <r_i_glide_esite>
-0.113693

> <r_i_glide_evdw>
-32.144

> <r_i_glide_gscore>
-4.44397

> <r_i_glide_hbond>
-0.190779

> <r_i_glide_ligand_efficiency>
-0.113948

> <r_i_glide_ligand_efficiency_ln>
-0.952913

> <r_i_glide_ligand_efficiency_sa>
-0.386422

> <r_i_glide_lipo>
-2.37408

> <r_i_glide_metal>
0

> <r_i_glide_rewards>
0.0210854

> <s_i_glide_gridfile>
wee1_glide-grid

> <s_m_Source_File>
wee1_decoys_glide_SP.sdf

> <s_m_Source_Path>
/Users/zhangxujun/Desktop

> <s_m_entry_id>
3291

> <s_m_entry_name>
wee1_decoys_glide_SP.3016

> <s_m_subgroup_title>
wee1_decoys_glide_SP

> <s_m_subgroupid>
wee1_decoys_glide_SP


$$$$
