@<TRIPOS>MOLECULE
ZINC09298121_4314
59   62    1
SMALL
USER_CHARGES


@<TRIPOS>ATOM
      1 C1          6.0014   53.9839   28.5961 C.3       1 UNK         0.0000 
      2 C2          5.4981   53.7955   27.1587 C.3       1 UNK         0.0000 
      3 H3          5.6357   52.7416   26.9136 H         1 UNK         0.0000 
      4 C4          4.0166   54.1876   27.0319 C.3       1 UNK         0.0000 
      5 C5          3.4204   53.7930   25.6658 C.3       1 UNK         0.0000 
      6 C6          4.4024   54.0969   24.5159 C.2       1 UNK         0.0000 
      7 C7          5.7185   54.5144   24.7951 C.2       1 UNK         0.0000 
      8 S8          6.6113   54.8960   23.3725 S.3       1 UNK         0.0000 
      9 C9          5.2753   54.4075   22.3643 C.2       1 UNK         0.0000 
     10 C10         4.1707   53.9377   23.1110 C.2       1 UNK         0.0000 
     11 C11         2.9998   53.3063   22.4825 C.2       1 UNK         0.0000 
     12 O12         3.0573   52.8969   21.3189 O.2       1 UNK         0.0000 
     13 N13         1.9061   53.2100   23.2683 N.am      1 UNK         0.0000 
     14 C14         0.7151   52.6501   22.9840 C.2       1 UNK         0.0000 
     15 O15         0.3890   52.0968   21.9309 O.2       1 UNK         0.0000 
     16 O16        -0.0608   52.8416   24.1035 O.3       1 UNK         0.0000 
     17 C17        -1.3902   52.3431   24.0349 C.3       1 UNK         0.0000 
     18 N18         5.3599   54.4484   20.9763 N.am      1 UNK         0.0000 
     19 C19         6.1479   55.2225   20.1992 C.2       1 UNK         0.0000 
     20 O20         6.8947   56.1093   20.6241 O.2       1 UNK         0.0000 
     21 C21         6.0245   54.9598   18.6771 C.3       1 UNK         0.0000 
     22 C22         7.3016   54.3551   18.0585 C.ar      1 UNK         0.0000 
     23 C23         8.5709   54.9219   18.2551 C.ar      1 UNK         0.0000 
     24 C24         9.6995   54.3428   17.6816 C.ar      1 UNK         0.0000 
     25 C25         9.5684   53.1923   16.9091 C.ar      1 UNK         0.0000 
     26 C26         8.3183   52.6132   16.7097 C.ar      1 UNK         0.0000 
     27 C27         7.1897   53.1940   17.2816 C.ar      1 UNK         0.0000 
     28 C28         5.4697   56.1884   17.9407 C.ar      1 UNK         0.0000 
     29 C29         4.1321   56.1914   17.5225 C.ar      1 UNK         0.0000 
     30 C30         3.6058   57.2982   16.8609 C.ar      1 UNK         0.0000 
     31 C31         4.4126   58.4074   16.6220 C.ar      1 UNK         0.0000 
     32 C32         5.7379   58.4224   17.0462 C.ar      1 UNK         0.0000 
     33 C33         6.2646   57.3182   17.7081 C.ar      1 UNK         0.0000 
     34 C34         6.3268   54.6542   26.1840 C.3       1 UNK         0.0000 
     35 H35         5.9032   55.0179   28.9267 H         1 UNK         0.0000 
     36 H36         5.4278   53.3610   29.2815 H         1 UNK         0.0000 
     37 H37         7.0509   53.7012   28.6931 H         1 UNK         0.0000 
     38 H38         3.4402   53.6939   27.8155 H         1 UNK         0.0000 
     39 H39         3.8875   55.2495   27.2397 H         1 UNK         0.0000 
     40 H40         2.4911   54.3517   25.5473 H         1 UNK         0.0000 
     41 H41         3.1550   52.7358   25.6768 H         1 UNK         0.0000 
     42 H42         1.9820   53.5963   24.1929 H         1 UNK         0.0000 
     43 H43        -1.9053   52.5498   24.9721 H         1 UNK         0.0000 
     44 H44        -1.9515   52.8201   23.2328 H         1 UNK         0.0000 
     45 H45        -1.4057   51.2643   23.8773 H         1 UNK         0.0000 
     46 H46         4.6296   53.9249   20.5090 H         1 UNK         0.0000 
     47 H47         5.2625   54.1853   18.5615 H         1 UNK         0.0000 
     48 H48         8.6978   55.8078   18.8583 H         1 UNK         0.0000 
     49 H49        10.6738   54.7807   17.8459 H         1 UNK         0.0000 
     50 H50        10.4463   52.7403   16.4713 H         1 UNK         0.0000 
     51 H51         8.2228   51.7136   16.1188 H         1 UNK         0.0000 
     52 H52         6.2279   52.7240   17.1230 H         1 UNK         0.0000 
     53 H53         3.4933   55.3397   17.7085 H         1 UNK         0.0000 
     54 H54         2.5730   57.3044   16.5426 H         1 UNK         0.0000 
     55 H55         4.0062   59.2773   16.1240 H         1 UNK         0.0000 
     56 H56         6.3492   59.2964   16.8752 H         1 UNK         0.0000 
     57 H57         7.2897   57.3541   18.0428 H         1 UNK         0.0000 
     58 H58         7.3690   54.3364   26.1920 H         1 UNK         0.0000 
     59 H59         6.3089   55.6979   26.4940 H         1 UNK         0.0000 
@<TRIPOS>BOND
     1    1    2 1    
     2    1   35 1    
     3    1   36 1    
     4    1   37 1    
     5    2    3 1    
     6    2   34 1    
     7    2    4 1    
     8    4    5 1    
     9    4   38 1    
    10    4   39 1    
    11    5    6 1    
    12    5   40 1    
    13    5   41 1    
    14    6   10 1    
    15    6    7 2    
    16    7    8 1    
    17    7   34 1    
    18    8    9 1    
    19    9   10 2    
    20    9   18 am   BACKBONE|DICT|INTERRES
    21   10   11 1    
    22   11   12 2    
    23   11   13 am   BACKBONE|DICT|INTERRES
    24   13   14 am   BACKBONE|DICT|INTERRES
    25   13   42 1    
    26   14   15 2    
    27   14   16 1    
    28   16   17 1    
    29   17   43 1    
    30   17   44 1    
    31   17   45 1    
    32   18   19 am   BACKBONE|DICT|INTERRES
    33   18   46 1    
    34   19   20 2    
    35   19   21 1    
    36   21   22 1    
    37   21   28 1    
    38   21   47 1    
    39   22   27 ar   
    40   22   23 ar   
    41   23   24 ar   
    42   23   48 1    
    43   24   25 ar   
    44   24   49 1    
    45   25   26 ar   
    46   25   50 1    
    47   26   27 ar   
    48   26   51 1    
    49   27   52 1    
    50   28   33 ar   
    51   28   29 ar   
    52   29   30 ar   
    53   29   53 1    
    54   30   31 ar   
    55   30   54 1    
    56   31   32 ar   
    57   31   55 1    
    58   32   33 ar   
    59   32   56 1    
    60   33   57 1    
    61   34   58 1    
    62   34   59 1    
@<TRIPOS>SUBSTRUCTURE
     1 UNK         1 GROUP             0       ****    0 ROOT    
