@<TRIPOS>MOLECULE
ZINC16613172_1027
74   78    1
SMALL
USER_CHARGES


@<TRIPOS>ATOM
      1 C1          0.3381   45.6429   13.9628 C.3       1 UNK         0.0000 
      2 C2          0.5854   46.5641   15.1435 C.ar      1 UNK         0.0000 
      3 C3         -0.1025   47.7763   15.2352 C.ar      1 UNK         0.0000 
      4 C4          0.1188   48.6232   16.3176 C.ar      1 UNK         0.0000 
      5 C5          1.0179   48.2566   17.3210 C.ar      1 UNK         0.0000 
      6 C6          1.7113   47.0417   17.2234 C.ar      1 UNK         0.0000 
      7 C7          1.4932   46.1973   16.1401 C.ar      1 UNK         0.0000 
      8 N8          1.2244   49.1771   18.3651 N.am      1 UNK         0.0000 
      9 C9          1.6740   48.9290   19.6158 C.2       1 UNK         0.0000 
     10 O10         1.7338   47.7878   20.0811 O.2       1 UNK         0.0000 
     11 N11         2.0981   50.0259   20.3126 N.am      1 UNK         0.0000 
     12 C12         1.8416   51.4307   19.9166 C.3       1 UNK         0.0000 
     13 C13         0.8598   52.0264   20.9570 C.3       1 UNK         0.0000 
     14 C14         1.3348   51.9528   22.4428 C.3       1 UNK         0.0000 
     15 C15         1.7381   50.4587   22.6842 C.3       1 UNK         0.0000 
     16 C16         2.7130   49.8631   21.6430 C.3       1 UNK         0.0000 
     17 C17         2.5702   52.8694   22.6629 C.2       1 UNK         0.0000 
     18 O18         3.6551   52.8150   22.0748 O.2       1 UNK         0.0000 
     19 N19         2.2312   53.7230   23.6430 N.am      1 UNK         0.0000 
     20 C20         0.8435   53.6093   24.0441 C.3       1 UNK         0.0000 
     21 N21         0.3291   52.4003   23.4223 N.pl3     1 UNK         0.0000 
     22 C22        -0.7139   51.6274   23.9640 C.ar      1 UNK         0.0000 
     23 C23        -0.6901   51.2794   25.3214 C.ar      1 UNK         0.0000 
     24 C24        -1.6533   50.4229   25.8518 C.ar      1 UNK         0.0000 
     25 C25        -2.6523   49.9159   25.0279 C.ar      1 UNK         0.0000 
     26 C26        -2.6864   50.2437   23.6749 C.ar      1 UNK         0.0000 
     27 C27        -1.7118   51.0868   23.1451 C.ar      1 UNK         0.0000 
     28 C28         3.1662   54.7287   24.1717 C.3       1 UNK         0.0000 
     29 C29         3.6549   54.4436   25.6095 C.2       1 UNK         0.0000 
     30 O30         4.4970   55.2035   26.0814 O.2       1 UNK         0.0000 
     31 N31         3.1312   53.4102   26.2959 N.am      1 UNK         0.0000 
     32 C32         3.3644   53.0109   27.6916 C.3       1 UNK         0.0000 
     33 H33         3.1041   51.9537   27.6818 H         1 UNK         0.0000 
     34 C34         4.8361   53.0590   28.1553 C.3       1 UNK         0.0000 
     35 C35         2.4145   53.6720   28.6929 C.ar      1 UNK         0.0000 
     36 C36         2.3764   55.0639   28.8344 C.ar      1 UNK         0.0000 
     37 C37         1.5152   55.6522   29.7547 C.ar      1 UNK         0.0000 
     38 C38         0.7038   54.8446   30.5475 C.ar      1 UNK         0.0000 
     39 C39         0.7334   53.4576   30.4209 C.ar      1 UNK         0.0000 
     40 C40         1.5887   52.8727   29.4925 C.ar      1 UNK         0.0000 
     41 H41        -0.7085   45.6808   13.6581 H         1 UNK         0.0000 
     42 H42         0.9548   45.9356   13.1126 H         1 UNK         0.0000 
     43 H43         0.5532   44.6048   14.2182 H         1 UNK         0.0000 
     44 H44        -0.8034   48.0676   14.4654 H         1 UNK         0.0000 
     45 H45        -0.4112   49.5640   16.3720 H         1 UNK         0.0000 
     46 H46         2.4450   46.7605   17.9630 H         1 UNK         0.0000 
     47 H47         2.0385   45.2678   16.0713 H         1 UNK         0.0000 
     48 H48         1.0973   50.1431   18.1102 H         1 UNK         0.0000 
     49 H49         1.5127   51.5589   18.8838 H         1 UNK         0.0000 
     50 H50         2.8049   51.9441   19.9540 H         1 UNK         0.0000 
     51 H51        -0.1541   51.6589   20.8240 H         1 UNK         0.0000 
     52 H52         0.7047   53.0764   20.7079 H         1 UNK         0.0000 
     53 H53         2.2122   50.3849   23.6656 H         1 UNK         0.0000 
     54 H54         0.8720   49.8194   22.8546 H         1 UNK         0.0000 
     55 H55         3.0190   48.8394   21.8655 H         1 UNK         0.0000 
     56 H56         3.6395   50.4355   21.6211 H         1 UNK         0.0000 
     57 H57         0.7475   53.5931   25.1273 H         1 UNK         0.0000 
     58 H58         0.3040   54.4837   23.6817 H         1 UNK         0.0000 
     59 H59         0.0947   51.6335   25.9726 H         1 UNK         0.0000 
     60 H60        -1.6161   50.1323   26.8907 H         1 UNK         0.0000 
     61 H61        -3.3924   49.2458   25.4413 H         1 UNK         0.0000 
     62 H62        -3.4594   49.8410   23.0383 H         1 UNK         0.0000 
     63 H63        -1.7597   51.3248   22.0970 H         1 UNK         0.0000 
     64 H64         2.6757   55.6959   24.1593 H         1 UNK         0.0000 
     65 H65         4.0479   54.8131   23.5333 H         1 UNK         0.0000 
     66 H66         2.4342   52.8687   25.8060 H         1 UNK         0.0000 
     67 H67         4.9692   52.5219   29.0955 H         1 UNK         0.0000 
     68 H68         5.4982   52.5983   27.4220 H         1 UNK         0.0000 
     69 H69         5.1786   54.0795   28.3150 H         1 UNK         0.0000 
     70 H70         3.0164   55.6901   28.2331 H         1 UNK         0.0000 
     71 H71         1.4868   56.7276   29.8653 H         1 UNK         0.0000 
     72 H72         0.0441   55.2961   31.2706 H         1 UNK         0.0000 
     73 H73         0.0986   52.8397   31.0427 H         1 UNK         0.0000 
     74 H74         1.6024   51.7960   29.3997 H         1 UNK         0.0000 
@<TRIPOS>BOND
     1    1    2 1    
     2    1   41 1    
     3    1   42 1    
     4    1   43 1    
     5    2    7 ar   
     6    2    3 ar   
     7    3    4 ar   
     8    3   44 1    
     9    4    5 ar   
    10    4   45 1    
    11    5    6 ar   
    12    5    8 1    
    13    6    7 ar   
    14    6   46 1    
    15    7   47 1    
    16    8    9 am   BACKBONE|DICT|INTERRES
    17    8   48 1    
    18    9   10 2    
    19    9   11 am   BACKBONE|DICT|INTERRES
    20   11   16 1    
    21   11   12 1    
    22   12   13 1    
    23   12   49 1    
    24   12   50 1    
    25   13   14 1    
    26   13   51 1    
    27   13   52 1    
    28   14   21 1    
    29   14   15 1    
    30   14   17 1    
    31   15   16 1    
    32   15   53 1    
    33   15   54 1    
    34   16   55 1    
    35   16   56 1    
    36   17   18 2    
    37   17   19 am   BACKBONE|DICT|INTERRES
    38   19   20 1    
    39   19   28 1    
    40   20   21 1    
    41   20   57 1    
    42   20   58 1    
    43   21   22 1    
    44   22   27 ar   
    45   22   23 ar   
    46   23   24 ar   
    47   23   59 1    
    48   24   25 ar   
    49   24   60 1    
    50   25   26 ar   
    51   25   61 1    
    52   26   27 ar   
    53   26   62 1    
    54   27   63 1    
    55   28   29 1    
    56   28   64 1    
    57   28   65 1    
    58   29   30 2    
    59   29   31 am   BACKBONE|DICT|INTERRES
    60   31   32 1    
    61   31   66 1    
    62   32   33 1    
    63   32   34 1    
    64   32   35 1    
    65   34   67 1    
    66   34   68 1    
    67   34   69 1    
    68   35   40 ar   
    69   35   36 ar   
    70   36   37 ar   
    71   36   70 1    
    72   37   38 ar   
    73   37   71 1    
    74   38   39 ar   
    75   38   72 1    
    76   39   40 ar   
    77   39   73 1    
    78   40   74 1    
@<TRIPOS>SUBSTRUCTURE
     1 UNK         1 GROUP             0       ****    0 ROOT    
