@<TRIPOS>MOLECULE
ZINC01009152_3421
55   59    1
SMALL
USER_CHARGES


@<TRIPOS>ATOM
      1 C1         -1.1527   49.7419   26.0813 C.3       1 UNK         0.0000 
      2 C2         -0.1595   50.8013   25.6571 C.ar      1 UNK         0.0000 
      3 C3          0.1805   51.8418   26.5221 C.ar      1 UNK         0.0000 
      4 C4          1.1041   52.8045   26.1201 C.ar      1 UNK         0.0000 
      5 C5          1.6919   52.7360   24.8510 C.ar      1 UNK         0.0000 
      6 C6          1.3294   51.6878   23.9890 C.ar      1 UNK         0.0000 
      7 C7          0.4085   50.7281   24.3892 C.ar      1 UNK         0.0000 
      8 C8          2.7319   53.7898   24.4408 C.3       1 UNK         0.0000 
      9 H9          2.1809   54.7317   24.4428 H         1 UNK         0.0000 
     10 C10         3.9090   53.8716   25.4585 C.3       1 UNK         0.0000 
     11 C11         5.0819   54.7708   25.0338 C.3       1 UNK         0.0000 
     12 H12         4.7045   55.7803   25.0804 H         1 UNK         0.0000 
     13 N13         5.3723   54.4967   23.6222 N.pl3     1 UNK         0.0000 
     14 C14         4.4436   54.0968   22.6884 C.ar      1 UNK         0.0000 
     15 C15         5.0443   54.2542   21.4622 C.ar      1 UNK         0.0000 
     16 C16         6.2715   54.8968   21.7135 C.ar      1 UNK         0.0000 
     17 N17         6.4851   54.9502   23.0142 N.2       1 UNK         0.0000 
     18 C18         7.1974   55.3983   20.7220 C.2       1 UNK         0.0000 
     19 O19         8.3570   55.6968   21.0044 O.2       1 UNK         0.0000 
     20 N20         6.6847   55.5251   19.4856 N.am      1 UNK         0.0000 
     21 C21         7.4291   55.9621   18.3073 C.3       1 UNK         0.0000 
     22 C22         8.1380   54.7887   17.6646 C.ar      1 UNK         0.0000 
     23 C23         7.6457   53.7311   16.9235 C.ar      1 UNK         0.0000 
     24 C24         8.7475   52.9005   16.5482 C.ar      1 UNK         0.0000 
     25 C25         8.8700   51.7111   15.8186 C.ar      1 UNK         0.0000 
     26 C26        10.1367   51.1635   15.6284 C.ar      1 UNK         0.0000 
     27 C27        11.2719   51.7843   16.1462 C.ar      1 UNK         0.0000 
     28 C28        11.1965   52.9701   16.8816 C.ar      1 UNK         0.0000 
     29 C29         9.9210   53.5106   17.0787 C.ar      1 UNK         0.0000 
     30 N30         9.5017   54.6316   17.7642 N.pl3     1 UNK         0.0000 
     31 H31        10.0781   55.2726   18.2915 H         1 UNK         0.0000 
     32 Cl32       10.2972   49.6954   14.7378 Cl        1 UNK         0.0000 
     33 N33         3.2028   53.6380   23.0546 N.pl3     1 UNK         0.0000 
     34 C34         6.2987   54.7837   25.9825 C.3       1 UNK         0.0000 
     35 F35         7.0889   55.8140   25.7026 F         1 UNK         0.0000 
     36 F36         5.9298   54.8970   27.2584 F         1 UNK         0.0000 
     37 F37         7.0356   53.6877   25.8914 F         1 UNK         0.0000 
     38 H38        -1.8016   50.0971   26.8822 H         1 UNK         0.0000 
     39 H39        -1.7996   49.4580   25.2503 H         1 UNK         0.0000 
     40 H40        -0.6167   48.8545   26.4205 H         1 UNK         0.0000 
     41 H41        -0.2625   51.8987   27.5061 H         1 UNK         0.0000 
     42 H42         1.3587   53.6006   26.8032 H         1 UNK         0.0000 
     43 H43         1.7661   51.5865   23.0065 H         1 UNK         0.0000 
     44 H44         0.1511   49.9204   23.7201 H         1 UNK         0.0000 
     45 H45         4.3119   52.8967   25.6805 H         1 UNK         0.0000 
     46 H46         3.5403   54.2137   26.4261 H         1 UNK         0.0000 
     47 H47         4.6025   54.0149   20.5049 H         1 UNK         0.0000 
     48 H48         5.7116   55.2999   19.3463 H         1 UNK         0.0000 
     49 H49         8.1228   56.7603   18.5804 H         1 UNK         0.0000 
     50 H50         6.7245   56.4115   17.6064 H         1 UNK         0.0000 
     51 H51         6.6037   53.5711   16.6885 H         1 UNK         0.0000 
     52 H52         7.9960   51.2266   15.4119 H         1 UNK         0.0000 
     53 H53        12.2375   51.3288   15.9781 H         1 UNK         0.0000 
     54 H54        12.0820   53.4347   17.2875 H         1 UNK         0.0000 
     55 H55         2.4441   53.7087   22.3903 H         1 UNK         0.0000 
@<TRIPOS>BOND
     1    1    2 1    
     2    1   38 1    
     3    1   39 1    
     4    1   40 1    
     5    2    7 ar   
     6    2    3 ar   
     7    3    4 ar   
     8    3   41 1    
     9    4    5 ar   
    10    4   42 1    
    11    5    6 ar   
    12    5    8 1    
    13    6    7 ar   
    14    6   43 1    
    15    7   44 1    
    16    8    9 1    
    17    8   33 1    
    18    8   10 1    
    19   10   11 1    
    20   10   45 1    
    21   10   46 1    
    22   11   12 1    
    23   11   13 1    
    24   11   34 1    
    25   13   17 ar   
    26   13   14 ar   
    27   14   15 ar   
    28   14   33 1    
    29   15   16 ar   
    30   15   47 1    
    31   16   17 ar   
    32   16   18 1    
    33   18   19 2    
    34   18   20 am   BACKBONE|DICT|INTERRES
    35   20   21 1    
    36   20   48 1    
    37   21   22 1    
    38   21   49 1    
    39   21   50 1    
    40   22   30 ar   
    41   22   23 ar   
    42   23   24 ar   
    43   23   51 1    
    44   24   29 ar   
    45   24   25 ar   
    46   25   26 ar   
    47   25   52 1    
    48   26   27 ar   
    49   26   32 1    
    50   27   28 ar   
    51   27   53 1    
    52   28   29 ar   
    53   28   54 1    
    54   29   30 ar   
    55   30   31 1    
    56   33   55 1    
    57   34   35 1    
    58   34   36 1    
    59   34   37 1    
@<TRIPOS>SUBSTRUCTURE
     1 UNK         1 GROUP             0       ****    0 ROOT    
