@<TRIPOS>MOLECULE
ZINC12521510_6096
61   65    1
SMALL
USER_CHARGES


@<TRIPOS>ATOM
      1 C1         -4.5862   50.8208   24.4837 C.3       1 UNK         0.0000 
      2 C2         -3.5646   51.3533   25.5062 C.3       1 UNK         0.0000 
      3 H3         -3.8290   52.3967   25.6959 H         1 UNK         0.0000 
      4 C4         -3.6005   50.5418   26.8183 C.3       1 UNK         0.0000 
      5 C5         -2.7529   51.2038   27.9258 C.3       1 UNK         0.0000 
      6 C6         -1.3776   51.5781   27.3666 C.2       1 UNK         0.0000 
      7 C7         -1.1274   51.6455   25.9920 C.2       1 UNK         0.0000 
      8 S8          0.5107   52.0963   25.5890 S.3       1 UNK         0.0000 
      9 C9          0.8877   52.2618   27.2846 C.ar      1 UNK         0.0000 
     10 C10        -0.2160   51.9448   28.1288 C.ar      1 UNK         0.0000 
     11 C11         0.0495   52.0626   29.5191 C.ar      1 UNK         0.0000 
     12 N12         1.2478   52.5137   29.9734 N.ar      1 UNK         0.0000 
     13 C13         2.2063   52.7849   29.0517 C.ar      1 UNK         0.0000 
     14 N14         2.0872   52.6556   27.7094 N.ar      1 UNK         0.0000 
     15 S15         3.7292   53.4288   29.6844 S.3       1 UNK         0.0000 
     16 C16         5.0933   53.4184   28.4644 C.3       1 UNK         0.0000 
     17 C17         4.7864   53.7783   26.9921 C.3       1 UNK         0.0000 
     18 C18         5.9024   54.4838   26.1931 C.2       1 UNK         0.0000 
     19 O19         6.9368   54.8164   26.7788 O.2       1 UNK         0.0000 
     20 N20         5.7285   54.6943   24.8577 N.am      1 UNK         0.0000 
     21 C21         4.4717   54.3907   24.1555 C.3       1 UNK         0.0000 
     22 C22         4.7889   53.8506   22.7439 C.3       1 UNK         0.0000 
     23 N23         5.6957   54.6765   21.9256 N.pl3     1 UNK         0.0000 
     24 C24         6.9093   55.0192   22.6871 C.3       1 UNK         0.0000 
     25 C25         6.7080   55.5180   24.1349 C.3       1 UNK         0.0000 
     26 C26         5.6452   54.6813   20.5230 C.ar      1 UNK         0.0000 
     27 C27         6.7915   54.9314   19.7456 C.ar      1 UNK         0.0000 
     28 C28         6.7319   54.9639   18.3547 C.ar      1 UNK         0.0000 
     29 C29         5.5178   54.7613   17.7125 C.ar      1 UNK         0.0000 
     30 C30         4.3647   54.5225   18.4509 C.ar      1 UNK         0.0000 
     31 C31         4.4304   54.4865   19.8431 C.ar      1 UNK         0.0000 
     32 F32         5.4552   54.8039   16.3618 F         1 UNK         0.0000 
     33 N33        -0.8944   51.6969   30.4811 N.pl3     1 UNK         0.0000 
     34 C34        -2.1406   51.3001   24.9045 C.3       1 UNK         0.0000 
     35 H35        -4.3846   49.7801   24.2207 H         1 UNK         0.0000 
     36 H36        -5.6033   50.8719   24.8764 H         1 UNK         0.0000 
     37 H37        -4.5640   51.4058   23.5622 H         1 UNK         0.0000 
     38 H38        -4.6292   50.4627   27.1719 H         1 UNK         0.0000 
     39 H39        -3.2946   49.5075   26.6415 H         1 UNK         0.0000 
     40 H40        -2.6685   50.5081   28.7626 H         1 UNK         0.0000 
     41 H41        -3.2664   52.0961   28.2926 H         1 UNK         0.0000 
     42 H42         5.5746   52.4418   28.4826 H         1 UNK         0.0000 
     43 H43         5.8464   54.0914   28.8787 H         1 UNK         0.0000 
     44 H44         4.0038   54.5390   27.0195 H         1 UNK         0.0000 
     45 H45         4.3674   52.9081   26.4873 H         1 UNK         0.0000 
     46 H46         3.8764   55.2964   24.0454 H         1 UNK         0.0000 
     47 H47         3.8610   53.6384   24.6500 H         1 UNK         0.0000 
     48 H48         3.8547   53.6142   22.2393 H         1 UNK         0.0000 
     49 H49         5.3088   52.8986   22.8618 H         1 UNK         0.0000 
     50 H50         7.4848   54.0953   22.7487 H         1 UNK         0.0000 
     51 H51         7.5111   55.7612   22.1660 H         1 UNK         0.0000 
     52 H52         7.6804   55.5575   24.6228 H         1 UNK         0.0000 
     53 H53         6.3057   56.5242   24.0773 H         1 UNK         0.0000 
     54 H54         7.7556   55.0862   20.2026 H         1 UNK         0.0000 
     55 H55         7.6227   55.1495   17.7738 H         1 UNK         0.0000 
     56 H56         3.4221   54.3728   17.9473 H         1 UNK         0.0000 
     57 H57         3.5051   54.3322   20.3715 H         1 UNK         0.0000 
     58 H58        -1.6961   51.1561   30.1825 H         1 UNK         0.0000 
     59 H59        -0.7239   51.7689   31.4851 H         1 UNK         0.0000 
     60 H60        -2.0571   51.9840   24.0578 H         1 UNK         0.0000 
     61 H61        -1.9314   50.2978   24.5271 H         1 UNK         0.0000 
@<TRIPOS>BOND
     1    1    2 1    
     2    1   35 1    
     3    1   36 1    
     4    1   37 1    
     5    2    3 1    
     6    2   34 1    
     7    2    4 1    
     8    4    5 1    
     9    4   38 1    
    10    4   39 1    
    11    5    6 1    
    12    5   40 1    
    13    5   41 1    
    14    6   10 1    
    15    6    7 2    
    16    7    8 1    
    17    7   34 1    
    18    8    9 1    
    19    9   14 ar   
    20    9   10 ar   
    21   10   11 ar   
    22   11   12 ar   
    23   11   33 1    
    24   12   13 ar   
    25   13   14 ar   
    26   13   15 1    
    27   15   16 1    
    28   16   17 1    
    29   16   42 1    
    30   16   43 1    
    31   17   18 1    
    32   17   44 1    
    33   17   45 1    
    34   18   19 2    
    35   18   20 am   BACKBONE|DICT|INTERRES
    36   20   25 1    
    37   20   21 1    
    38   21   22 1    
    39   21   46 1    
    40   21   47 1    
    41   22   23 1    
    42   22   48 1    
    43   22   49 1    
    44   23   24 1    
    45   23   26 1    
    46   24   25 1    
    47   24   50 1    
    48   24   51 1    
    49   25   52 1    
    50   25   53 1    
    51   26   31 ar   
    52   26   27 ar   
    53   27   28 ar   
    54   27   54 1    
    55   28   29 ar   
    56   28   55 1    
    57   29   30 ar   
    58   29   32 1    
    59   30   31 ar   
    60   30   56 1    
    61   31   57 1    
    62   33   58 1    
    63   33   59 1    
    64   34   60 1    
    65   34   61 1    
@<TRIPOS>SUBSTRUCTURE
     1 UNK         1 GROUP             0       ****    0 ROOT    
