@<TRIPOS>MOLECULE
ZINC12498311_2951
53   55    1
SMALL
USER_CHARGES


@<TRIPOS>ATOM
      1 C1          0.7829   51.7532   28.3840 C.3       1 UNK         0.0000 
      2 C2          0.4193   52.2243   26.9721 C.3       1 UNK         0.0000 
      3 O3          1.5500   52.8594   26.3866 O.3       1 UNK         0.0000 
      4 C4          1.5255   53.2771   25.1016 C.2       1 UNK         0.0000 
      5 O5          0.5095   53.2965   24.4023 O.2       1 UNK         0.0000 
      6 C6          2.8706   53.6358   24.6014 C.2       1 UNK         0.0000 
      7 C7          4.0389   53.9160   25.3854 C.2       1 UNK         0.0000 
      8 C8          5.1830   54.1705   24.6049 C.2       1 UNK         0.0000 
      9 S9          4.8590   54.0967   22.9164 S.3       1 UNK         0.0000 
     10 C10         3.2096   53.6956   23.2297 C.2       1 UNK         0.0000 
     11 N11         2.4389   53.5283   22.0872 N.pl3     1 UNK         0.0000 
     12 C12         1.9692   52.3493   21.5725 C.2       1 UNK         0.0000 
     13 S13         1.9069   50.8579   22.3535 S.2       1 UNK         0.0000 
     14 N14         1.6368   52.4807   20.2546 N.am      1 UNK         0.0000 
     15 C15         0.4572   52.2046   19.6512 C.2       1 UNK         0.0000 
     16 O16        -0.6185   52.0909   20.2493 O.2       1 UNK         0.0000 
     17 C17         0.5110   52.0562   18.1204 C.3       1 UNK         0.0000 
     18 O18        -0.7623   52.3467   17.5344 O.3       1 UNK         0.0000 
     19 C19        -1.1262   53.6450   17.2223 C.ar      1 UNK         0.0000 
     20 C20        -0.2592   54.7502   17.2819 C.ar      1 UNK         0.0000 
     21 C21        -0.7091   56.0287   16.9533 C.ar      1 UNK         0.0000 
     22 C22        -2.0286   56.2230   16.5453 C.ar      1 UNK         0.0000 
     23 C23        -2.8956   55.1320   16.4801 C.ar      1 UNK         0.0000 
     24 C24        -2.4516   53.8557   16.8228 C.ar      1 UNK         0.0000 
     25 Br25       -3.6880   52.4064   16.7553 Br        1 UNK         0.0000 
     26 C26        -2.5295   57.6114   16.2008 C.3       1 UNK         0.0000 
     27 C27         6.5656   54.5268   25.1368 C.3       1 UNK         0.0000 
     28 C28         6.6618   54.1002   26.6139 C.3       1 UNK         0.0000 
     29 C29         5.4470   54.5906   27.4099 C.3       1 UNK         0.0000 
     30 C30         4.1200   53.9653   26.9204 C.3       1 UNK         0.0000 
     31 H31        -0.0616   51.2456   28.8517 H         1 UNK         0.0000 
     32 H32         1.6175   51.0516   28.3592 H         1 UNK         0.0000 
     33 H33         1.0645   52.5914   29.0216 H         1 UNK         0.0000 
     34 H34        -0.4328   52.9020   27.0081 H         1 UNK         0.0000 
     35 H35         0.1229   51.3658   26.3665 H         1 UNK         0.0000 
     36 H36         2.2189   54.3650   21.5611 H         1 UNK         0.0000 
     37 H37         2.4007   52.7233   19.6418 H         1 UNK         0.0000 
     38 H38         0.7183   51.0073   17.9082 H         1 UNK         0.0000 
     39 H39         1.3377   52.6025   17.6657 H         1 UNK         0.0000 
     40 H40         0.7668   54.6483   17.5974 H         1 UNK         0.0000 
     41 H41        -0.0274   56.8657   17.0163 H         1 UNK         0.0000 
     42 H42        -3.9219   55.2729   16.1716 H         1 UNK         0.0000 
     43 H43        -1.9762   58.3789   16.7447 H         1 UNK         0.0000 
     44 H44        -3.5790   57.7116   16.4792 H         1 UNK         0.0000 
     45 H45        -2.4359   57.7983   15.1304 H         1 UNK         0.0000 
     46 H46         7.3536   54.0502   24.5520 H         1 UNK         0.0000 
     47 H47         6.7254   55.6026   25.0539 H         1 UNK         0.0000 
     48 H48         6.7355   53.0141   26.6895 H         1 UNK         0.0000 
     49 H49         7.5738   54.4956   27.0599 H         1 UNK         0.0000 
     50 H50         5.5839   54.3793   28.4716 H         1 UNK         0.0000 
     51 H51         5.3979   55.6749   27.3270 H         1 UNK         0.0000 
     52 H52         3.2867   54.5283   27.3430 H         1 UNK         0.0000 
     53 H53         4.0416   52.9509   27.3139 H         1 UNK         0.0000 
@<TRIPOS>BOND
     1    1    2 1    
     2    1   31 1    
     3    1   32 1    
     4    1   33 1    
     5    2    3 1    
     6    2   34 1    
     7    2   35 1    
     8    3    4 1    
     9    4    5 2    
    10    4    6 1    
    11    6   10 2    
    12    6    7 1    
    13    7   30 1    
    14    7    8 2    
    15    8    9 1    
    16    8   27 1    
    17    9   10 1    
    18   10   11 1    
    19   11   12 1    
    20   11   36 1    
    21   12   13 2    
    22   12   14 am   BACKBONE|DICT|INTERRES
    23   14   15 am   BACKBONE|DICT|INTERRES
    24   14   37 1    
    25   15   16 2    
    26   15   17 1    
    27   17   18 1    
    28   17   38 1    
    29   17   39 1    
    30   18   19 1    
    31   19   24 ar   
    32   19   20 ar   
    33   20   21 ar   
    34   20   40 1    
    35   21   22 ar   
    36   21   41 1    
    37   22   23 ar   
    38   22   26 1    
    39   23   24 ar   
    40   23   42 1    
    41   24   25 1    
    42   26   43 1    
    43   26   44 1    
    44   26   45 1    
    45   27   28 1    
    46   27   46 1    
    47   27   47 1    
    48   28   29 1    
    49   28   48 1    
    50   28   49 1    
    51   29   30 1    
    52   29   50 1    
    53   29   51 1    
    54   30   52 1    
    55   30   53 1    
@<TRIPOS>SUBSTRUCTURE
     1 UNK         1 GROUP             0       ****    0 ROOT    
