@<TRIPOS>MOLECULE
ZINC38903893_1098
79   82    1
SMALL
USER_CHARGES


@<TRIPOS>ATOM
      1 C1          1.3451   47.1763   18.9945 C.3       1 UNK         0.0000 
      2 C2         -0.1269   47.1413   18.5322 C.3       1 UNK         0.0000 
      3 C3         -1.0597   48.1529   19.2440 C.3       1 UNK         0.0000 
      4 H4         -2.0101   48.1547   18.7024 H         1 UNK         0.0000 
      5 C5         -1.3843   47.7222   20.6867 C.ar      1 UNK         0.0000 
      6 C6         -0.9506   48.4449   21.8040 C.ar      1 UNK         0.0000 
      7 C7         -1.2952   48.0368   23.0898 C.ar      1 UNK         0.0000 
      8 C8         -2.0574   46.8776   23.2940 C.ar      1 UNK         0.0000 
      9 C9         -2.4975   46.1383   22.1851 C.ar      1 UNK         0.0000 
     10 C10        -2.1652   46.5791   20.8904 C.ar      1 UNK         0.0000 
     11 O11        -3.2412   44.9964   22.4341 O.3       1 UNK         0.0000 
     12 C12        -3.7407   44.2275   21.3440 C.3       1 UNK         0.0000 
     13 O13        -2.3943   46.4000   24.5503 O.3       1 UNK         0.0000 
     14 C14        -1.9737   47.1238   25.7048 C.3       1 UNK         0.0000 
     15 N15        -0.4912   49.4908   19.0733 N.am      1 UNK         0.0000 
     16 C16        -1.0282   50.6822   19.3771 C.2       1 UNK         0.0000 
     17 O17        -2.1546   50.8178   19.8505 O.2       1 UNK         0.0000 
     18 C18        -0.1559   51.9212   19.0969 C.3       1 UNK         0.0000 
     19 H19        -0.4606   52.6205   19.8710 H         1 UNK         0.0000 
     20 C20        -0.5255   52.4536   17.6925 C.3       1 UNK         0.0000 
     21 C21         0.3593   53.6553   17.3204 C.3       1 UNK         0.0000 
     22 C22         1.8584   53.3245   17.4248 C.3       1 UNK         0.0000 
     23 N23         2.1542   52.8971   18.8824 N.4       1 UNK         0.0000 
     24 C24         1.3644   51.6275   19.2780 C.3       1 UNK         0.0000 
     25 C25         3.6790   52.7405   19.1152 C.3       1 UNK         0.0000 
     26 C26         4.0625   53.2241   20.5066 C.2       1 UNK         0.0000 
     27 N27         3.3637   53.2314   21.6141 N.2       1 UNK         0.0000 
     28 C28         4.1897   53.8062   22.4736 C.2       1 UNK         0.0000 
     29 N29         5.3510   54.1883   21.9729 N.2       1 UNK         0.0000 
     30 O30         5.2806   53.8014   20.6379 O.3       1 UNK         0.0000 
     31 C31         3.8595   53.9801   23.9330 C.ar      1 UNK         0.0000 
     32 C32         2.5943   53.6419   24.4248 C.ar      1 UNK         0.0000 
     33 C33         2.3247   53.6952   25.7906 C.ar      1 UNK         0.0000 
     34 C34         3.3107   54.0874   26.7072 C.ar      1 UNK         0.0000 
     35 C35         4.5614   54.4819   26.2052 C.ar      1 UNK         0.0000 
     36 C36         4.8290   54.4311   24.8397 C.ar      1 UNK         0.0000 
     37 C37         3.0011   54.0635   28.2287 C.3       1 UNK         0.0000 
     38 C38         4.2565   54.3071   29.1081 C.3       1 UNK         0.0000 
     39 C39         2.4334   52.6806   28.6468 C.3       1 UNK         0.0000 
     40 C40         1.9555   55.1543   28.5612 C.3       1 UNK         0.0000 
     41 H41         1.9465   46.4934   18.3986 H         1 UNK         0.0000 
     42 H42         1.7950   48.1624   18.8737 H         1 UNK         0.0000 
     43 H43         1.4441   46.8968   20.0431 H         1 UNK         0.0000 
     44 H44        -0.5195   46.1295   18.6253 H         1 UNK         0.0000 
     45 H45        -0.1459   47.3480   17.4603 H         1 UNK         0.0000 
     46 H46        -0.3416   49.3272   21.6943 H         1 UNK         0.0000 
     47 H47        -0.9423   48.6327   23.9167 H         1 UNK         0.0000 
     48 H48        -2.5039   46.0334   20.0237 H         1 UNK         0.0000 
     49 H49        -4.3027   43.3779   21.7311 H         1 UNK         0.0000 
     50 H50        -4.4164   44.8129   20.7174 H         1 UNK         0.0000 
     51 H51        -2.9299   43.8321   20.7295 H         1 UNK         0.0000 
     52 H52        -2.2249   46.5556   26.6015 H         1 UNK         0.0000 
     53 H53        -0.8972   47.2909   25.7120 H         1 UNK         0.0000 
     54 H54        -2.4775   48.0881   25.7738 H         1 UNK         0.0000 
     55 H55         0.3804   49.4993   18.5680 H         1 UNK         0.0000 
     56 H56        -1.5623   52.7918   17.6479 H         1 UNK         0.0000 
     57 H57        -0.3296   51.7036   16.9238 H         1 UNK         0.0000 
     58 H58         0.1267   54.5041   17.9643 H         1 UNK         0.0000 
     59 H59         0.1347   53.9831   16.3048 H         1 UNK         0.0000 
     60 H60         2.4449   54.2275   17.2313 H         1 UNK         0.0000 
     61 H61         2.1829   52.5195   16.7606 H         1 UNK         0.0000 
     62 H62         1.7547   50.8432   18.6269 H         1 UNK         0.0000 
     63 H63         1.6122   51.4365   20.3231 H         1 UNK         0.0000 
     64 H64         4.1831   53.3420   18.3547 H         1 UNK         0.0000 
     65 H65         3.9061   51.6952   18.9118 H         1 UNK         0.0000 
     66 H66         1.8179   53.3004   23.7576 H         1 UNK         0.0000 
     67 H67         1.3450   53.4013   26.1343 H         1 UNK         0.0000 
     68 H68         5.3546   54.8093   26.8564 H         1 UNK         0.0000 
     69 H69         5.8142   54.7062   24.4978 H         1 UNK         0.0000 
     70 H70         4.0279   54.2364   30.1708 H         1 UNK         0.0000 
     71 H71         4.6807   55.2965   28.9484 H         1 UNK         0.0000 
     72 H72         5.0402   53.5770   28.9017 H         1 UNK         0.0000 
     73 H73         1.4880   52.4477   28.1558 H         1 UNK         0.0000 
     74 H74         3.1299   51.8755   28.4090 H         1 UNK         0.0000 
     75 H75         2.2422   52.6353   29.7207 H         1 UNK         0.0000 
     76 H76         1.0094   54.9825   28.0457 H         1 UNK         0.0000 
     77 H77         1.7332   55.1892   29.6287 H         1 UNK         0.0000 
     78 H78         2.3044   56.1437   28.2691 H         1 UNK         0.0000 
     79 H79         1.8609   53.6719   19.4733 H         1 UNK         0.0000 
@<TRIPOS>BOND
     1    1    2 1    
     2    1   41 1    
     3    1   42 1    
     4    1   43 1    
     5    2    3 1    
     6    2   44 1    
     7    2   45 1    
     8    3    4 1    
     9    3    5 1    
    10    3   15 1    
    11    5   10 ar   
    12    5    6 ar   
    13    6    7 ar   
    14    6   46 1    
    15    7    8 ar   
    16    7   47 1    
    17    8    9 ar   
    18    8   13 1    
    19    9   10 ar   
    20    9   11 1    
    21   10   48 1    
    22   11   12 1    
    23   12   49 1    
    24   12   50 1    
    25   12   51 1    
    26   13   14 1    
    27   14   52 1    
    28   14   53 1    
    29   14   54 1    
    30   15   16 am   BACKBONE|DICT|INTERRES
    31   15   55 1    
    32   16   17 2    
    33   16   18 1    
    34   18   19 1    
    35   18   24 1    
    36   18   20 1    
    37   20   21 1    
    38   20   56 1    
    39   20   57 1    
    40   21   22 1    
    41   21   58 1    
    42   21   59 1    
    43   22   23 1    
    44   22   60 1    
    45   22   61 1    
    46   23   24 1    
    47   23   25 1    
    48   23   79 1    
    49   24   62 1    
    50   24   63 1    
    51   25   26 1    
    52   25   64 1    
    53   25   65 1    
    54   26   30 1    
    55   26   27 2    
    56   27   28 1    
    57   28   29 2    
    58   28   31 1    
    59   29   30 1    
    60   31   36 ar   
    61   31   32 ar   
    62   32   33 ar   
    63   32   66 1    
    64   33   34 ar   
    65   33   67 1    
    66   34   35 ar   
    67   34   37 1    
    68   35   36 ar   
    69   35   68 1    
    70   36   69 1    
    71   37   38 1    
    72   37   39 1    
    73   37   40 1    
    74   38   70 1    
    75   38   71 1    
    76   38   72 1    
    77   39   73 1    
    78   39   74 1    
    79   39   75 1    
    80   40   76 1    
    81   40   77 1    
    82   40   78 1    
@<TRIPOS>SUBSTRUCTURE
     1 UNK         1 GROUP             0       ****    0 ROOT    
