ZINC13246132_5885
                    3D
 Schrodinger Suite 2024-2.
 56 60  0  0  1  0            999 V2000
   -4.8800   52.2812   24.4829 C   0  0  0  0  0  0
   -3.5742   53.0955   24.5020 C   0  0  0  0  0  0
   -2.3566   52.2557   24.3797 N   0  0  0  0  0  0
   -1.9233   52.0484   23.0690 C   0  0  0  0  0  0
   -2.4955   52.4967   22.0797 O   0  0  0  0  0  0
   -0.7217   51.2318   23.0113 C   0  0  0  0  0  0
    0.0428   50.8527   21.8839 C   0  0  0  0  0  0
    1.1026   50.0105   22.2495 C   0  0  0  0  0  0
    1.1201   49.6976   23.9537 S   0  0  0  0  0  0
   -0.2220   50.7261   24.1963 C   0  0  0  0  0  0
   -0.7124   50.9732   25.4329 N   0  0  0  0  0  0
   -1.7532   51.7242   25.5277 C   0  0  0  0  0  0
   -2.3639   52.0866   27.2003 S   0  0  0  0  0  0
   -0.9672   51.6141   28.2867 C   0  0  0  0  0  0
    0.1942   52.6141   28.2259 C   0  0  0  0  0  0
    0.1130   53.6921   28.8164 O   0  0  0  0  0  0
    1.2426   52.2383   27.4720 N   0  0  0  0  0  0
    2.4101   52.9782   27.2222 C   0  0  0  0  0  0
    2.6335   53.3038   25.8820 C   0  0  0  0  0  0
    3.8645   53.8667   25.4671 C   0  0  0  0  0  0
    4.1648   54.0826   24.0989 C   0  0  0  0  0  0
    5.4378   54.4965   23.7175 C   0  0  0  0  0  0
    6.4016   54.8020   24.6739 C   0  0  0  0  0  0
    6.1186   54.6573   26.0295 C   0  0  0  0  0  0
    4.8581   54.1606   26.4460 C   0  0  0  0  0  0
    4.5781   53.9030   27.8054 C   0  0  0  0  0  0
    3.3894   53.2754   28.1979 C   0  0  0  0  0  0
    3.2608   52.8854   29.6336 C   0  0  0  0  0  0
    3.5077   53.7671   30.4817 O   0  0  0  0  0  0
    2.0963   49.3807   21.2846 C   0  0  0  0  0  0
    2.0559   50.1486   19.9473 C   0  0  0  0  0  0
    0.6111   50.3652   19.4622 C   0  0  0  0  0  0
   -0.2148   51.2487   20.4265 C   0  0  0  0  0  0
   -5.7445   52.9427   24.5456 H   0  0  0  0  0  0
   -4.9806   51.7022   23.5638 H   0  0  0  0  0  0
   -4.9345   51.5944   25.3283 H   0  0  0  0  0  0
   -3.5364   53.6846   25.4192 H   0  0  0  0  0  0
   -3.6135   53.8546   23.7174 H   0  0  0  0  0  0
   -0.6274   50.6046   28.0465 H   0  0  0  0  0  0
   -1.3262   51.5685   29.3152 H   0  0  0  0  0  0
    1.1170   51.4056   26.9151 H   0  0  0  0  0  0
    1.8983   53.0538   25.1293 H   0  0  0  0  0  0
    3.4218   53.8553   23.3479 H   0  0  0  0  0  0
    5.6706   54.6119   22.6687 H   0  0  0  0  0  0
    7.3786   55.1429   24.3596 H   0  0  0  0  0  0
    6.8717   54.8779   26.7717 H   0  0  0  0  0  0
    5.3428   54.1272   28.5381 H   0  0  0  0  0  0
    3.1042   49.3875   21.6956 H   0  0  0  0  0  0
    1.8385   48.3378   21.1056 H   0  0  0  0  0  0
    2.5523   51.1144   20.0590 H   0  0  0  0  0  0
    2.6293   49.6062   19.1931 H   0  0  0  0  0  0
    0.6169   50.8153   18.4686 H   0  0  0  0  0  0
    0.1232   49.3959   19.3471 H   0  0  0  0  0  0
   -1.2717   51.1690   20.1714 H   0  0  0  0  0  0
    0.0567   52.2960   20.2841 H   0  0  0  0  0  0
    2.9798   51.6967   29.9027 O   0  5  0  0  0  0
  1  2  1  0  0  0
  1 34  1  0  0  0
  1 35  1  0  0  0
  1 36  1  0  0  0
  2  3  1  0  0  0
  2 37  1  0  0  0
  2 38  1  0  0  0
  3 12  1  0  0  0
  3  4  1  0  0  0
  4  5  2  0  0  0
  4  6  1  0  0  0
  6 10  2  0  0  0
  6  7  1  0  0  0
  7 33  1  0  0  0
  7  8  2  0  0  0
  8  9  1  0  0  0
  8 30  1  0  0  0
  9 10  1  0  0  0
 10 11  1  0  0  0
 11 12  2  0  0  0
 12 13  1  0  0  0
 13 14  1  0  0  0
 14 15  1  0  0  0
 14 39  1  0  0  0
 14 40  1  0  0  0
 15 16  2  0  0  0
 15 17  1  0  0  0
 17 18  1  0  0  0
 17 41  1  0  0  0
 18 27  2  0  0  0
 18 19  1  0  0  0
 19 20  2  0  0  0
 19 42  1  0  0  0
 20 25  1  0  0  0
 20 21  1  0  0  0
 21 22  2  0  0  0
 21 43  1  0  0  0
 22 23  1  0  0  0
 22 44  1  0  0  0
 23 24  2  0  0  0
 23 45  1  0  0  0
 24 25  1  0  0  0
 24 46  1  0  0  0
 25 26  2  0  0  0
 26 27  1  0  0  0
 26 47  1  0  0  0
 27 28  1  0  0  0
 28 29  2  0  0  0
 28 56  1  0  0  0
 30 31  1  0  0  0
 30 48  1  0  0  0
 30 49  1  0  0  0
 31 32  1  0  0  0
 31 50  1  0  0  0
 31 51  1  0  0  0
 32 33  1  0  0  0
 32 52  1  0  0  0
 32 53  1  0  0  0
 33 54  1  0  0  0
 33 55  1  0  0  0
M  CHG  1  56  -1
M  END
> <i_i_glide_confnum>
53

> <i_i_glide_lignum>
5886

> <i_i_glide_posenum>
250

> <i_i_glide_rotatable_bonds>
7

> <i_m_Source_File_Index>
702

> <b_m_subgroup_collapsed>
0

> <r_i_docking_score>
-7.06723

> <r_i_glide_ecoul>
-12.2203

> <r_i_glide_eff_state_penalty>
0

> <r_i_glide_einternal>
6.67411

> <r_i_glide_emodel>
-72.715

> <r_i_glide_energy>
-52.4737

> <r_i_glide_erotb>
0.419656

> <r_i_glide_esite>
-0.0149301

> <r_i_glide_evdw>
-40.2534

> <r_i_glide_gscore>
-7.06723

> <r_i_glide_hbond>
-0.325435

> <r_i_glide_ligand_efficiency>
-0.20786

> <r_i_glide_ligand_efficiency_ln>
-1.56135

> <r_i_glide_ligand_efficiency_sa>
-0.673385

> <r_i_glide_lipo>
-2.78153

> <r_i_glide_metal>
0

> <r_i_glide_rewards>
-0.519276

> <s_i_glide_gridfile>
wee1_glide-grid

> <s_m_Source_File>
wee1_decoys_glide_SP.sdf

> <s_m_Source_Path>
/Users/zhangxujun/Desktop

> <s_m_entry_id>
977

> <s_m_entry_name>
wee1_decoys_glide_SP.702

> <s_m_subgroup_title>
wee1_decoys_glide_SP

> <s_m_subgroupid>
wee1_decoys_glide_SP


$$$$
