@<TRIPOS>MOLECULE
ZINC11069857_2241
56   60    1
SMALL
USER_CHARGES


@<TRIPOS>ATOM
      1 C1          0.6917   53.3522   27.9759 C.3       1 UNK         0.0000 
      2 C2          0.4106   51.9167   28.4478 C.3       1 UNK         0.0000 
      3 C3         -0.4174   51.1455   27.4028 C.3       1 UNK         0.0000 
      4 C4          0.2388   51.2982   26.0431 C.2       1 UNK         0.0000 
      5 C5          1.1039   52.3436   25.6808 C.2       1 UNK         0.0000 
      6 C6          1.5177   52.2288   24.3330 C.ar      1 UNK         0.0000 
      7 C7          1.0336   51.0748   23.7341 C.ar      1 UNK         0.0000 
      8 S8         -0.0232   50.1685   24.7533 S.3       1 UNK         0.0000 
      9 N9          1.3444   50.6516   22.4889 N.2       1 UNK         0.0000 
     10 C10         2.1547   51.3673   21.7953 C.ar      1 UNK         0.0000 
     11 N11         2.7472   52.5303   22.3206 N.pl3     1 UNK         0.0000 
     12 C12         2.3878   53.1119   23.5476 C.ar      1 UNK         0.0000 
     13 O13         2.8230   54.1958   23.9453 O.2       1 UNK         0.0000 
     14 C14         3.9968   53.0520   21.6669 C.3       1 UNK         0.0000 
     15 C15         3.9499   54.4960   21.1229 C.3       1 UNK         0.0000 
     16 C16         5.4085   54.9568   21.1063 C.3       1 UNK         0.0000 
     17 C17         5.9905   54.3616   22.3818 C.3       1 UNK         0.0000 
     18 C18         5.2790   53.0134   22.5489 C.3       1 UNK         0.0000 
     19 S19         2.4525   50.6841   20.1454 S.3       1 UNK         0.0000 
     20 C20         1.8465   52.0344   19.0757 C.3       1 UNK         0.0000 
     21 C21         0.3158   52.1710   18.9826 C.2       1 UNK         0.0000 
     22 O22        -0.4084   51.6723   19.8486 O.2       1 UNK         0.0000 
     23 N23        -0.1277   52.8965   17.9294 N.am      1 UNK         0.0000 
     24 C24        -1.3951   53.2980   17.6817 C.2       1 UNK         0.0000 
     25 O25        -2.3814   53.0567   18.3865 O.2       1 UNK         0.0000 
     26 N26        -1.4543   54.0677   16.5830 N.am      1 UNK         0.0000 
     27 C27        -2.5246   55.0259   16.3179 C.3       1 UNK         0.0000 
     28 C28        -3.0924   55.1010   14.9209 C.3       1 UNK         0.0000 
     29 C29        -3.9256   54.5226   16.0424 C.3       1 UNK         0.0000 
     30 C30         1.5477   53.4092   26.6865 C.3       1 UNK         0.0000 
     31 H31        -0.2658   53.8416   27.8017 H         1 UNK         0.0000 
     32 H32         1.1802   53.9211   28.7678 H         1 UNK         0.0000 
     33 H33        -0.1235   51.9296   29.3992 H         1 UNK         0.0000 
     34 H34         1.3515   51.3962   28.6353 H         1 UNK         0.0000 
     35 H35        -1.4377   51.5286   27.3732 H         1 UNK         0.0000 
     36 H36        -0.4928   50.0969   27.6759 H         1 UNK         0.0000 
     37 H37         4.2733   52.4778   20.7811 H         1 UNK         0.0000 
     38 H38         3.5046   54.5597   20.1337 H         1 UNK         0.0000 
     39 H39         3.3582   55.1483   21.7628 H         1 UNK         0.0000 
     40 H40         5.9220   54.5524   20.2319 H         1 UNK         0.0000 
     41 H41         5.5055   56.0414   21.0720 H         1 UNK         0.0000 
     42 H42         7.0766   54.2727   22.3569 H         1 UNK         0.0000 
     43 H43         5.7517   55.0055   23.2297 H         1 UNK         0.0000 
     44 H44         5.0834   52.8970   23.6124 H         1 UNK         0.0000 
     45 H45         5.9057   52.1751   22.2491 H         1 UNK         0.0000 
     46 H46         2.2617   51.8642   18.0810 H         1 UNK         0.0000 
     47 H47         2.2362   52.9832   19.4258 H         1 UNK         0.0000 
     48 H48         0.5796   53.2123   17.2855 H         1 UNK         0.0000 
     49 H49        -0.6098   54.2057   16.0487 H         1 UNK         0.0000 
     50 H50        -2.4219   55.9562   16.8795 H         1 UNK         0.0000 
     51 H51        -2.6983   54.4317   14.1546 H         1 UNK         0.0000 
     52 H52        -3.3489   56.0816   14.5188 H         1 UNK         0.0000 
     53 H53        -4.7667   55.0952   16.4349 H         1 UNK         0.0000 
     54 H54        -4.1109   53.4479   16.0707 H         1 UNK         0.0000 
     55 H55         2.5938   53.2365   26.9433 H         1 UNK         0.0000 
     56 H56         1.5059   54.4078   26.2608 H         1 UNK         0.0000 
@<TRIPOS>BOND
     1    1   30 1    
     2    1    2 1    
     3    1   31 1    
     4    1   32 1    
     5    2    3 1    
     6    2   33 1    
     7    2   34 1    
     8    3    4 1    
     9    3   35 1    
    10    3   36 1    
    11    4    8 1    
    12    4    5 2    
    13    5    6 1    
    14    5   30 1    
    15    6   12 ar   
    16    6    7 ar   
    17    7    8 1    
    18    7    9 ar   
    19    9   10 ar   
    20   10   11 ar   
    21   10   19 1    
    22   11   12 ar   
    23   11   14 1    
    24   12   13 2    
    25   14   18 1    
    26   14   15 1    
    27   14   37 1    
    28   15   16 1    
    29   15   38 1    
    30   15   39 1    
    31   16   17 1    
    32   16   40 1    
    33   16   41 1    
    34   17   18 1    
    35   17   42 1    
    36   17   43 1    
    37   18   44 1    
    38   18   45 1    
    39   19   20 1    
    40   20   21 1    
    41   20   46 1    
    42   20   47 1    
    43   21   22 2    
    44   21   23 am   BACKBONE|DICT|INTERRES
    45   23   24 am   BACKBONE|DICT|INTERRES
    46   23   48 1    
    47   24   25 2    
    48   24   26 am   BACKBONE|DICT|INTERRES
    49   26   27 1    
    50   26   49 1    
    51   27   29 1    
    52   27   28 1    
    53   27   50 1    
    54   28   29 1    
    55   28   51 1    
    56   28   52 1    
    57   29   53 1    
    58   29   54 1    
    59   30   55 1    
    60   30   56 1    
@<TRIPOS>SUBSTRUCTURE
     1 UNK         1 GROUP             0       ****    0 ROOT    
