@<TRIPOS>MOLECULE
ZINC08873459_2653
42   45    1
SMALL
USER_CHARGES


@<TRIPOS>ATOM
      1 C1         -0.5601   51.7110   29.1592 C.ar      1 UNK         0.0000 
      2 C2         -1.8608   51.2967   28.8821 C.ar      1 UNK         0.0000 
      3 C3         -2.3296   51.2967   27.5728 C.ar      1 UNK         0.0000 
      4 C4         -1.4990   51.6945   26.5316 C.ar      1 UNK         0.0000 
      5 C5         -0.1944   52.0962   26.8026 C.ar      1 UNK         0.0000 
      6 C6          0.2927   52.1218   28.1242 C.ar      1 UNK         0.0000 
      7 C7          1.7110   52.5577   28.4447 C.2       1 UNK         0.0000 
      8 O8          2.2044   52.3302   29.5528 O.2       1 UNK         0.0000 
      9 N9          2.3499   53.1902   27.4369 N.am      1 UNK         0.0000 
     10 C10         3.6387   53.6965   27.4009 C.2       1 UNK         0.0000 
     11 N11         4.1537   54.0659   26.2590 N.2       1 UNK         0.0000 
     12 C12         5.4128   54.4711   26.3585 C.2       1 UNK         0.0000 
     13 C13         5.9045   54.4967   27.6705 C.2       1 UNK         0.0000 
     14 S14         4.6974   53.8935   28.7699 S.3       1 UNK         0.0000 
     15 C15         6.1307   54.9083   25.1727 C.2       1 UNK         0.0000 
     16 O16         7.1043   55.6518   25.2817 O.2       1 UNK         0.0000 
     17 N17         5.6353   54.4315   24.0049 N.am      1 UNK         0.0000 
     18 C18         5.9989   54.6931   22.6725 C.ar      1 UNK         0.0000 
     19 C19         7.1029   55.4664   22.2683 C.ar      1 UNK         0.0000 
     20 C20         7.3546   55.6927   20.9131 C.ar      1 UNK         0.0000 
     21 C21         6.5053   55.1463   19.9537 C.ar      1 UNK         0.0000 
     22 C22         5.3945   54.3862   20.3494 C.ar      1 UNK         0.0000 
     23 C23         5.1511   54.1513   21.6997 C.ar      1 UNK         0.0000 
     24 O24         4.5561   53.7757   19.4400 O.3       1 UNK         0.0000 
     25 C25         4.6554   54.2951   18.1099 C.3       1 UNK         0.0000 
     26 C26         6.1366   54.5127   17.7152 C.3       1 UNK         0.0000 
     27 O27         6.7712   55.4176   18.6274 O.3       1 UNK         0.0000 
     28 Cl28       -3.9482   50.8008   27.2395 Cl        1 UNK         0.0000 
     29 H29        -0.2256   51.6975   30.1880 H         1 UNK         0.0000 
     30 H30        -2.4951   50.9469   29.6846 H         1 UNK         0.0000 
     31 H31        -1.8616   51.6794   25.5145 H         1 UNK         0.0000 
     32 H32         0.4195   52.3770   25.9605 H         1 UNK         0.0000 
     33 H33         1.8537   53.2334   26.5623 H         1 UNK         0.0000 
     34 H34         6.8707   54.8204   28.0324 H         1 UNK         0.0000 
     35 H35         4.8414   53.8178   24.1004 H         1 UNK         0.0000 
     36 H36         7.7728   55.9151   22.9832 H         1 UNK         0.0000 
     37 H37         8.2115   56.2736   20.6061 H         1 UNK         0.0000 
     38 H38         4.2965   53.5501   21.9754 H         1 UNK         0.0000 
     39 H39         4.1731   53.6027   17.4190 H         1 UNK         0.0000 
     40 H40         4.1236   55.2467   18.0569 H         1 UNK         0.0000 
     41 H41         6.6563   53.5522   17.7363 H         1 UNK         0.0000 
     42 H42         6.2109   54.9089   16.7025 H         1 UNK         0.0000 
@<TRIPOS>BOND
     1    1    6 ar   
     2    1    2 ar   
     3    1   29 1    
     4    2    3 ar   
     5    2   30 1    
     6    3    4 ar   
     7    3   28 1    
     8    4    5 ar   
     9    4   31 1    
    10    5    6 ar   
    11    5   32 1    
    12    6    7 1    
    13    7    8 2    
    14    7    9 am   BACKBONE|DICT|INTERRES
    15    9   10 am   BACKBONE|DICT|INTERRES
    16    9   33 1    
    17   10   14 1    
    18   10   11 2    
    19   11   12 1    
    20   12   13 2    
    21   12   15 1    
    22   13   14 1    
    23   13   34 1    
    24   15   16 2    
    25   15   17 am   BACKBONE|DICT|INTERRES
    26   17   18 1    
    27   17   35 1    
    28   18   23 ar   
    29   18   19 ar   
    30   19   20 ar   
    31   19   36 1    
    32   20   21 ar   
    33   20   37 1    
    34   21   27 1    
    35   21   22 ar   
    36   22   23 ar   
    37   22   24 1    
    38   23   38 1    
    39   24   25 1    
    40   25   26 1    
    41   25   39 1    
    42   25   40 1    
    43   26   27 1    
    44   26   41 1    
    45   26   42 1    
@<TRIPOS>SUBSTRUCTURE
     1 UNK         1 GROUP             0       ****    0 ROOT    
