@<TRIPOS>MOLECULE
ZINC57744231_2834
63   67    1
SMALL
USER_CHARGES


@<TRIPOS>ATOM
      1 C1          5.3481   53.2969   18.9790 C.3       1 UNK         0.0000 
      2 C2          4.1375   53.6891   19.8475 C.3       1 UNK         0.0000 
      3 H3          3.7239   54.5886   19.3908 H         1 UNK         0.0000 
      4 C4          4.4935   54.0624   21.2881 C.ar      1 UNK         0.0000 
      5 N5          3.5159   54.1988   22.2463 N.pl3     1 UNK         0.0000 
      6 H6          2.5352   54.0769   22.0434 H         1 UNK         0.0000 
      7 C7          4.1438   54.4344   23.4396 C.ar      1 UNK         0.0000 
      8 C8          3.6853   54.6152   24.7374 C.ar      1 UNK         0.0000 
      9 C9          4.6533   54.8411   25.7212 C.ar      1 UNK         0.0000 
     10 C10         6.0126   54.8881   25.4173 C.ar      1 UNK         0.0000 
     11 C11         6.4611   54.7257   24.1050 C.ar      1 UNK         0.0000 
     12 C12         5.5143   54.4957   23.1005 C.ar      1 UNK         0.0000 
     13 N13         5.6923   54.3233   21.7536 N.2       1 UNK         0.0000 
     14 N14         3.0345   52.7110   19.8144 N.am      1 UNK         0.0000 
     15 C15         3.0286   51.4967   20.4062 C.2       1 UNK         0.0000 
     16 O16         4.0525   51.0109   20.8842 O.2       1 UNK         0.0000 
     17 C17         1.6939   50.6931   20.4101 C.3       1 UNK         0.0000 
     18 C18         1.7642   49.4984   21.4199 C.3       1 UNK         0.0000 
     19 C19         1.5597   49.8822   22.9044 C.3       1 UNK         0.0000 
     20 N20         0.3294   50.6930   23.0505 N.pl3     1 UNK         0.0000 
     21 C21         0.3096   51.9488   22.2623 C.3       1 UNK         0.0000 
     22 C22         0.4801   51.6236   20.7577 C.3       1 UNK         0.0000 
     23 S23        -0.7195   50.5007   24.4868 S.o2      1 UNK         0.0000 
     24 O24        -1.9713   51.2182   24.2154 O.2       1 UNK         0.0000 
     25 O25        -0.7234   49.0800   24.8527 O.2       1 UNK         0.0000 
     26 C26         0.0206   51.3683   25.8821 C.ar      1 UNK         0.0000 
     27 C27         1.1046   52.2188   25.7093 C.ar      1 UNK         0.0000 
     28 C28         1.6284   52.9001   26.8033 C.ar      1 UNK         0.0000 
     29 C29         1.0692   52.8042   28.0717 C.ar      1 UNK         0.0000 
     30 C30        -0.0248   51.9349   28.2679 C.ar      1 UNK         0.0000 
     31 C31        -0.5252   51.2198   27.1648 C.ar      1 UNK         0.0000 
     32 C32        -0.6937   51.8327   29.6434 C.3       1 UNK         0.0000 
     33 C33         0.1127   52.4974   30.7819 C.3       1 UNK         0.0000 
     34 C34         0.6556   53.8544   30.3411 C.3       1 UNK         0.0000 
     35 C35         1.6705   53.6234   29.2148 C.3       1 UNK         0.0000 
     36 H36         6.0477   54.1283   18.8672 H         1 UNK         0.0000 
     37 H37         5.8992   52.4618   19.4163 H         1 UNK         0.0000 
     38 H38         5.0344   52.9865   17.9810 H         1 UNK         0.0000 
     39 H39         2.6285   54.6253   24.9408 H         1 UNK         0.0000 
     40 H40         4.3426   54.9914   26.7455 H         1 UNK         0.0000 
     41 H41         6.7183   55.0589   26.2121 H         1 UNK         0.0000 
     42 H42         7.5049   54.7716   23.8602 H         1 UNK         0.0000 
     43 H43         2.1724   53.0441   19.4107 H         1 UNK         0.0000 
     44 H44         1.6386   50.3676   19.3699 H         1 UNK         0.0000 
     45 H45         1.0271   48.7589   21.1065 H         1 UNK         0.0000 
     46 H46         2.6673   48.9046   21.2642 H         1 UNK         0.0000 
     47 H47         1.5011   49.0047   23.5486 H         1 UNK         0.0000 
     48 H48         2.4068   50.4820   23.2360 H         1 UNK         0.0000 
     49 H49        -0.6124   52.4953   22.4614 H         1 UNK         0.0000 
     50 H50         1.1489   52.5680   22.5776 H         1 UNK         0.0000 
     51 H51         0.4615   52.5188   20.1356 H         1 UNK         0.0000 
     52 H52        -0.4176   51.1430   20.3666 H         1 UNK         0.0000 
     53 H53         1.5699   52.3373   24.7457 H         1 UNK         0.0000 
     54 H54         2.5007   53.5160   26.7014 H         1 UNK         0.0000 
     55 H55        -1.3654   50.5515   27.3054 H         1 UNK         0.0000 
     56 H56        -1.6688   52.3031   29.5655 H         1 UNK         0.0000 
     57 H57        -0.9059   50.8010   29.8999 H         1 UNK         0.0000 
     58 H58         0.9393   51.8513   31.0811 H         1 UNK         0.0000 
     59 H59        -0.4896   52.6284   31.6815 H         1 UNK         0.0000 
     60 H60         1.1060   54.3742   31.1852 H         1 UNK         0.0000 
     61 H61        -0.1561   54.4954   29.9972 H         1 UNK         0.0000 
     62 H62         2.5369   53.0900   29.6078 H         1 UNK         0.0000 
     63 H63         2.0396   54.5839   28.8471 H         1 UNK         0.0000 
@<TRIPOS>BOND
     1    1    2 1    
     2    1   36 1    
     3    1   37 1    
     4    1   38 1    
     5    2    3 1    
     6    2    4 1    
     7    2   14 1    
     8    4   13 ar   
     9    4    5 ar   
    10    5    6 1    
    11    5    7 ar   
    12    7   12 ar   
    13    7    8 ar   
    14    8    9 ar   
    15    8   39 1    
    16    9   10 ar   
    17    9   40 1    
    18   10   11 ar   
    19   10   41 1    
    20   11   12 ar   
    21   11   42 1    
    22   12   13 ar   
    23   14   15 am   BACKBONE|DICT|INTERRES
    24   14   43 1    
    25   15   16 2    
    26   15   17 1    
    27   17   22 1    
    28   17   18 1    
    29   17   44 1    
    30   18   19 1    
    31   18   45 1    
    32   18   46 1    
    33   19   20 1    
    34   19   47 1    
    35   19   48 1    
    36   20   21 1    
    37   20   23 1    
    38   21   22 1    
    39   21   49 1    
    40   21   50 1    
    41   22   51 1    
    42   22   52 1    
    43   23   24 2    
    44   23   25 2    
    45   23   26 1    
    46   26   31 ar   
    47   26   27 ar   
    48   27   28 ar   
    49   27   53 1    
    50   28   29 ar   
    51   28   54 1    
    52   29   35 1    
    53   29   30 ar   
    54   30   31 ar   
    55   30   32 1    
    56   31   55 1    
    57   32   33 1    
    58   32   56 1    
    59   32   57 1    
    60   33   34 1    
    61   33   58 1    
    62   33   59 1    
    63   34   35 1    
    64   34   60 1    
    65   34   61 1    
    66   35   62 1    
    67   35   63 1    
@<TRIPOS>SUBSTRUCTURE
     1 UNK         1 GROUP             0       ****    0 ROOT    
