@<TRIPOS>MOLECULE
ZINC35529918_2024
58   60    1
SMALL
USER_CHARGES


@<TRIPOS>ATOM
      1 C1          1.2663   56.6806   29.9830 C.3       1 UNK         0.0000 
      2 C2          1.6329   55.1961   29.8624 C.3       1 UNK         0.0000 
      3 C3          0.5431   54.3692   29.1656 C.3       1 UNK         0.0000 
      4 N4          2.9257   55.0372   29.1994 N.am      1 UNK         0.0000 
      5 C5          3.8476   54.0972   29.4760 C.2       1 UNK         0.0000 
      6 O6          3.7079   53.2879   30.3939 O.2       1 UNK         0.0000 
      7 C7          5.1323   54.0517   28.6131 C.3       1 UNK         0.0000 
      8 N8          4.9219   54.4954   27.2167 N.3       1 UNK         0.0000 
      9 C9          4.0697   53.5578   26.4817 C.3       1 UNK         0.0000 
     10 C10         3.8332   54.0452   25.0410 C.3       1 UNK         0.0000 
     11 N11         5.0774   54.1664   24.2623 N.pl3     1 UNK         0.0000 
     12 C12         6.0911   54.9276   25.0238 C.3       1 UNK         0.0000 
     13 C13         6.2164   54.5617   26.5284 C.3       1 UNK         0.0000 
     14 C14         5.0640   54.0966   22.8654 C.ar      1 UNK         0.0000 
     15 C15         4.2297   53.1918   22.1981 C.ar      1 UNK         0.0000 
     16 C16         4.2405   53.0815   20.8139 C.ar      1 UNK         0.0000 
     17 C17         5.0610   53.9028   20.0427 C.ar      1 UNK         0.0000 
     18 C18         5.9071   54.8504   20.6735 C.ar      1 UNK         0.0000 
     19 C19         5.9046   54.8967   22.0787 C.ar      1 UNK         0.0000 
     20 C20         6.8316   55.7801   19.9351 C.2       1 UNK         0.0000 
     21 O21         7.3145   55.3979   18.8465 O.co2     1 UNK         0.0000 
     22 O22         7.0985   56.8798   20.4812 O.co2     1 UNK         0.0000 
     23 N23         4.9836   53.6811   18.6608 N.am      1 UNK         0.0000 
     24 C24         4.3489   54.4912   17.7883 C.2       1 UNK         0.0000 
     25 O25         3.9045   55.6046   18.0815 O.2       1 UNK         0.0000 
     26 C26         4.2129   53.9593   16.3804 C.ar      1 UNK         0.0000 
     27 C27         4.0864   52.5826   16.1197 C.ar      1 UNK         0.0000 
     28 C28         3.9553   52.1145   14.8130 C.ar      1 UNK         0.0000 
     29 C29         3.9378   53.0132   13.7483 C.ar      1 UNK         0.0000 
     30 C30         4.0493   54.3820   13.9909 C.ar      1 UNK         0.0000 
     31 C31         4.1832   54.8516   15.2985 C.ar      1 UNK         0.0000 
     32 Cl32        4.0201   55.4950   12.6727 Cl        1 UNK         0.0000 
     33 H33         0.3046   56.7985   30.4819 H         1 UNK         0.0000 
     34 H34         1.1792   57.1542   29.0047 H         1 UNK         0.0000 
     35 H35         1.9933   57.2321   30.5796 H         1 UNK         0.0000 
     36 H36         1.6904   54.8167   30.8816 H         1 UNK         0.0000 
     37 H37        -0.4122   54.4947   29.6758 H         1 UNK         0.0000 
     38 H38         0.3995   54.6824   28.1309 H         1 UNK         0.0000 
     39 H39         0.7751   53.3037   29.1816 H         1 UNK         0.0000 
     40 H40         3.1304   55.6636   28.4343 H         1 UNK         0.0000 
     41 H41         5.8600   54.7016   29.1031 H         1 UNK         0.0000 
     42 H42         5.5435   53.0396   28.6374 H         1 UNK         0.0000 
     43 H43         4.5092   52.5614   26.4821 H         1 UNK         0.0000 
     44 H44         3.0919   53.4917   26.9586 H         1 UNK         0.0000 
     45 H45         3.3547   55.0248   25.0779 H         1 UNK         0.0000 
     46 H46         3.1193   53.3748   24.5675 H         1 UNK         0.0000 
     47 H47         5.7870   55.9741   24.9770 H         1 UNK         0.0000 
     48 H48         7.0739   54.8454   24.5581 H         1 UNK         0.0000 
     49 H49         6.8612   55.2921   27.0181 H         1 UNK         0.0000 
     50 H50         6.6993   53.5835   26.5823 H         1 UNK         0.0000 
     51 H51         3.5719   52.5309   22.7385 H         1 UNK         0.0000 
     52 H52         3.5933   52.3553   20.3418 H         1 UNK         0.0000 
     53 H53         6.5620   55.6023   22.5658 H         1 UNK         0.0000 
     54 H54         5.2975   52.7770   18.3332 H         1 UNK         0.0000 
     55 H55         4.0762   51.8552   16.9194 H         1 UNK         0.0000 
     56 H56         3.8647   51.0526   14.6349 H         1 UNK         0.0000 
     57 H57         3.8354   52.6480   12.7367 H         1 UNK         0.0000 
     58 H58         4.2681   55.9169   15.4676 H         1 UNK         0.0000 
@<TRIPOS>BOND
     1    1    2 1    
     2    1   33 1    
     3    1   34 1    
     4    1   35 1    
     5    2    3 1    
     6    2    4 1    
     7    2   36 1    
     8    3   37 1    
     9    3   38 1    
    10    3   39 1    
    11    4    5 am   BACKBONE|DICT|INTERRES
    12    4   40 1    
    13    5    6 2    
    14    5    7 1    
    15    7    8 1    
    16    7   41 1    
    17    7   42 1    
    18    8   13 1    
    19    8    9 1    
    20    9   10 1    
    21    9   43 1    
    22    9   44 1    
    23   10   11 1    
    24   10   45 1    
    25   10   46 1    
    26   11   12 1    
    27   11   14 1    
    28   12   13 1    
    29   12   47 1    
    30   12   48 1    
    31   13   49 1    
    32   13   50 1    
    33   14   19 ar   
    34   14   15 ar   
    35   15   16 ar   
    36   15   51 1    
    37   16   17 ar   
    38   16   52 1    
    39   17   18 ar   
    40   17   23 1    
    41   18   19 ar   
    42   18   20 1    
    43   19   53 1    
    44   20   21 2    
    45   20   22 1    
    46   23   24 am   BACKBONE|DICT|INTERRES
    47   23   54 1    
    48   24   25 2    
    49   24   26 1    
    50   26   31 ar   
    51   26   27 ar   
    52   27   28 ar   
    53   27   55 1    
    54   28   29 ar   
    55   28   56 1    
    56   29   30 ar   
    57   29   57 1    
    58   30   31 ar   
    59   30   32 1    
    60   31   58 1    
@<TRIPOS>SUBSTRUCTURE
     1 UNK         1 GROUP             0       ****    0 ROOT    
