@<TRIPOS>MOLECULE
ZINC39665888_1285
69   72    1
SMALL
USER_CHARGES


@<TRIPOS>ATOM
      1 C1          4.6522   53.8593   28.9218 C.3       1 UNK         0.0000 
      2 C2          5.0179   54.1075   27.4711 C.ar      1 UNK         0.0000 
      3 C3          6.3605   54.1904   27.1092 C.ar      1 UNK         0.0000 
      4 C4          6.7043   54.4185   25.7811 C.ar      1 UNK         0.0000 
      5 C5          5.7228   54.5460   24.7966 C.ar      1 UNK         0.0000 
      6 C6          4.3739   54.5035   25.1791 C.ar      1 UNK         0.0000 
      7 C7          4.0222   54.2705   26.5072 C.ar      1 UNK         0.0000 
      8 C8          6.1481   54.8471   23.3740 C.2       1 UNK         0.0000 
      9 O9          7.0233   55.6953   23.1937 O.2       1 UNK         0.0000 
     10 N10         5.5397   54.2330   22.3250 N.am      1 UNK         0.0000 
     11 C11         4.5455   53.1608   22.3668 C.3       1 UNK         0.0000 
     12 C12         3.6866   53.4779   21.1333 C.3       1 UNK         0.0000 
     13 H13         3.0183   54.3005   21.3839 H         1 UNK         0.0000 
     14 C14         4.7283   53.9370   20.0715 C.3       1 UNK         0.0000 
     15 C15         5.7099   54.7438   20.9556 C.3       1 UNK         0.0000 
     16 C16         5.4512   52.7423   19.3840 C.3       1 UNK         0.0000 
     17 C17         6.5724   53.1822   18.4173 C.3       1 UNK         0.0000 
     18 N18         5.9628   54.1212   17.3540 N.4       1 UNK         0.0000 
     19 C19         5.1635   55.3027   17.9471 C.3       1 UNK         0.0000 
     20 C20         4.0945   54.7233   18.8932 C.3       1 UNK         0.0000 
     21 C21         2.8596   52.2336   20.7327 C.2       1 UNK         0.0000 
     22 O22         3.2144   51.0951   21.0459 O.2       1 UNK         0.0000 
     23 N23         1.7378   52.4964   20.0422 N.am      1 UNK         0.0000 
     24 C24         0.8367   51.5007   19.4620 C.3       1 UNK         0.0000 
     25 C25        -0.6410   51.6503   19.9091 C.3       1 UNK         0.0000 
     26 H26        -1.0398   52.4694   19.3104 H         1 UNK         0.0000 
     27 C27        -1.4936   50.4135   19.5689 C.3       1 UNK         0.0000 
     28 O28        -0.8905   52.0804   21.2580 O.3       1 UNK         0.0000 
     29 C29        -0.5820   51.3225   22.3745 C.ar      1 UNK         0.0000 
     30 C30         0.3722   50.2960   22.4122 C.ar      1 UNK         0.0000 
     31 C31         0.6441   49.6274   23.5979 C.ar      1 UNK         0.0000 
     32 C32        -0.0866   49.9215   24.7458 C.ar      1 UNK         0.0000 
     33 C33        -1.0385   50.9425   24.7257 C.ar      1 UNK         0.0000 
     34 C34        -1.2674   51.6502   23.5468 C.ar      1 UNK         0.0000 
     35 C35         0.1719   49.1366   26.0166 C.3       1 UNK         0.0000 
     36 H36         5.0933   52.9210   29.2615 H         1 UNK         0.0000 
     37 H37         5.0504   54.6574   29.5484 H         1 UNK         0.0000 
     38 H38         3.5739   53.8019   29.0730 H         1 UNK         0.0000 
     39 H39         7.1338   54.0865   27.8573 H         1 UNK         0.0000 
     40 H40         7.7429   54.4965   25.5055 H         1 UNK         0.0000 
     41 H41         3.5844   54.6827   24.4657 H         1 UNK         0.0000 
     42 H42         2.9777   54.2280   26.7825 H         1 UNK         0.0000 
     43 H43         3.9225   53.0523   23.2510 H         1 UNK         0.0000 
     44 H44         5.0933   52.2318   22.1973 H         1 UNK         0.0000 
     45 H45         6.7323   54.7852   20.5879 H         1 UNK         0.0000 
     46 H46         5.3442   55.7698   20.9734 H         1 UNK         0.0000 
     47 H47         5.8969   52.0868   20.1293 H         1 UNK         0.0000 
     48 H48         4.7288   52.1060   18.8705 H         1 UNK         0.0000 
     49 H49         7.3923   53.7277   18.8812 H         1 UNK         0.0000 
     50 H50         6.9846   52.3327   17.8670 H         1 UNK         0.0000 
     51 H51         6.6903   54.4645   16.7412 H         1 UNK         0.0000 
     52 H52         5.8811   55.9547   18.4473 H         1 UNK         0.0000 
     53 H53         4.7244   55.8368   17.1029 H         1 UNK         0.0000 
     54 H54         3.3730   54.1118   18.3475 H         1 UNK         0.0000 
     55 H55         3.5102   55.5581   19.2726 H         1 UNK         0.0000 
     56 H56         1.5031   53.4728   19.8860 H         1 UNK         0.0000 
     57 H57         1.2022   50.4827   19.6004 H         1 UNK         0.0000 
     58 H58         0.8841   51.6221   18.3778 H         1 UNK         0.0000 
     59 H59        -1.3856   50.1310   18.5217 H         1 UNK         0.0000 
     60 H60        -1.2170   49.5517   20.1754 H         1 UNK         0.0000 
     61 H61        -2.5521   50.6085   19.7453 H         1 UNK         0.0000 
     62 H62         0.9442   50.0028   21.5548 H         1 UNK         0.0000 
     63 H63         1.4256   48.8839   23.6160 H         1 UNK         0.0000 
     64 H64        -1.5968   51.1858   25.6182 H         1 UNK         0.0000 
     65 H65        -1.9997   52.4428   23.5350 H         1 UNK         0.0000 
     66 H66        -0.0318   49.7441   26.8949 H         1 UNK         0.0000 
     67 H67         1.2140   48.8159   26.0864 H         1 UNK         0.0000 
     68 H68        -0.4682   48.2539   26.0666 H         1 UNK         0.0000 
     69 H69         5.3408   53.5690   16.7785 H         1 UNK         0.0000 
@<TRIPOS>BOND
     1    1    2 1    
     2    1   36 1    
     3    1   37 1    
     4    1   38 1    
     5    2    7 ar   
     6    2    3 ar   
     7    3    4 ar   
     8    3   39 1    
     9    4    5 ar   
    10    4   40 1    
    11    5    6 ar   
    12    5    8 1    
    13    6    7 ar   
    14    6   41 1    
    15    7   42 1    
    16    8    9 2    
    17    8   10 am   BACKBONE|DICT|INTERRES
    18   10   15 1    
    19   10   11 1    
    20   11   12 1    
    21   11   43 1    
    22   11   44 1    
    23   12   13 1    
    24   12   14 1    
    25   12   21 1    
    26   14   20 1    
    27   14   15 1    
    28   14   16 1    
    29   15   45 1    
    30   15   46 1    
    31   16   17 1    
    32   16   47 1    
    33   16   48 1    
    34   17   18 1    
    35   17   49 1    
    36   17   50 1    
    37   18   19 1    
    38   18   51 1    
    39   18   69 1    
    40   19   20 1    
    41   19   52 1    
    42   19   53 1    
    43   20   54 1    
    44   20   55 1    
    45   21   22 2    
    46   21   23 am   BACKBONE|DICT|INTERRES
    47   23   24 1    
    48   23   56 1    
    49   24   25 1    
    50   24   57 1    
    51   24   58 1    
    52   25   26 1    
    53   25   27 1    
    54   25   28 1    
    55   27   59 1    
    56   27   60 1    
    57   27   61 1    
    58   28   29 1    
    59   29   34 ar   
    60   29   30 ar   
    61   30   31 ar   
    62   30   62 1    
    63   31   32 ar   
    64   31   63 1    
    65   32   33 ar   
    66   32   35 1    
    67   33   34 ar   
    68   33   64 1    
    69   34   65 1    
    70   35   66 1    
    71   35   67 1    
    72   35   68 1    
@<TRIPOS>SUBSTRUCTURE
     1 UNK         1 GROUP             0       ****    0 ROOT    
