@<TRIPOS>MOLECULE
ZINC36061356_5963
63   66    1
SMALL
USER_CHARGES


@<TRIPOS>ATOM
      1 C1         -1.7195   51.2996   29.2097 C.3       1 UNK         0.0000 
      2 C2         -0.5370   51.7846   28.3828 C.2       1 UNK         0.0000 
      3 C3         -0.5602   52.2122   27.0821 C.2       1 UNK         0.0000 
      4 C4          0.7879   52.6231   26.3770 C.3       1 UNK         0.0000 
      5 H5          0.7044   53.6440   26.0132 H         1 UNK         0.0000 
      6 N6          1.9053   52.7036   27.3902 N.pl3     1 UNK         0.0000 
      7 C7          3.1554   53.3293   27.2767 C.2       1 UNK         0.0000 
      8 C8          3.8853   53.1882   28.4033 C.2       1 UNK         0.0000 
      9 S9          3.1242   52.2605   29.6660 S.3       1 UNK         0.0000 
     10 C10         1.6719   52.1829   28.6671 C.2       1 UNK         0.0000 
     11 N11         0.5913   51.7176   29.1358 N.2       1 UNK         0.0000 
     12 C12         3.6753   54.0793   26.1300 C.2       1 UNK         0.0000 
     13 C13         4.9779   54.3266   25.8464 C.2       1 UNK         0.0000 
     14 O14         6.0526   53.9741   26.4621 O.co2     1 UNK         0.0000 
     15 N15         5.3161   55.0975   24.7567 N.pl3     1 UNK         0.0000 
     16 C16         6.5181   55.0814   23.9154 C.3       1 UNK         0.0000 
     17 C17         6.3600   54.4769   22.5034 C.3       1 UNK         0.0000 
     18 H18         7.3564   54.4908   22.0592 H         1 UNK         0.0000 
     19 C19         5.6362   53.1320   22.4021 C.3       1 UNK         0.0000 
     20 C20         5.0911   53.0889   20.9906 C.3       1 UNK         0.0000 
     21 C21         5.1012   54.5497   20.5453 C.3       1 UNK         0.0000 
     22 O22         5.5388   55.2969   21.6822 O.3       1 UNK         0.0000 
     23 C23         1.0876   51.7844   25.1192 C.ar      1 UNK         0.0000 
     24 C24         0.7000   50.4341   25.0590 C.ar      1 UNK         0.0000 
     25 C25         0.9066   49.6991   23.8968 C.ar      1 UNK         0.0000 
     26 C26         1.4724   50.3090   22.7809 C.ar      1 UNK         0.0000 
     27 C27         1.8097   51.6592   22.8112 C.ar      1 UNK         0.0000 
     28 C28         1.6148   52.3950   23.9756 C.ar      1 UNK         0.0000 
     29 Cl29        1.7501   49.3856   21.3505 Cl        1 UNK         0.0000 
     30 C30        -1.8417   52.2346   26.3150 C.2       1 UNK         0.0000 
     31 O31        -2.9470   52.0964   26.8409 O.2       1 UNK         0.0000 
     32 O32        -1.7020   52.3922   24.9686 O.3       1 UNK         0.0000 
     33 C33        -2.7309   52.0710   24.0106 C.3       1 UNK         0.0000 
     34 C34        -3.1480   50.5823   24.1224 C.3       1 UNK         0.0000 
     35 C35        -2.0554   52.2728   22.6426 C.3       1 UNK         0.0000 
     36 C36        -3.9613   53.0117   24.1340 C.3       1 UNK         0.0000 
     37 H37        -2.2197   50.4976   28.6890 H         1 UNK         0.0000 
     38 H38        -1.4697   50.9490   30.2146 H         1 UNK         0.0000 
     39 H39        -2.4536   52.0873   29.2805 H         1 UNK         0.0000 
     40 H40         4.8718   53.5851   28.5805 H         1 UNK         0.0000 
     41 H41         2.9419   54.4994   25.4628 H         1 UNK         0.0000 
     42 H42         4.5591   55.5848   24.3036 H         1 UNK         0.0000 
     43 H43         6.8550   56.1094   23.8051 H         1 UNK         0.0000 
     44 H44         7.3355   54.5773   24.4309 H         1 UNK         0.0000 
     45 H45         6.2840   52.2979   22.6534 H         1 UNK         0.0000 
     46 H46         4.8186   53.0899   23.1232 H         1 UNK         0.0000 
     47 H47         5.7086   52.4750   20.3327 H         1 UNK         0.0000 
     48 H48         4.0901   52.6644   20.9629 H         1 UNK         0.0000 
     49 H49         5.7938   54.7066   19.7182 H         1 UNK         0.0000 
     50 H50         4.1184   54.8925   20.2219 H         1 UNK         0.0000 
     51 H51         0.2647   49.9429   25.9190 H         1 UNK         0.0000 
     52 H52         0.6456   48.6533   23.8695 H         1 UNK         0.0000 
     53 H53         2.2072   52.1373   21.9314 H         1 UNK         0.0000 
     54 H54         1.8547   53.4458   23.9688 H         1 UNK         0.0000 
     55 H55        -3.6839   50.3722   25.0479 H         1 UNK         0.0000 
     56 H56        -3.7978   50.2848   23.2990 H         1 UNK         0.0000 
     57 H57        -2.2740   49.9299   24.1025 H         1 UNK         0.0000 
     58 H58        -1.6953   53.2962   22.5446 H         1 UNK         0.0000 
     59 H59        -1.1926   51.6175   22.5194 H         1 UNK         0.0000 
     60 H60        -2.7355   52.0705   21.8156 H         1 UNK         0.0000 
     61 H61        -3.7903   53.9714   23.6495 H         1 UNK         0.0000 
     62 H62        -4.8474   52.5710   23.6809 H         1 UNK         0.0000 
     63 H63        -4.2505   53.2277   25.1605 H         1 UNK         0.0000 
@<TRIPOS>BOND
     1    1    2 1    
     2    1   37 1    
     3    1   38 1    
     4    1   39 1    
     5    2   11 1    
     6    2    3 2    
     7    3    4 1    
     8    3   30 1    
     9    4    5 1    
    10    4    6 1    
    11    4   23 1    
    12    6   10 1    
    13    6    7 1    
    14    7    8 2    
    15    7   12 1    
    16    8    9 1    
    17    8   40 1    
    18    9   10 1    
    19   10   11 2    
    20   12   13 2    
    21   12   41 1    
    22   13   14 1    
    23   13   15 1    
    24   15   16 1    
    25   15   42 1    
    26   16   17 1    
    27   16   43 1    
    28   16   44 1    
    29   17   18 1    
    30   17   22 1    
    31   17   19 1    
    32   19   20 1    
    33   19   45 1    
    34   19   46 1    
    35   20   21 1    
    36   20   47 1    
    37   20   48 1    
    38   21   22 1    
    39   21   49 1    
    40   21   50 1    
    41   23   28 ar   
    42   23   24 ar   
    43   24   25 ar   
    44   24   51 1    
    45   25   26 ar   
    46   25   52 1    
    47   26   27 ar   
    48   26   29 1    
    49   27   28 ar   
    50   27   53 1    
    51   28   54 1    
    52   30   31 2    
    53   30   32 1    
    54   32   33 1    
    55   33   34 1    
    56   33   35 1    
    57   33   36 1    
    58   34   55 1    
    59   34   56 1    
    60   34   57 1    
    61   35   58 1    
    62   35   59 1    
    63   35   60 1    
    64   36   61 1    
    65   36   62 1    
    66   36   63 1    
@<TRIPOS>SUBSTRUCTURE
     1 UNK         1 GROUP             0       ****    0 ROOT    
