@<TRIPOS>MOLECULE
ZINC32722323_5813
47   51    1
SMALL
USER_CHARGES


@<TRIPOS>ATOM
      1 C1         -0.0955   52.5370   29.7761 C.ar      1 UNK         0.0000 
      2 C2          0.7964   53.5928   29.5891 C.ar      1 UNK         0.0000 
      3 C3          1.3692   53.8495   28.3426 C.ar      1 UNK         0.0000 
      4 C4          1.0230   53.0030   27.2797 C.ar      1 UNK         0.0000 
      5 C5          0.1263   51.9171   27.4596 C.ar      1 UNK         0.0000 
      6 C6         -0.4506   51.6969   28.7192 C.ar      1 UNK         0.0000 
      7 N7         -0.0951   51.1617   26.3482 N.2       1 UNK         0.0000 
      8 C8          0.5832   51.6030   25.3226 C.2       1 UNK         0.0000 
      9 S9          1.5044   53.0628   25.5921 S.3       1 UNK         0.0000 
     10 C10         0.6109   50.9338   24.0308 C.2       1 UNK         0.0000 
     11 C11        -0.0844   49.8707   23.4739 C.2       1 UNK         0.0000 
     12 C12         0.4018   49.7003   22.1750 C.2       1 UNK         0.0000 
     13 C13         1.3989   50.6462   21.9855 C.2       1 UNK         0.0000 
     14 O14         1.5161   51.3869   23.1212 O.3       1 UNK         0.0000 
     15 C15         2.3116   50.9947   20.8190 C.3       1 UNK         0.0000 
     16 N16         2.7279   52.4022   20.8397 N.am      1 UNK         0.0000 
     17 C17         3.9513   52.8383   21.1807 C.2       1 UNK         0.0000 
     18 O18         4.8780   52.0835   21.4791 O.2       1 UNK         0.0000 
     19 C19         4.1103   54.3612   21.2816 C.3       1 UNK         0.0000 
     20 N20         5.4997   54.8460   21.3402 N.pl3     1 UNK         0.0000 
     21 C21         6.3053   55.0355   22.4615 C.ar      1 UNK         0.0000 
     22 N22         7.4550   55.5443   22.0817 N.2       1 UNK         0.0000 
     23 N23         7.4461   55.6969   20.7077 N.2       1 UNK         0.0000 
     24 C24         6.2838   55.2870   20.2782 C.ar      1 UNK         0.0000 
     25 S25         5.8545   55.3520   18.5647 S.3       1 UNK         0.0000 
     26 C26         5.9759   54.8137   23.9261 C.ar      1 UNK         0.0000 
     27 C27         4.9864   53.9366   24.3807 C.ar      1 UNK         0.0000 
     28 C28         4.7911   53.7177   25.7440 C.ar      1 UNK         0.0000 
     29 C29         5.5506   54.3970   26.6787 C.ar      1 UNK         0.0000 
     30 C30         6.5159   55.2949   26.2549 C.ar      1 UNK         0.0000 
     31 C31         6.7247   55.4988   24.8919 C.ar      1 UNK         0.0000 
     32 Cl32        5.3106   54.1000   28.3620 Cl        1 UNK         0.0000 
     33 H33        -0.5219   52.3669   30.7565 H         1 UNK         0.0000 
     34 H34         1.0412   54.2276   30.4283 H         1 UNK         0.0000 
     35 H35         2.0528   54.6748   28.2007 H         1 UNK         0.0000 
     36 H36        -1.1507   50.8898   28.8731 H         1 UNK         0.0000 
     37 H37        -0.8586   49.2941   23.9592 H         1 UNK         0.0000 
     38 H38         0.0734   48.9643   21.4563 H         1 UNK         0.0000 
     39 H39         1.7903   50.8147   19.8783 H         1 UNK         0.0000 
     40 H40         3.1750   50.3260   20.7962 H         1 UNK         0.0000 
     41 H41         2.0396   53.0895   20.5623 H         1 UNK         0.0000 
     42 H42         3.5686   54.7401   22.1472 H         1 UNK         0.0000 
     43 H43         3.6228   54.8151   20.4203 H         1 UNK         0.0000 
     44 H44         4.3973   53.3465   23.7055 H         1 UNK         0.0000 
     45 H45         4.0896   52.9758   26.0844 H         1 UNK         0.0000 
     46 H46         7.1044   55.7949   27.0012 H         1 UNK         0.0000 
     47 H47         7.5057   56.1734   24.5783 H         1 UNK         0.0000 
@<TRIPOS>BOND
     1    1    6 ar   
     2    1    2 ar   
     3    1   33 1    
     4    2    3 ar   
     5    2   34 1    
     6    3    4 ar   
     7    3   35 1    
     8    4    9 1    
     9    4    5 ar   
    10    5    6 ar   
    11    5    7 1    
    12    6   36 1    
    13    7    8 2    
    14    8    9 1    
    15    8   10 1    
    16   10   14 1    
    17   10   11 2    
    18   11   12 1    
    19   11   37 1    
    20   12   13 2    
    21   12   38 1    
    22   13   14 1    
    23   13   15 1    
    24   15   16 1    
    25   15   39 1    
    26   15   40 1    
    27   16   17 am   BACKBONE|DICT|INTERRES
    28   16   41 1    
    29   17   18 2    
    30   17   19 1    
    31   19   42 1    
    32   19   43 1    
    33   19   20 1    
    34   20   24 ar   
    35   20   21 ar   
    36   21   26 1    
    37   21   22 ar   
    38   22   23 ar   
    39   23   24 ar   
    40   24   25 1    
    41   26   31 ar   
    42   26   27 ar   
    43   27   28 ar   
    44   27   44 1    
    45   28   29 ar   
    46   28   45 1    
    47   29   30 ar   
    48   29   32 1    
    49   30   31 ar   
    50   30   46 1    
    51   31   47 1    
@<TRIPOS>SUBSTRUCTURE
     1 UNK         1 GROUP             0       ****    0 ROOT    
