@<TRIPOS>MOLECULE
ZINC47633599_1750
44   45    1
SMALL
USER_CHARGES


@<TRIPOS>ATOM
      1 C1         -1.1548   51.9085   23.3789 C.3       1 UNK         0.0000 
      2 C2         -1.1527   51.3584   24.8160 C.3       1 UNK         0.0000 
      3 H3         -1.1538   50.2669   24.7746 H         1 UNK         0.0000 
      4 C4         -2.4082   51.8016   25.5919 C.3       1 UNK         0.0000 
      5 C5         -2.4469   51.1379   26.9776 C.3       1 UNK         0.0000 
      6 C6         -1.1948   51.4850   27.8107 C.3       1 UNK         0.0000 
      7 C7          0.1502   51.2997   27.0548 C.3       1 UNK         0.0000 
      8 H8          0.2330   50.2130   26.9673 H         1 UNK         0.0000 
      9 C9          0.1075   51.8066   25.5879 C.3       1 UNK         0.0000 
     10 N10         1.3586   51.6852   27.7897 N.am      1 UNK         0.0000 
     11 C11         1.6601   52.9321   28.1849 C.2       1 UNK         0.0000 
     12 O12         0.8355   53.8282   28.3721 O.2       1 UNK         0.0000 
     13 N13         2.9853   53.1123   28.2791 N.am      1 UNK         0.0000 
     14 C14         3.6501   54.4085   28.1159 C.3       1 UNK         0.0000 
     15 C15         4.0079   54.6699   26.6289 C.3       1 UNK         0.0000 
     16 C16         5.1658   53.8267   26.0836 C.3       1 UNK         0.0000 
     17 C17         6.4176   53.8198   26.9817 C.3       1 UNK         0.0000 
     18 C18         6.0694   53.5540   28.4546 C.3       1 UNK         0.0000 
     19 C19         4.9368   54.4653   28.9681 C.3       1 UNK         0.0000 
     20 O20         7.1024   55.0465   26.8819 O.3       1 UNK         0.0000 
     21 H21        -1.1637   52.9990   23.3694 H         1 UNK         0.0000 
     22 H22        -2.0297   51.5644   22.8245 H         1 UNK         0.0000 
     23 H23        -0.2717   51.5809   22.8292 H         1 UNK         0.0000 
     24 H24        -2.4474   52.8890   25.6688 H         1 UNK         0.0000 
     25 H25        -3.3027   51.5296   25.0296 H         1 UNK         0.0000 
     26 H26        -2.5135   50.0543   26.8662 H         1 UNK         0.0000 
     27 H27        -3.3455   51.4413   27.5163 H         1 UNK         0.0000 
     28 H28        -1.1994   50.8969   28.7304 H         1 UNK         0.0000 
     29 H29        -1.2956   52.5257   28.1014 H         1 UNK         0.0000 
     30 H30         1.0011   51.4952   25.0440 H         1 UNK         0.0000 
     31 H31         0.1349   52.8968   25.5893 H         1 UNK         0.0000 
     32 H32         2.1443   51.0722   27.6423 H         1 UNK         0.0000 
     33 H33         3.5813   52.3030   28.2010 H         1 UNK         0.0000 
     34 H34         2.9823   55.2018   28.4640 H         1 UNK         0.0000 
     35 H35         3.1248   54.5351   26.0019 H         1 UNK         0.0000 
     36 H36         4.2976   55.6967   26.4821 H         1 UNK         0.0000 
     37 H37         5.4065   54.1045   25.0572 H         1 UNK         0.0000 
     38 H38         4.7556   52.8311   26.0818 H         1 UNK         0.0000 
     39 H39         7.1035   53.0443   26.6398 H         1 UNK         0.0000 
     40 H40         6.9548   53.6569   29.0831 H         1 UNK         0.0000 
     41 H41         5.7052   52.5288   28.5371 H         1 UNK         0.0000 
     42 H42         5.3197   55.4801   29.0264 H         1 UNK         0.0000 
     43 H43         4.6937   54.2059   29.9992 H         1 UNK         0.0000 
     44 H44         7.2826   55.3463   27.7829 H         1 UNK         0.0000 
@<TRIPOS>BOND
     1    1    2 1    
     2    1   21 1    
     3    1   22 1    
     4    1   23 1    
     5    2    3 1    
     6    2    9 1    
     7    2    4 1    
     8    4    5 1    
     9    4   24 1    
    10    4   25 1    
    11    5    6 1    
    12    5   26 1    
    13    5   27 1    
    14    6    7 1    
    15    6   28 1    
    16    6   29 1    
    17    7    8 1    
    18    7    9 1    
    19    7   10 1    
    20    9   30 1    
    21    9   31 1    
    22   10   11 am   BACKBONE|DICT|INTERRES
    23   10   32 1    
    24   11   12 2    
    25   11   13 am   BACKBONE|DICT|INTERRES
    26   13   14 1    
    27   13   33 1    
    28   14   19 1    
    29   14   15 1    
    30   14   34 1    
    31   15   16 1    
    32   15   35 1    
    33   15   36 1    
    34   16   17 1    
    35   16   37 1    
    36   16   38 1    
    37   17   18 1    
    38   17   20 1    
    39   17   39 1    
    40   18   19 1    
    41   18   40 1    
    42   18   41 1    
    43   19   42 1    
    44   19   43 1    
    45   20   44 1    
@<TRIPOS>SUBSTRUCTURE
     1 UNK         1 GROUP             0       ****    0 ROOT    
