@<TRIPOS>MOLECULE
ZINC43218760_2732
61   65    1
SMALL
USER_CHARGES


@<TRIPOS>ATOM
      1 C1         -2.5960   52.7368   24.0005 C.3       1 UNK         0.0000 
      2 O2         -1.3649   52.7373   23.2834 O.3       1 UNK         0.0000 
      3 C3         -0.9503   51.5686   22.6706 C.ar      1 UNK         0.0000 
      4 C4         -1.7626   50.4216   22.5882 C.ar      1 UNK         0.0000 
      5 C5         -1.3047   49.2603   21.9735 C.ar      1 UNK         0.0000 
      6 C6         -0.0262   49.2257   21.4318 C.ar      1 UNK         0.0000 
      7 C7          0.7910   50.3481   21.5089 C.ar      1 UNK         0.0000 
      8 C8          0.3420   51.5335   22.1127 C.ar      1 UNK         0.0000 
      9 C9          1.2590   52.7654   22.1899 C.3       1 UNK         0.0000 
     10 H10         0.7044   53.6960   22.1591 H         1 UNK         0.0000 
     11 C11         2.2820   52.8222   23.3109 C.3       1 UNK         0.0000 
     12 H12         2.6987   51.8152   23.3966 H         1 UNK         0.0000 
     13 C13         3.1998   53.8732   22.8175 C.3       1 UNK         0.0000 
     14 H14         2.7307   54.8457   22.6260 H         1 UNK         0.0000 
     15 C15         4.0450   54.0970   24.0670 C.2       1 UNK         0.0000 
     16 O16         5.1943   54.5329   24.0977 O.2       1 UNK         0.0000 
     17 N17         3.1992   53.8521   25.1214 N.am      1 UNK         0.0000 
     18 C18         2.0259   53.2529   24.7350 C.2       1 UNK         0.0000 
     19 O19         1.0275   52.9656   25.3902 O.2       1 UNK         0.0000 
     20 C20         3.5697   54.2329   26.5180 C.3       1 UNK         0.0000 
     21 C21         2.4524   54.2543   27.6076 C.3       1 UNK         0.0000 
     22 C22         2.9129   54.7798   28.9811 C.3       1 UNK         0.0000 
     23 C23         4.1759   54.0656   29.4830 C.3       1 UNK         0.0000 
     24 C24         5.3050   54.1601   28.4495 C.3       1 UNK         0.0000 
     25 C25         4.8807   53.6007   27.0771 C.3       1 UNK         0.0000 
     26 C26         3.6248   53.3175   21.4231 C.3       1 UNK         0.0000 
     27 N27         2.1922   52.8964   20.9474 N.4       1 UNK         0.0000 
     28 C28         4.3138   54.2865   20.4205 C.ar      1 UNK         0.0000 
     29 C29         5.4582   54.9988   20.8172 C.ar      1 UNK         0.0000 
     30 C30         6.1382   55.8207   19.9235 C.ar      1 UNK         0.0000 
     31 C31         5.6851   55.9368   18.6136 C.ar      1 UNK         0.0000 
     32 C32         4.5744   55.2166   18.1863 C.ar      1 UNK         0.0000 
     33 C33         3.9045   54.3840   19.0789 C.ar      1 UNK         0.0000 
     34 C34         4.4773   52.0281   21.3930 C.2       1 UNK         0.0000 
     35 O35         5.5045   52.0959   22.0815 O.co2     1 UNK         0.0000 
     36 O36         4.0955   51.0030   20.7862 O.co2     1 UNK         0.0000 
     37 H37        -2.7437   53.6967   24.4845 H         1 UNK         0.0000 
     38 H38        -3.4461   52.5769   23.3372 H         1 UNK         0.0000 
     39 H39        -2.6004   51.9764   24.7838 H         1 UNK         0.0000 
     40 H40        -2.7588   50.4042   23.0009 H         1 UNK         0.0000 
     41 H41        -1.9397   48.3880   21.9212 H         1 UNK         0.0000 
     42 H42         0.3366   48.3264   20.9562 H         1 UNK         0.0000 
     43 H43         1.7778   50.2683   21.0890 H         1 UNK         0.0000 
     44 H44         3.8131   55.2903   26.4055 H         1 UNK         0.0000 
     45 H45         1.6006   54.8496   27.2826 H         1 UNK         0.0000 
     46 H46         2.0824   53.2387   27.7530 H         1 UNK         0.0000 
     47 H47         3.1017   55.8498   28.9128 H         1 UNK         0.0000 
     48 H48         2.1080   54.6643   29.7064 H         1 UNK         0.0000 
     49 H49         4.5046   54.4959   30.4290 H         1 UNK         0.0000 
     50 H50         3.9506   53.0175   29.6854 H         1 UNK         0.0000 
     51 H51         5.6116   55.2036   28.3402 H         1 UNK         0.0000 
     52 H52         6.1847   53.6262   28.8120 H         1 UNK         0.0000 
     53 H53         4.7451   52.5229   27.1677 H         1 UNK         0.0000 
     54 H54         5.7158   53.7408   26.3931 H         1 UNK         0.0000 
     55 H55         2.2751   52.0288   20.4310 H         1 UNK         0.0000 
     56 H56         5.8473   54.9017   21.8163 H         1 UNK         0.0000 
     57 H57         7.0190   56.3566   20.2425 H         1 UNK         0.0000 
     58 H58         6.2097   56.5753   17.9177 H         1 UNK         0.0000 
     59 H59         4.2416   55.2920   17.1610 H         1 UNK         0.0000 
     60 H60         3.0674   53.8150   18.7062 H         1 UNK         0.0000 
     61 H61         1.8214   53.6097   20.3281 H         1 UNK         0.0000 
@<TRIPOS>BOND
     1    1    2 1    
     2    1   37 1    
     3    1   38 1    
     4    1   39 1    
     5    2    3 1    
     6    3    8 ar   
     7    3    4 ar   
     8    4    5 ar   
     9    4   40 1    
    10    5    6 ar   
    11    5   41 1    
    12    6    7 ar   
    13    6   42 1    
    14    7    8 ar   
    15    7   43 1    
    16    8    9 1    
    17    9   10 1    
    18    9   27 1    
    19    9   11 1    
    20   11   12 1    
    21   11   18 1    
    22   11   13 1    
    23   13   14 1    
    24   13   15 1    
    25   13   26 1    
    26   15   16 2    
    27   15   17 am   BACKBONE|DICT|INTERRES
    28   17   18 am   BACKBONE|DICT|INTERRES
    29   17   20 1    
    30   18   19 2    
    31   20   25 1    
    32   20   21 1    
    33   20   44 1    
    34   21   22 1    
    35   21   45 1    
    36   21   46 1    
    37   22   23 1    
    38   22   47 1    
    39   22   48 1    
    40   23   24 1    
    41   23   49 1    
    42   23   50 1    
    43   24   25 1    
    44   24   51 1    
    45   24   52 1    
    46   25   53 1    
    47   25   54 1    
    48   26   27 1    
    49   26   28 1    
    50   26   34 1    
    51   27   55 1    
    52   27   61 1    
    53   28   33 ar   
    54   28   29 ar   
    55   29   30 ar   
    56   29   56 1    
    57   30   31 ar   
    58   30   57 1    
    59   31   32 ar   
    60   31   58 1    
    61   32   33 ar   
    62   32   59 1    
    63   33   60 1    
    64   34   35 2    
    65   34   36 1    
@<TRIPOS>SUBSTRUCTURE
     1 UNK         1 GROUP             0       ****    0 ROOT    
