@<TRIPOS>MOLECULE
ZINC39666228_1286
70   73    1
SMALL
USER_CHARGES


@<TRIPOS>ATOM
      1 C1          6.3333   55.0541   22.1319 C.3       1 UNK         0.0000 
      2 C2          5.3846   54.1252   21.3975 C.ar      1 UNK         0.0000 
      3 C3          5.1006   52.8768   21.9455 C.ar      1 UNK         0.0000 
      4 C4          4.2445   52.0044   21.2798 C.ar      1 UNK         0.0000 
      5 C5          3.6407   52.3843   20.0838 C.ar      1 UNK         0.0000 
      6 C6          3.9432   53.6308   19.5223 C.ar      1 UNK         0.0000 
      7 C7          4.8179   54.4969   20.1766 C.ar      1 UNK         0.0000 
      8 O8          2.7821   51.4717   19.5082 O.3       1 UNK         0.0000 
      9 C9          1.6088   51.9387   18.8335 C.3       1 UNK         0.0000 
     10 H10         1.5299   53.0272   18.8173 H         1 UNK         0.0000 
     11 C11         1.6659   51.4200   17.3906 C.3       1 UNK         0.0000 
     12 C12         0.3968   51.4010   19.6216 C.3       1 UNK         0.0000 
     13 N13         0.4912   51.7970   21.0242 N.am      1 UNK         0.0000 
     14 C14        -0.5095   52.0965   21.8662 C.2       1 UNK         0.0000 
     15 O15        -1.6925   52.0406   21.5319 O.2       1 UNK         0.0000 
     16 C16        -0.1587   52.5518   23.3102 C.3       1 UNK         0.0000 
     17 H17        -0.8277   53.3803   23.5457 H         1 UNK         0.0000 
     18 C18         1.2673   53.1446   23.3738 C.3       1 UNK         0.0000 
     19 N19         1.6346   52.9908   24.7802 N.am      1 UNK         0.0000 
     20 C20         0.7001   52.1140   25.5015 C.3       1 UNK         0.0000 
     21 C21        -0.1915   51.4584   24.4101 C.3       1 UNK         0.0000 
     22 C22         0.3961   50.0849   23.9448 C.3       1 UNK         0.0000 
     23 C23         0.4405   49.0338   25.0799 C.3       1 UNK         0.0000 
     24 N24        -0.9726   48.8754   25.6818 N.4       1 UNK         0.0000 
     25 C25        -1.6529   50.2020   26.0822 C.3       1 UNK         0.0000 
     26 C26        -1.6367   51.1450   24.8665 C.3       1 UNK         0.0000 
     27 C27         2.6661   53.6966   25.3148 C.2       1 UNK         0.0000 
     28 O28         3.3251   54.4818   24.6267 O.2       1 UNK         0.0000 
     29 C29         3.0488   53.5078   26.8090 C.3       1 UNK         0.0000 
     30 H30         2.7687   52.4877   27.0595 H         1 UNK         0.0000 
     31 C31         2.2600   54.5217   27.6720 C.3       1 UNK         0.0000 
     32 C32         2.4848   54.2248   29.1716 C.3       1 UNK         0.0000 
     33 C33         3.9717   54.0562   29.4582 C.2       1 UNK         0.0000 
     34 C34         4.9040   53.8490   28.5059 C.2       1 UNK         0.0000 
     35 C35         4.5847   53.6917   27.0237 C.3       1 UNK         0.0000 
     36 H36         6.5141   55.9804   21.5840 H         1 UNK         0.0000 
     37 H37         7.2922   54.5597   22.2980 H         1 UNK         0.0000 
     38 H38         5.9270   55.2954   23.1155 H         1 UNK         0.0000 
     39 H39         5.5492   52.5803   22.8815 H         1 UNK         0.0000 
     40 H40         4.0269   51.0335   21.6971 H         1 UNK         0.0000 
     41 H41         3.5194   53.9289   18.5757 H         1 UNK         0.0000 
     42 H42         5.0516   55.4527   19.7311 H         1 UNK         0.0000 
     43 H43         0.7915   51.7280   16.8172 H         1 UNK         0.0000 
     44 H44         2.5506   51.8016   16.8790 H         1 UNK         0.0000 
     45 H45         1.7265   50.3309   17.3607 H         1 UNK         0.0000 
     46 H46        -0.5285   51.7576   19.1651 H         1 UNK         0.0000 
     47 H47         0.3714   50.3112   19.5754 H         1 UNK         0.0000 
     48 H48         1.4390   51.8443   21.3685 H         1 UNK         0.0000 
     49 H49         1.9858   52.5308   22.8311 H         1 UNK         0.0000 
     50 H50         1.2799   54.1800   23.0257 H         1 UNK         0.0000 
     51 H51         0.0643   52.7754   26.0924 H         1 UNK         0.0000 
     52 H52         1.1263   51.4038   26.2059 H         1 UNK         0.0000 
     53 H53        -0.1548   49.6795   23.0947 H         1 UNK         0.0000 
     54 H54         1.4156   50.2263   23.5813 H         1 UNK         0.0000 
     55 H55         0.7044   48.0396   24.7194 H         1 UNK         0.0000 
     56 H56         1.1037   49.2908   25.9057 H         1 UNK         0.0000 
     57 H57        -1.5683   48.3745   25.0385 H         1 UNK         0.0000 
     58 H58        -2.6613   49.9354   26.4033 H         1 UNK         0.0000 
     59 H59        -1.1054   50.5837   26.9464 H         1 UNK         0.0000 
     60 H60        -2.1264   52.0722   25.1685 H         1 UNK         0.0000 
     61 H61        -2.2415   50.7570   24.0442 H         1 UNK         0.0000 
     62 H62         2.6459   55.5307   27.5095 H         1 UNK         0.0000 
     63 H63         1.1823   54.4623   27.5107 H         1 UNK         0.0000 
     64 H64         1.9430   53.3298   29.4811 H         1 UNK         0.0000 
     65 H65         2.0791   55.0436   29.7677 H         1 UNK         0.0000 
     66 H66         4.3054   54.1262   30.4821 H         1 UNK         0.0000 
     67 H67         5.9365   53.7740   28.8201 H         1 UNK         0.0000 
     68 H68         5.1539   52.8888   26.5584 H         1 UNK         0.0000 
     69 H69         4.9406   54.6140   26.5599 H         1 UNK         0.0000 
     70 H70        -0.9245   48.3156   26.5366 H         1 UNK         0.0000 
@<TRIPOS>BOND
     1    1    2 1    
     2    1   36 1    
     3    1   37 1    
     4    1   38 1    
     5    2    7 ar   
     6    2    3 ar   
     7    3    4 ar   
     8    3   39 1    
     9    4    5 ar   
    10    4   40 1    
    11    5    6 ar   
    12    5    8 1    
    13    6    7 ar   
    14    6   41 1    
    15    7   42 1    
    16    8    9 1    
    17    9   10 1    
    18    9   11 1    
    19    9   12 1    
    20   11   43 1    
    21   11   44 1    
    22   11   45 1    
    23   12   13 1    
    24   12   46 1    
    25   12   47 1    
    26   13   14 am   BACKBONE|DICT|INTERRES
    27   13   48 1    
    28   14   15 2    
    29   14   16 1    
    30   16   17 1    
    31   16   21 1    
    32   16   18 1    
    33   18   19 1    
    34   18   49 1    
    35   18   50 1    
    36   19   20 1    
    37   19   27 am   BACKBONE|DICT|INTERRES
    38   20   21 1    
    39   20   51 1    
    40   20   52 1    
    41   21   26 1    
    42   21   22 1    
    43   22   23 1    
    44   22   53 1    
    45   22   54 1    
    46   23   24 1    
    47   23   55 1    
    48   23   56 1    
    49   24   25 1    
    50   24   57 1    
    51   24   70 1    
    52   25   26 1    
    53   25   58 1    
    54   25   59 1    
    55   26   60 1    
    56   26   61 1    
    57   27   28 2    
    58   27   29 1    
    59   29   30 1    
    60   29   35 1    
    61   29   31 1    
    62   31   32 1    
    63   31   62 1    
    64   31   63 1    
    65   32   33 1    
    66   32   64 1    
    67   32   65 1    
    68   33   34 2    
    69   33   66 1    
    70   34   35 1    
    71   34   67 1    
    72   35   68 1    
    73   35   69 1    
@<TRIPOS>SUBSTRUCTURE
     1 UNK         1 GROUP             0       ****    0 ROOT    
