ZINC28396934_5338
                    3D
 Schrodinger Suite 2024-2.
 75 79  0  0  1  0            999 V2000
   -5.0867   45.8356   26.5208 C   0  0  0  0  0  0
   -3.6457   45.9102   27.0421 C   0  0  0  0  0  0
   -2.8919   47.0285   26.4811 N   0  0  0  0  0  0
   -2.3063   47.0422   25.2705 C   0  0  0  0  0  0
   -2.3593   46.0970   24.4819 O   0  0  0  0  0  0
   -1.5345   48.2854   24.9104 C   0  0  0  0  0  0
   -2.1300   49.5526   24.9691 C   0  0  0  0  0  0
   -1.4067   50.6846   24.5877 C   0  0  0  0  0  0
   -0.0717   50.5683   24.1793 C   0  0  0  0  0  0
    0.5185   49.3060   24.1339 C   0  0  0  0  0  0
   -0.2081   48.1737   24.4829 C   0  0  0  0  0  0
    0.7581   51.7567   23.8398 C   0  0  0  0  0  0
    0.9577   52.1059   22.5295 C   0  0  0  0  0  0
    1.8008   53.2961   22.0066 C   0  0  0  0  0  0
    2.7422   52.8901   20.8314 C   0  0  1  0  0  0
    3.3229   53.7471   20.4813 H   0  0  0  0  0  0
    3.5985   51.6291   21.0617 C   0  0  0  0  0  0
    2.6966   50.4407   20.6859 C   0  0  0  0  0  0
    1.3733   51.0728   20.2079 C   0  0  1  0  0  0
    0.9155   50.5323   19.3756 H   0  0  0  0  0  0
    0.3402   51.3294   21.3415 C   0  0  0  0  0  0
    1.8171   52.4543   19.6866 N   0  3  2  0  0  0
    2.4571   52.4404   18.2756 C   0  0  0  0  0  0
    1.4842   52.1777   17.1350 C   0  0  0  0  0  0
    1.9012   51.4817   15.9963 C   0  0  0  0  0  0
    0.9786   51.2619   14.9716 C   0  0  0  0  0  0
   -0.3260   51.7425   15.1043 C   0  0  0  0  0  0
   -0.6650   52.4309   16.2714 C   0  0  0  0  0  0
    0.2156   52.6514   17.2813 N   0  0  0  0  0  0
    1.3611   52.4486   25.0292 C   0  0  0  0  0  0
    2.6300   53.0280   24.9537 C   0  0  0  0  0  0
    3.1893   53.7043   26.0182 C   0  0  0  0  0  0
    2.5619   53.6937   27.2634 C   0  0  0  0  0  0
    1.2980   53.1077   27.3769 C   0  0  0  0  0  0
    0.7056   52.4971   26.2722 C   0  0  0  0  0  0
    3.2419   54.2776   28.4789 C   0  0  0  0  0  0
    2.5566   54.8503   29.3313 O   0  0  0  0  0  0
    4.5920   54.1464   28.6024 N   0  0  0  0  0  0
    5.4684   53.2446   27.8367 C   0  0  0  0  0  0
    5.2915   54.8198   29.6818 C   0  0  0  0  0  0
   -5.6132   44.9880   26.9601 H   0  0  0  0  0  0
   -5.1126   45.7122   25.4379 H   0  0  0  0  0  0
   -5.6448   46.7363   26.7787 H   0  0  0  0  0  0
   -3.6587   46.0303   28.1268 H   0  0  0  0  0  0
   -3.1250   44.9679   26.8589 H   0  0  0  0  0  0
   -2.5327   47.6985   27.1649 H   0  0  0  0  0  0
   -3.1530   49.6639   25.2989 H   0  0  0  0  0  0
   -1.8771   51.6562   24.6354 H   0  0  0  0  0  0
    1.5493   49.2062   23.8317 H   0  0  0  0  0  0
    0.2809   47.2126   24.4519 H   0  0  0  0  0  0
    1.1040   54.0445   21.6817 H   0  0  0  0  0  0
    2.3413   53.9039   22.7129 H   0  0  0  0  0  0
    4.4758   51.6466   20.4106 H   0  0  0  0  0  0
    3.9669   51.5675   22.0813 H   0  0  0  0  0  0
    3.1485   49.8621   19.8770 H   0  0  0  0  0  0
    2.5456   49.7536   21.5197 H   0  0  0  0  0  0
   -0.0840   50.3722   21.6402 H   0  0  0  0  0  0
   -0.4982   51.9039   20.9445 H   0  0  0  0  0  0
    2.9160   53.4220   18.1487 H   0  0  0  0  0  0
    3.2569   51.6971   18.2927 H   0  0  0  0  0  0
    2.9126   51.1069   15.9096 H   0  0  0  0  0  0
    1.2745   50.7191   14.0859 H   0  0  0  0  0  0
   -1.0545   51.5856   14.3208 H   0  0  0  0  0  0
   -1.6623   52.8206   16.4110 H   0  0  0  0  0  0
    3.2668   52.8974   24.0982 H   0  0  0  0  0  0
    4.1549   54.1660   25.8727 H   0  0  0  0  0  0
    0.7777   53.0998   28.3244 H   0  0  0  0  0  0
   -0.2661   52.0534   26.4166 H   0  0  0  0  0  0
    6.1202   52.6681   28.4886 H   0  0  0  0  0  0
    6.1096   53.8190   27.1677 H   0  0  0  0  0  0
    4.9276   52.5036   27.2510 H   0  0  0  0  0  0
    6.3410   54.5198   29.6816 H   0  0  0  0  0  0
    4.8348   54.4967   30.6163 H   0  0  0  0  0  0
    5.2376   55.9028   29.6818 H   0  0  0  0  0  0
    1.0303   53.0881   19.6545 H   0  0  0  0  0  0
  1  2  1  0  0  0
  1 41  1  0  0  0
  1 42  1  0  0  0
  1 43  1  0  0  0
  2  3  1  0  0  0
  2 44  1  0  0  0
  2 45  1  0  0  0
  3  4  1  0  0  0
  3 46  1  0  0  0
  4  5  2  0  0  0
  4  6  1  0  0  0
  6 11  2  0  0  0
  6  7  1  0  0  0
  7  8  2  0  0  0
  7 47  1  0  0  0
  8  9  1  0  0  0
  8 48  1  0  0  0
  9 10  2  0  0  0
  9 12  1  0  0  0
 10 11  1  0  0  0
 10 49  1  0  0  0
 11 50  1  0  0  0
 12 13  2  0  0  0
 12 30  1  0  0  0
 13 21  1  0  0  0
 13 14  1  0  0  0
 14 15  1  0  0  0
 14 51  1  0  0  0
 14 52  1  0  0  0
 15 16  1  0  0  0
 15 22  1  0  0  0
 15 17  1  0  0  0
 17 18  1  0  0  0
 17 53  1  0  0  0
 17 54  1  0  0  0
 18 19  1  0  0  0
 18 55  1  0  0  0
 18 56  1  0  0  0
 19 20  1  0  0  0
 19 21  1  0  0  0
 19 22  1  0  0  0
 21 57  1  0  0  0
 21 58  1  0  0  0
 22 23  1  0  0  0
 22 75  1  0  0  0
 23 24  1  0  0  0
 23 59  1  0  0  0
 23 60  1  0  0  0
 24 29  2  0  0  0
 24 25  1  0  0  0
 25 26  2  0  0  0
 25 61  1  0  0  0
 26 27  1  0  0  0
 26 62  1  0  0  0
 27 28  2  0  0  0
 27 63  1  0  0  0
 28 29  1  0  0  0
 28 64  1  0  0  0
 30 35  2  0  0  0
 30 31  1  0  0  0
 31 32  2  0  0  0
 31 65  1  0  0  0
 32 33  1  0  0  0
 32 66  1  0  0  0
 33 34  2  0  0  0
 33 36  1  0  0  0
 34 35  1  0  0  0
 34 67  1  0  0  0
 35 68  1  0  0  0
 36 37  2  0  0  0
 36 38  1  0  0  0
 38 39  1  0  0  0
 38 40  1  0  0  0
 39 69  1  0  0  0
 39 70  1  0  0  0
 39 71  1  0  0  0
 40 72  1  0  0  0
 40 73  1  0  0  0
 40 74  1  0  0  0
M  CHG  1  22   1
M  END
> <i_i_glide_confnum>
121

> <i_i_glide_lignum>
5339

> <i_i_glide_posenum>
316

> <i_i_glide_rotatable_bonds>
9

> <i_m_Source_File_Index>
4161

> <b_m_subgroup_collapsed>
0

> <r_i_docking_score>
-4.36517

> <r_i_glide_ecoul>
-9.01053

> <r_i_glide_eff_state_penalty>
0

> <r_i_glide_einternal>
7.0194

> <r_i_glide_emodel>
-49.4512

> <r_i_glide_energy>
-39.6912

> <r_i_glide_erotb>
0.551942

> <r_i_glide_esite>
-0.221842

> <r_i_glide_evdw>
-30.6806

> <r_i_glide_gscore>
-4.36517

> <r_i_glide_hbond>
-0.179367

> <r_i_glide_ligand_efficiency>
-0.114873

> <r_i_glide_ligand_efficiency_ln>
-0.94126

> <r_i_glide_ligand_efficiency_sa>
-0.3862

> <r_i_glide_lipo>
-1.33087

> <r_i_glide_metal>
0

> <r_i_glide_rewards>
-0.299428

> <s_i_glide_gridfile>
wee1_glide-grid

> <s_m_Source_File>
wee1_decoys_glide_SP.sdf

> <s_m_Source_Path>
/Users/zhangxujun/Desktop

> <s_m_entry_id>
4436

> <s_m_entry_name>
wee1_decoys_glide_SP.4161

> <s_m_subgroup_title>
wee1_decoys_glide_SP

> <s_m_subgroupid>
wee1_decoys_glide_SP


$$$$
