@<TRIPOS>MOLECULE
ZINC38678932_6007
54   57    1
SMALL
USER_CHARGES


@<TRIPOS>ATOM
      1 C1          1.7304   53.1400   22.8284 C.3       1 UNK         0.0000 
      2 C2          1.1663   53.8123   24.0819 C.3       1 UNK         0.0000 
      3 C3          1.9860   53.5613   25.3568 C.3       1 UNK         0.0000 
      4 O4          3.3214   54.0360   25.2029 O.3       1 UNK         0.0000 
      5 C5          4.1879   54.0123   26.2863 C.ar      1 UNK         0.0000 
      6 C6          3.7751   53.6209   27.5755 C.ar      1 UNK         0.0000 
      7 C7          4.6555   53.6446   28.6526 C.ar      1 UNK         0.0000 
      8 C8          5.9644   54.0653   28.4623 C.ar      1 UNK         0.0000 
      9 C9          6.3969   54.4485   27.2009 C.ar      1 UNK         0.0000 
     10 C10         5.5308   54.4123   26.0999 C.ar      1 UNK         0.0000 
     11 C11         6.0852   54.8434   24.7800 C.2       1 UNK         0.0000 
     12 O12         6.9701   55.6965   24.7006 O.2       1 UNK         0.0000 
     13 O13         5.5931   54.0963   23.7382 O.3       1 UNK         0.0000 
     14 C14         5.7693   54.3471   22.3844 C.ar      1 UNK         0.0000 
     15 C15         5.1043   53.4719   21.5195 C.ar      1 UNK         0.0000 
     16 C16         5.1127   53.6670   20.1383 C.ar      1 UNK         0.0000 
     17 C17         5.8110   54.7384   19.5736 C.ar      1 UNK         0.0000 
     18 C18         6.4792   55.6215   20.4403 C.ar      1 UNK         0.0000 
     19 C19         6.4929   55.4101   21.8164 C.ar      1 UNK         0.0000 
     20 O20         7.1002   56.7668   19.9743 O.3       1 UNK         0.0000 
     21 C21         6.7225   57.2354   18.7562 C.2       1 UNK         0.0000 
     22 C22         6.1069   56.4879   17.8165 C.2       1 UNK         0.0000 
     23 C23         5.8322   55.0018   18.0612 C.3       1 UNK         0.0000 
     24 H24         4.8275   54.8005   17.6928 H         1 UNK         0.0000 
     25 C25         6.8263   54.0785   17.3406 C.ar      1 UNK         0.0000 
     26 C26         8.1754   54.0964   17.7286 C.ar      1 UNK         0.0000 
     27 C27         9.1072   53.2563   17.1225 C.ar      1 UNK         0.0000 
     28 C28         8.7044   52.3877   16.1118 C.ar      1 UNK         0.0000 
     29 C29         7.3722   52.3687   15.7042 C.ar      1 UNK         0.0000 
     30 C30         6.4317   53.2055   16.3083 C.ar      1 UNK         0.0000 
     31 Br31        4.6318   53.1071   15.6808 Br        1 UNK         0.0000 
     32 C32         5.7502   57.0450   16.5524 C.1       1 UNK         0.0000 
     33 N33         5.4654   57.4702   15.5156 N.1       1 UNK         0.0000 
     34 N34         7.1021   58.5466   18.6585 N.pl3     1 UNK         0.0000 
     35 H35         1.0494   53.2439   21.9835 H         1 UNK         0.0000 
     36 H36         2.6633   53.6179   22.5440 H         1 UNK         0.0000 
     37 H37         1.9171   52.0771   22.9832 H         1 UNK         0.0000 
     38 H38         0.1437   53.4698   24.2438 H         1 UNK         0.0000 
     39 H39         1.1045   54.8859   23.9044 H         1 UNK         0.0000 
     40 H40         1.9892   52.4973   25.5993 H         1 UNK         0.0000 
     41 H41         1.5044   54.0903   26.1793 H         1 UNK         0.0000 
     42 H42         2.7681   53.2890   27.7714 H         1 UNK         0.0000 
     43 H43         4.3222   53.3391   29.6334 H         1 UNK         0.0000 
     44 H44         6.6639   54.0967   29.2816 H         1 UNK         0.0000 
     45 H45         7.4253   54.7617   27.0952 H         1 UNK         0.0000 
     46 H46         4.5622   52.6297   21.9236 H         1 UNK         0.0000 
     47 H47         4.5856   52.9720   19.4984 H         1 UNK         0.0000 
     48 H48         7.0308   56.1191   22.4192 H         1 UNK         0.0000 
     49 H49         8.5069   54.7577   18.5161 H         1 UNK         0.0000 
     50 H50        10.1386   53.2710   17.4447 H         1 UNK         0.0000 
     51 H51         9.4229   51.7300   15.6444 H         1 UNK         0.0000 
     52 H52         7.0619   51.6938   14.9199 H         1 UNK         0.0000 
     53 H53         6.7048   59.1566   17.9535 H         1 UNK         0.0000 
     54 H54         7.9123   58.8856   19.1541 H         1 UNK         0.0000 
@<TRIPOS>BOND
     1    1    2 1    
     2    1   35 1    
     3    1   36 1    
     4    1   37 1    
     5    2    3 1    
     6    2   38 1    
     7    2   39 1    
     8    3    4 1    
     9    3   40 1    
    10    3   41 1    
    11    4    5 1    
    12    5   10 ar   
    13    5    6 ar   
    14    6    7 ar   
    15    6   42 1    
    16    7    8 ar   
    17    7   43 1    
    18    8    9 ar   
    19    8   44 1    
    20    9   10 ar   
    21    9   45 1    
    22   10   11 1    
    23   11   12 2    
    24   11   13 1    
    25   13   14 1    
    26   14   19 ar   
    27   14   15 ar   
    28   15   16 ar   
    29   15   46 1    
    30   16   17 ar   
    31   16   47 1    
    32   17   23 1    
    33   17   18 ar   
    34   18   19 ar   
    35   18   20 1    
    36   19   48 1    
    37   20   21 1    
    38   21   22 2    
    39   21   34 1    
    40   22   23 1    
    41   22   32 1    
    42   23   24 1    
    43   23   25 1    
    44   25   30 ar   
    45   25   26 ar   
    46   26   27 ar   
    47   26   49 1    
    48   27   28 ar   
    49   27   50 1    
    50   28   29 ar   
    51   28   51 1    
    52   29   30 ar   
    53   29   52 1    
    54   30   31 1    
    55   32   33 3    
    56   34   53 1    
    57   34   54 1    
@<TRIPOS>SUBSTRUCTURE
     1 UNK         1 GROUP             0       ****    0 ROOT    
