@<TRIPOS>MOLECULE
ZINC02250010_5670
51   55    1
SMALL
USER_CHARGES


@<TRIPOS>ATOM
      1 C1          9.2445   53.6671   15.7522 C.ar      1 UNK         0.0000 
      2 C2          8.2865   54.6638   15.5790 C.ar      1 UNK         0.0000 
      3 C3          8.0502   55.5800   16.6030 C.ar      1 UNK         0.0000 
      4 C4          8.7827   55.5013   17.7931 C.ar      1 UNK         0.0000 
      5 C5          9.7384   54.4971   17.9580 C.ar      1 UNK         0.0000 
      6 C6          9.9697   53.5776   16.9396 C.ar      1 UNK         0.0000 
      7 C7          8.5176   56.4843   18.9294 C.3       1 UNK         0.0000 
      8 C8          7.2737   56.0980   19.7476 C.2       1 UNK         0.0000 
      9 O9          6.1922   56.2499   19.1690 O.2       1 UNK         0.0000 
     10 N10         7.5041   55.6978   20.9919 N.2       1 UNK         0.0000 
     11 C11         6.5915   55.2007   21.7348 C.ar      1 UNK         0.0000 
     12 N12         5.3910   54.8191   21.4645 N.2       1 UNK         0.0000 
     13 N13         4.8570   54.2724   22.6110 N.pl3     1 UNK         0.0000 
     14 C14         3.4121   54.0032   22.7490 C.3       1 UNK         0.0000 
     15 H15         2.8902   54.8976   22.4011 H         1 UNK         0.0000 
     16 C16         3.0514   53.8211   24.2370 C.2       1 UNK         0.0000 
     17 C17         3.9866   53.9807   25.2217 C.2       1 UNK         0.0000 
     18 N18         5.2851   54.3755   24.9645 N.2       1 UNK         0.0000 
     19 C19         5.6422   54.4947   23.7394 C.ar      1 UNK         0.0000 
     20 N20         6.8236   54.9453   23.1254 N.pl3     1 UNK         0.0000 
     21 C21         3.6528   53.7245   26.6585 C.ar      1 UNK         0.0000 
     22 C22         2.3195   53.7406   27.1061 C.ar      1 UNK         0.0000 
     23 C23         1.9927   53.3883   28.4104 C.ar      1 UNK         0.0000 
     24 C24         2.9970   53.0051   29.2887 C.ar      1 UNK         0.0000 
     25 C25         4.3273   53.0092   28.8842 C.ar      1 UNK         0.0000 
     26 C26         4.6518   53.3717   27.5814 C.ar      1 UNK         0.0000 
     27 Cl27        2.5847   52.4966   30.8817 Cl        1 UNK         0.0000 
     28 C28         2.8333   52.8646   21.8919 C.ar      1 UNK         0.0000 
     29 C29         1.4522   52.6229   21.9320 C.ar      1 UNK         0.0000 
     30 C30         0.8894   51.5925   21.1847 C.ar      1 UNK         0.0000 
     31 C31         1.7046   50.7985   20.3839 C.ar      1 UNK         0.0000 
     32 C32         3.0748   51.0345   20.3210 C.ar      1 UNK         0.0000 
     33 C33         3.6397   52.0627   21.0725 C.ar      1 UNK         0.0000 
     34 F34         1.1604   49.7944   19.6616 F         1 UNK         0.0000 
     35 H35         9.4245   52.9527   14.9614 H         1 UNK         0.0000 
     36 H36         7.7244   54.7230   14.6585 H         1 UNK         0.0000 
     37 H37         7.2988   56.3446   16.4754 H         1 UNK         0.0000 
     38 H38        10.2989   54.4267   18.8781 H         1 UNK         0.0000 
     39 H39        10.7037   52.7956   17.0725 H         1 UNK         0.0000 
     40 H40         9.4022   56.5691   19.5643 H         1 UNK         0.0000 
     41 H41         8.3504   57.4792   18.5102 H         1 UNK         0.0000 
     42 H42         2.0455   53.5282   24.4821 H         1 UNK         0.0000 
     43 H43         7.6827   55.1669   23.6085 H         1 UNK         0.0000 
     44 H44         1.5101   54.0185   26.4484 H         1 UNK         0.0000 
     45 H45         0.9607   53.3918   28.7289 H         1 UNK         0.0000 
     46 H46         5.0998   52.6981   29.5694 H         1 UNK         0.0000 
     47 H47         5.6876   53.3301   27.2737 H         1 UNK         0.0000 
     48 H48         0.8113   53.2384   22.5447 H         1 UNK         0.0000 
     49 H49        -0.1726   51.4046   21.2228 H         1 UNK         0.0000 
     50 H50         3.6899   50.4215   19.6819 H         1 UNK         0.0000 
     51 H51         4.7047   52.2304   21.0033 H         1 UNK         0.0000 
@<TRIPOS>BOND
     1    1    6 ar   
     2    1    2 ar   
     3    1   35 1    
     4    2    3 ar   
     5    2   36 1    
     6    3    4 ar   
     7    3   37 1    
     8    4    5 ar   
     9    4    7 1    
    10    5    6 ar   
    11    5   38 1    
    12    6   39 1    
    13    7    8 1    
    14    7   40 1    
    15    7   41 1    
    16    8    9 2    
    17    8   10 1    
    18   10   11 1    
    19   11   20 ar   
    20   11   12 ar   
    21   12   13 ar   
    22   13   19 ar   
    23   13   14 1    
    24   14   15 1    
    25   14   16 1    
    26   14   28 1    
    27   16   17 2    
    28   16   42 1    
    29   17   18 1    
    30   17   21 1    
    31   18   19 2    
    32   19   20 ar   
    33   20   43 1    
    34   21   26 ar   
    35   21   22 ar   
    36   22   23 ar   
    37   22   44 1    
    38   23   24 ar   
    39   23   45 1    
    40   24   25 ar   
    41   24   27 1    
    42   25   26 ar   
    43   25   46 1    
    44   26   47 1    
    45   28   33 ar   
    46   28   29 ar   
    47   29   30 ar   
    48   29   48 1    
    49   30   31 ar   
    50   30   49 1    
    51   31   32 ar   
    52   31   34 1    
    53   32   33 ar   
    54   32   50 1    
    55   33   51 1    
@<TRIPOS>SUBSTRUCTURE
     1 UNK         1 GROUP             0       ****    0 ROOT    
