@<TRIPOS>MOLECULE
ZINC64136861_5321
46   47    1
SMALL
USER_CHARGES


@<TRIPOS>ATOM
      1 C1         -2.6676   51.0771   24.9763 C.3       1 UNK         0.0000 
      2 C2         -1.3834   50.3503   25.4364 C.3       1 UNK         0.0000 
      3 C3         -1.5369   48.8413   25.1587 C.3       1 UNK         0.0000 
      4 C4         -0.1653   50.8725   24.6388 C.3       1 UNK         0.0000 
      5 N5         -1.1830   50.4967   26.8817 N.am      1 UNK         0.0000 
      6 C6         -0.9554   51.6049   27.6016 C.2       1 UNK         0.0000 
      7 O7         -0.9158   52.7267   27.1079 O.2       1 UNK         0.0000 
      8 C8         -0.7256   51.3847   29.1013 C.3       1 UNK         0.0000 
      9 S9         -0.3348   52.8753   30.0817 S.3       1 UNK         0.0000 
     10 C10         1.3999   53.0231   29.7243 C.2       1 UNK         0.0000 
     11 C11         1.8363   53.8216   28.5070 C.3       1 UNK         0.0000 
     12 C12         3.1144   53.1469   27.9680 C.3       1 UNK         0.0000 
     13 H13         2.8507   52.1177   27.6996 H         1 UNK         0.0000 
     14 C14         4.1730   53.0195   29.0983 C.3       1 UNK         0.0000 
     15 C15         3.5553   52.3067   30.3385 C.2       1 UNK         0.0000 
     16 N16         2.1812   52.3977   30.5107 N.am      1 UNK         0.0000 
     17 O17         4.3044   51.6970   31.0904 O.2       1 UNK         0.0000 
     18 C18         3.5825   53.6967   26.6200 C.ar      1 UNK         0.0000 
     19 C19         2.7044   53.6171   25.5335 C.ar      1 UNK         0.0000 
     20 C20         3.1358   53.9151   24.2442 C.ar      1 UNK         0.0000 
     21 C21         4.4597   54.3084   24.0281 C.ar      1 UNK         0.0000 
     22 C22         5.3193   54.4820   25.1203 C.ar      1 UNK         0.0000 
     23 C23         4.8827   54.1710   26.4090 C.ar      1 UNK         0.0000 
     24 Br24        7.1044   55.1027   24.8817 Br        1 UNK         0.0000 
     25 O25         4.9113   54.4967   22.7468 O.3       1 UNK         0.0000 
     26 Br26        1.9062   53.7300   22.7994 Br        1 UNK         0.0000 
     27 C27         2.0550   55.2093   28.9389 C.1       1 UNK         0.0000 
     28 N28         2.2196   56.2997   29.2817 N.1       1 UNK         0.0000 
     29 H29        -2.8573   50.9185   23.9142 H         1 UNK         0.0000 
     30 H30        -2.6023   52.1542   25.1331 H         1 UNK         0.0000 
     31 H31        -3.5427   50.7216   25.5217 H         1 UNK         0.0000 
     32 H32        -0.6502   48.2846   25.4690 H         1 UNK         0.0000 
     33 H33        -2.3834   48.4188   25.7029 H         1 UNK         0.0000 
     34 H34        -1.6951   48.6386   24.0991 H         1 UNK         0.0000 
     35 H35         0.7600   50.3968   24.9663 H         1 UNK         0.0000 
     36 H36        -0.2721   50.6760   23.5714 H         1 UNK         0.0000 
     37 H37        -0.0394   51.9489   24.7504 H         1 UNK         0.0000 
     38 H38        -1.2956   49.6211   27.4098 H         1 UNK         0.0000 
     39 H39        -1.6184   50.9213   29.5246 H         1 UNK         0.0000 
     40 H40         0.0877   50.6727   29.2156 H         1 UNK         0.0000 
     41 H41         4.5453   53.9928   29.4192 H         1 UNK         0.0000 
     42 H42         5.0321   52.4379   28.7602 H         1 UNK         0.0000 
     43 H43         1.6945   53.2604   25.6751 H         1 UNK         0.0000 
     44 H44         5.5803   54.2621   27.2283 H         1 UNK         0.0000 
     45 H45         4.2250   54.3342   22.0943 H         1 UNK         0.0000 
     46 H46         1.0550   53.8460   27.7556 H         1 UNK         0.0000 
@<TRIPOS>BOND
     1    1    2 1    
     2    1   29 1    
     3    1   30 1    
     4    1   31 1    
     5    2    3 1    
     6    2    4 1    
     7    2    5 1    
     8    3   32 1    
     9    3   33 1    
    10    3   34 1    
    11    4   35 1    
    12    4   36 1    
    13    4   37 1    
    14    5    6 am   BACKBONE|DICT|INTERRES
    15    5   38 1    
    16    6    7 2    
    17    6    8 1    
    18    8    9 1    
    19    8   39 1    
    20    8   40 1    
    21    9   10 1    
    22   10   16 2    BACKBONE|DICT|INTERRES
    23   10   11 1    
    24   11   12 1    
    25   11   27 1    
    26   11   46 1    
    27   12   13 1    
    28   12   14 1    
    29   12   18 1    
    30   14   15 1    
    31   14   41 1    
    32   14   42 1    
    33   15   16 am   BACKBONE|DICT|INTERRES
    34   15   17 2    
    35   18   23 ar   
    36   18   19 ar   
    37   19   20 ar   
    38   19   43 1    
    39   20   21 ar   
    40   20   26 1    
    41   21   22 ar   
    42   21   25 1    
    43   22   23 ar   
    44   22   24 1    
    45   23   44 1    
    46   25   45 1    
    47   27   28 3    
@<TRIPOS>SUBSTRUCTURE
     1 UNK         1 GROUP             0       ****    0 ROOT    
