@<TRIPOS>MOLECULE
ZINC12814422_2449
61   64    1
SMALL
USER_CHARGES


@<TRIPOS>ATOM
      1 C1          5.1118   54.0185   28.5440 C.3       1 UNK         0.0000 
      2 C2          4.9274   53.7681   27.0375 C.3       1 UNK         0.0000 
      3 H3          5.1041   52.7024   26.8824 H         1 UNK         0.0000 
      4 C4          3.5041   54.1504   26.5739 C.3       1 UNK         0.0000 
      5 C5          3.2230   53.6965   25.1240 C.3       1 UNK         0.0000 
      6 C6          4.4018   54.1117   24.2537 C.2       1 UNK         0.0000 
      7 C7          5.6469   54.5267   24.7476 C.2       1 UNK         0.0000 
      8 C8          6.5145   54.8968   23.7177 C.2       1 UNK         0.0000 
      9 C9          5.9654   54.7935   22.4424 C.2       1 UNK         0.0000 
     10 S10         4.3651   54.0967   22.5134 S.3       1 UNK         0.0000 
     11 C11         6.5614   55.2966   21.2299 C.2       1 UNK         0.0000 
     12 O12         7.5045   56.0864   21.2816 O.2       1 UNK         0.0000 
     13 N13         6.0909   54.7767   20.0810 N.am      1 UNK         0.0000 
     14 C14         6.7134   54.9648   18.7679 C.3       1 UNK         0.0000 
     15 C15         6.2393   53.9560   17.6979 C.3       1 UNK         0.0000 
     16 C16         7.0024   54.0960   16.3640 C.3       1 UNK         0.0000 
     17 N17         7.0854   55.5033   15.9006 N.pl3     1 UNK         0.0000 
     18 C18         7.5435   56.5069   16.8896 C.3       1 UNK         0.0000 
     19 C19         6.7668   56.4136   18.2178 C.3       1 UNK         0.0000 
     20 S20         6.1554   56.0321   14.4886 S.o2      1 UNK         0.0000 
     21 O21         6.0188   54.8953   13.5700 O.2       1 UNK         0.0000 
     22 O22         6.7038   57.3152   14.0334 O.2       1 UNK         0.0000 
     23 C23         4.5208   56.3763   15.1315 C.ar      1 UNK         0.0000 
     24 C24         3.5624   55.3632   15.1533 C.ar      1 UNK         0.0000 
     25 C25         2.2817   55.6307   15.6249 C.ar      1 UNK         0.0000 
     26 C26         1.9574   56.9158   16.0864 C.ar      1 UNK         0.0000 
     27 C27         2.9303   57.9192   16.0818 C.ar      1 UNK         0.0000 
     28 C28         4.2107   57.6521   15.6072 C.ar      1 UNK         0.0000 
     29 N29         0.6877   57.2967   16.5533 N.am      1 UNK         0.0000 
     30 C30        -0.3971   56.5387   16.8124 C.2       1 UNK         0.0000 
     31 O31        -0.4627   55.3151   16.7200 O.2       1 UNK         0.0000 
     32 C32        -1.6277   57.2967   17.2827 C.3       1 UNK         0.0000 
     33 C33         5.9912   54.5603   26.2355 C.3       1 UNK         0.0000 
     34 H34         4.9521   55.0657   28.8027 H         1 UNK         0.0000 
     35 H35         4.4129   53.4222   29.1313 H         1 UNK         0.0000 
     36 H36         6.1180   53.7505   28.8697 H         1 UNK         0.0000 
     37 H37         3.3422   55.2215   26.7055 H         1 UNK         0.0000 
     38 H38         2.7690   53.6826   27.2305 H         1 UNK         0.0000 
     39 H39         2.2892   54.1323   24.7678 H         1 UNK         0.0000 
     40 H40         3.1029   52.6143   25.0979 H         1 UNK         0.0000 
     41 H41         7.5037   55.2882   23.9020 H         1 UNK         0.0000 
     42 H42         5.2050   54.2940   20.0959 H         1 UNK         0.0000 
     43 H43         7.7604   54.6946   18.9377 H         1 UNK         0.0000 
     44 H44         5.1752   54.1063   17.5085 H         1 UNK         0.0000 
     45 H45         6.3408   52.9320   18.0631 H         1 UNK         0.0000 
     46 H46         6.5095   53.4974   15.5971 H         1 UNK         0.0000 
     47 H47         8.0188   53.7069   16.4401 H         1 UNK         0.0000 
     48 H48         8.6151   56.3697   17.0383 H         1 UNK         0.0000 
     49 H49         7.4213   57.5038   16.4640 H         1 UNK         0.0000 
     50 H50         7.2310   57.0899   18.9348 H         1 UNK         0.0000 
     51 H51         5.7508   56.7814   18.0681 H         1 UNK         0.0000 
     52 H52         3.8010   54.3723   14.7931 H         1 UNK         0.0000 
     53 H53         1.5624   54.8281   15.6057 H         1 UNK         0.0000 
     54 H54         2.7052   58.9149   16.4425 H         1 UNK         0.0000 
     55 H55         4.9507   58.4407   15.6026 H         1 UNK         0.0000 
     56 H56         0.6169   58.2772   16.7926 H         1 UNK         0.0000 
     57 H57        -2.5303   56.8632   16.8506 H         1 UNK         0.0000 
     58 H58        -1.5832   58.3487   16.9979 H         1 UNK         0.0000 
     59 H59        -1.6955   57.2368   18.3688 H         1 UNK         0.0000 
     60 H60         6.9805   54.1349   26.4103 H         1 UNK         0.0000 
     61 H61         6.0286   55.5978   26.5704 H         1 UNK         0.0000 
@<TRIPOS>BOND
     1    1    2 1    
     2    1   34 1    
     3    1   35 1    
     4    1   36 1    
     5    2    3 1    
     6    2   33 1    
     7    2    4 1    
     8    4    5 1    
     9    4   37 1    
    10    4   38 1    
    11    5    6 1    
    12    5   39 1    
    13    5   40 1    
    14    6   10 1    
    15    6    7 2    
    16    7    8 1    
    17    7   33 1    
    18    8    9 2    
    19    8   41 1    
    20    9   10 1    
    21    9   11 1    
    22   11   12 2    
    23   11   13 am   BACKBONE|DICT|INTERRES
    24   13   14 1    
    25   13   42 1    
    26   14   19 1    
    27   14   15 1    
    28   14   43 1    
    29   15   16 1    
    30   15   44 1    
    31   15   45 1    
    32   16   17 1    
    33   16   46 1    
    34   16   47 1    
    35   17   18 1    
    36   17   20 1    
    37   18   19 1    
    38   18   48 1    
    39   18   49 1    
    40   19   50 1    
    41   19   51 1    
    42   20   21 2    
    43   20   22 2    
    44   20   23 1    
    45   23   28 ar   
    46   23   24 ar   
    47   24   25 ar   
    48   24   52 1    
    49   25   26 ar   
    50   25   53 1    
    51   26   27 ar   
    52   26   29 1    
    53   27   28 ar   
    54   27   54 1    
    55   28   55 1    
    56   29   30 am   BACKBONE|DICT|INTERRES
    57   29   56 1    
    58   30   31 2    
    59   30   32 1    
    60   32   57 1    
    61   32   58 1    
    62   32   59 1    
    63   33   60 1    
    64   33   61 1    
@<TRIPOS>SUBSTRUCTURE
     1 UNK         1 GROUP             0       ****    0 ROOT    
