ZINC44040075_1379
                    3D
 Schrodinger Suite 2024-2.
 52 55  0  0  1  0            999 V2000
    4.5132   56.3933   16.0717 C   0  0  0  0  0  0
    5.9996   56.8104   16.1571 C   0  0  0  0  0  0
    6.2669   57.9650   15.1652 C   0  0  0  0  0  0
    6.4538   57.1511   17.6099 C   0  0  2  0  0  0
    5.8640   58.0171   17.9237 H   0  0  0  0  0  0
    7.9361   57.5460   17.6728 C   0  0  0  0  0  0
    8.9341   56.5619   17.6073 C   0  0  0  0  0  0
   10.2815   56.9121   17.6825 C   0  0  0  0  0  0
   10.6390   58.2472   17.8379 C   0  0  0  0  0  0
    9.6473   59.2415   17.8896 C   0  0  0  0  0  0
    8.2997   58.8923   17.8142 C   0  0  0  0  0  0
    9.9583   60.5740   18.0816 O   0  0  0  0  0  0
   11.3107   60.9021   17.7492 C   0  0  0  0  0  0
   12.2827   59.8593   18.3540 C   0  0  0  0  0  0
   11.9866   58.5484   17.8602 O   0  0  0  0  0  0
    6.1108   56.0798   18.5611 N   0  0  0  0  0  0
    6.2641   56.1469   19.8934 C   0  0  0  0  0  0
    6.7032   57.1407   20.4766 O   0  0  0  0  0  0
    5.8407   55.0207   20.5025 N   0  0  0  0  0  0
    5.8010   54.8032   21.8879 C   0  0  0  0  0  0
    6.8031   55.2750   22.7395 C   0  0  0  0  0  0
    6.7044   55.0841   24.1115 C   0  0  0  0  0  0
    5.6111   54.4023   24.6574 C   0  0  0  0  0  0
    4.6127   53.9196   23.7965 C   0  0  0  0  0  0
    4.7180   54.0969   22.4165 C   0  0  0  0  0  0
    5.5327   54.1897   26.0596 N   0  0  0  0  0  0
    4.4971   53.7068   26.8248 C   0  0  0  0  0  0
    4.8332   53.6512   28.0885 N   0  0  0  0  0  0
    6.0766   54.0967   28.0565 C   0  0  0  0  0  0
    6.5619   54.4413   26.8850 N   0  0  0  0  0  0
    3.8579   57.1828   16.4432 H   0  0  0  0  0  0
    4.2206   56.1802   15.0418 H   0  0  0  0  0  0
    4.3081   55.4908   16.6487 H   0  0  0  0  0  0
    6.5792   55.9474   15.8203 H   0  0  0  0  0  0
    5.7537   58.8783   15.4712 H   0  0  0  0  0  0
    7.3305   58.1945   15.0899 H   0  0  0  0  0  0
    5.9281   57.7161   14.1584 H   0  0  0  0  0  0
    8.6622   55.5225   17.5040 H   0  0  0  0  0  0
   11.0467   56.1482   17.6358 H   0  0  0  0  0  0
    7.5437   59.6637   17.8684 H   0  0  0  0  0  0
   11.4244   60.9107   16.6623 H   0  0  0  0  0  0
   11.5435   61.9031   18.1140 H   0  0  0  0  0  0
   13.3173   60.1075   18.1120 H   0  0  0  0  0  0
   12.1813   59.8607   19.4410 H   0  0  0  0  0  0
    5.5519   55.3272   18.1871 H   0  0  0  0  0  0
    5.3863   54.3214   19.9321 H   0  0  0  0  0  0
    7.6655   55.7991   22.3513 H   0  0  0  0  0  0
    7.5038   55.4669   24.7285 H   0  0  0  0  0  0
    3.7579   53.3804   24.1775 H   0  0  0  0  0  0
    3.9404   53.7145   21.7695 H   0  0  0  0  0  0
    3.5546   53.4219   26.3869 H   0  0  0  0  0  0
    6.6736   54.1760   28.9557 H   0  0  0  0  0  0
  1  2  1  0  0  0
  1 31  1  0  0  0
  1 32  1  0  0  0
  1 33  1  0  0  0
  2  3  1  0  0  0
  2  4  1  0  0  0
  2 34  1  0  0  0
  3 35  1  0  0  0
  3 36  1  0  0  0
  3 37  1  0  0  0
  4  5  1  0  0  0
  4  6  1  0  0  0
  4 16  1  0  0  0
  6 11  2  0  0  0
  6  7  1  0  0  0
  7  8  2  0  0  0
  7 38  1  0  0  0
  8  9  1  0  0  0
  8 39  1  0  0  0
  9 15  1  0  0  0
  9 10  2  0  0  0
 10 11  1  0  0  0
 10 12  1  0  0  0
 11 40  1  0  0  0
 12 13  1  0  0  0
 13 14  1  0  0  0
 13 41  1  0  0  0
 13 42  1  0  0  0
 14 15  1  0  0  0
 14 43  1  0  0  0
 14 44  1  0  0  0
 16 17  1  0  0  0
 16 45  1  0  0  0
 17 18  2  0  0  0
 17 19  1  0  0  0
 19 20  1  0  0  0
 19 46  1  0  0  0
 20 25  2  0  0  0
 20 21  1  0  0  0
 21 22  2  0  0  0
 21 47  1  0  0  0
 22 23  1  0  0  0
 22 48  1  0  0  0
 23 24  2  0  0  0
 23 26  1  0  0  0
 24 25  1  0  0  0
 24 49  1  0  0  0
 25 50  1  0  0  0
 26 30  1  0  0  0
 26 27  1  0  0  0
 27 28  2  0  0  0
 27 51  1  0  0  0
 28 29  1  0  0  0
 29 30  2  0  0  0
 29 52  1  0  0  0
M  END
> <i_i_glide_confnum>
4

> <i_i_glide_lignum>
1380

> <i_i_glide_posenum>
284

> <i_i_glide_rotatable_bonds>
7

> <i_m_Source_File_Index>
2711

> <b_m_subgroup_collapsed>
0

> <r_i_docking_score>
-6.65926

> <r_i_glide_ecoul>
-8.63292

> <r_i_glide_eff_state_penalty>
0

> <r_i_glide_einternal>
2.78856

> <r_i_glide_emodel>
-59.9988

> <r_i_glide_energy>
-43.5413

> <r_i_glide_erotb>
0.630994

> <r_i_glide_esite>
0

> <r_i_glide_evdw>
-34.9084

> <r_i_glide_gscore>
-6.65926

> <r_i_glide_hbond>
-0.455827

> <r_i_glide_ligand_efficiency>
-0.22963

> <r_i_glide_ligand_efficiency_ln>
-1.5248

> <r_i_glide_ligand_efficiency_sa>
-0.705496

> <r_i_glide_lipo>
-1.30122

> <r_i_glide_metal>
0

> <r_i_glide_rewards>
-2.49286

> <s_i_glide_gridfile>
wee1_glide-grid

> <s_m_Source_File>
wee1_decoys_glide_SP.sdf

> <s_m_Source_Path>
/Users/zhangxujun/Desktop

> <s_m_entry_id>
2986

> <s_m_entry_name>
wee1_decoys_glide_SP.2711

> <s_m_subgroup_title>
wee1_decoys_glide_SP

> <s_m_subgroupid>
wee1_decoys_glide_SP


$$$$
