@<TRIPOS>MOLECULE
ZINC19818670_874
65   68    1
SMALL
USER_CHARGES


@<TRIPOS>ATOM
      1 C1          0.7026   49.2980   23.2390 C.ar      1 UNK         0.0000 
      2 C2          0.4358   50.1516   24.3075 C.ar      1 UNK         0.0000 
      3 C3          0.8975   51.4663   24.2754 C.ar      1 UNK         0.0000 
      4 C4          1.6355   51.9261   23.1851 C.ar      1 UNK         0.0000 
      5 C5          1.9276   51.0707   22.1046 C.ar      1 UNK         0.0000 
      6 C6          1.4368   49.7560   22.1431 C.ar      1 UNK         0.0000 
      7 N7          2.6323   51.5480   21.0037 N.pl3     1 UNK         0.0000 
      8 C8          4.0094   52.0411   21.1659 C.3       1 UNK         0.0000 
      9 C9          4.4178   53.1193   20.1431 C.3       1 UNK         0.0000 
     10 N10         4.1535   52.6334   18.7011 N.4       1 UNK         0.0000 
     11 C11         2.6904   52.1683   18.5648 C.3       1 UNK         0.0000 
     12 C12         2.3729   51.0939   19.6272 C.3       1 UNK         0.0000 
     13 C13         4.4683   53.7627   17.6864 C.3       1 UNK         0.0000 
     14 C14         5.9922   53.9172   17.4658 C.2       1 UNK         0.0000 
     15 O15         6.6643   52.8968   17.3337 O.2       1 UNK         0.0000 
     16 N16         6.5452   55.1561   17.3522 N.am      1 UNK         0.0000 
     17 C17         7.9606   55.2675   16.9619 C.3       1 UNK         0.0000 
     18 C18         8.8183   55.2410   18.2464 C.3       1 UNK         0.0000 
     19 N19         8.3074   56.1782   19.2593 N.am      1 UNK         0.0000 
     20 C20         7.0476   56.6599   19.3325 C.2       1 UNK         0.0000 
     21 O21         6.7043   57.2966   20.3240 O.2       1 UNK         0.0000 
     22 C22         6.0745   56.3030   18.1689 C.3       1 UNK         0.0000 
     23 H23         5.2085   56.0112   18.7595 H         1 UNK         0.0000 
     24 C24         5.6589   57.5920   17.3846 C.3       1 UNK         0.0000 
     25 C25         4.3537   57.4467   16.5813 C.2       1 UNK         0.0000 
     26 O26         3.9945   56.3377   16.1851 O.2       1 UNK         0.0000 
     27 N27         3.6549   58.5738   16.3392 N.am      1 UNK         0.0000 
     28 C28         2.3557   58.6514   15.8082 C.ar      1 UNK         0.0000 
     29 C29         2.0266   59.7884   15.0680 C.ar      1 UNK         0.0000 
     30 C30         0.7300   59.9606   14.5858 C.ar      1 UNK         0.0000 
     31 C31        -0.2542   59.0112   14.8630 C.ar      1 UNK         0.0000 
     32 C32         0.0500   57.8758   15.6255 C.ar      1 UNK         0.0000 
     33 C33         1.3615   57.6963   16.0813 C.ar      1 UNK         0.0000 
     34 C34        -1.0248   56.8548   15.9940 C.3       1 UNK         0.0000 
     35 F35        -2.1228   56.9913   15.2463 F         1 UNK         0.0000 
     36 F36        -1.3688   57.0210   17.2733 F         1 UNK         0.0000 
     37 F37        -0.5668   55.6114   15.8360 F         1 UNK         0.0000 
     38 F38         2.0488   53.2172   23.1845 F         1 UNK         0.0000 
     39 H39         0.3369   48.2821   23.2736 H         1 UNK         0.0000 
     40 H40        -0.1302   49.7950   25.1567 H         1 UNK         0.0000 
     41 H41         0.6820   52.1316   25.0979 H         1 UNK         0.0000 
     42 H42         1.6380   49.0760   21.3268 H         1 UNK         0.0000 
     43 H43         4.6409   51.1627   21.0136 H         1 UNK         0.0000 
     44 H44         4.1975   52.3905   22.1812 H         1 UNK         0.0000 
     45 H45         5.4935   53.3022   20.2025 H         1 UNK         0.0000 
     46 H46         3.8630   54.0479   20.2941 H         1 UNK         0.0000 
     47 H47         2.0459   53.0458   18.6520 H         1 UNK         0.0000 
     48 H48         2.6116   51.7365   17.5647 H         1 UNK         0.0000 
     49 H49         1.3454   50.7436   19.5185 H         1 UNK         0.0000 
     50 H50         3.0226   50.2313   19.4588 H         1 UNK         0.0000 
     51 H51         3.9153   54.6436   18.0042 H         1 UNK         0.0000 
     52 H52         4.0337   53.4307   16.7429 H         1 UNK         0.0000 
     53 H53         8.0807   56.2522   16.5090 H         1 UNK         0.0000 
     54 H54         8.2483   54.5598   16.1830 H         1 UNK         0.0000 
     55 H55         9.8469   55.5168   18.0087 H         1 UNK         0.0000 
     56 H56         8.8344   54.2401   18.6828 H         1 UNK         0.0000 
     57 H57         8.9217   56.4149   20.0252 H         1 UNK         0.0000 
     58 H58         6.4438   57.8794   16.6841 H         1 UNK         0.0000 
     59 H59         5.5324   58.4374   18.0667 H         1 UNK         0.0000 
     60 H60         4.1028   59.4690   16.5053 H         1 UNK         0.0000 
     61 H61         2.7718   60.5499   14.8809 H         1 UNK         0.0000 
     62 H62         0.4830   60.8435   14.0147 H         1 UNK         0.0000 
     63 H63        -1.2578   59.1778   14.4998 H         1 UNK         0.0000 
     64 H64         1.5889   56.8356   16.6941 H         1 UNK         0.0000 
     65 H65         4.7412   51.8171   18.4822 H         1 UNK         0.0000 
@<TRIPOS>BOND
     1    1    6 ar   
     2    1    2 ar   
     3    1   39 1    
     4    2    3 ar   
     5    2   40 1    
     6    3    4 ar   
     7    3   41 1    
     8    4    5 ar   
     9    4   38 1    
    10    5    6 ar   
    11    5    7 1    
    12    6   42 1    
    13    7   12 1    
    14    7    8 1    
    15    8    9 1    
    16    8   43 1    
    17    8   44 1    
    18    9   10 1    
    19    9   45 1    
    20    9   46 1    
    21   10   11 1    
    22   10   13 1    
    23   10   65 1    
    24   11   12 1    
    25   11   47 1    
    26   11   48 1    
    27   12   49 1    
    28   12   50 1    
    29   13   14 1    
    30   13   51 1    
    31   13   52 1    
    32   14   15 2    
    33   14   16 am   BACKBONE|DICT|INTERRES
    34   16   22 1    
    35   16   17 1    
    36   17   18 1    
    37   17   53 1    
    38   17   54 1    
    39   18   19 1    
    40   18   55 1    
    41   18   56 1    
    42   19   20 am   BACKBONE|DICT|INTERRES
    43   19   57 1    
    44   20   21 2    
    45   20   22 1    
    46   22   23 1    
    47   22   24 1    
    48   24   25 1    
    49   24   58 1    
    50   24   59 1    
    51   25   26 2    
    52   25   27 am   BACKBONE|DICT|INTERRES
    53   27   28 1    
    54   27   60 1    
    55   28   33 ar   
    56   28   29 ar   
    57   29   30 ar   
    58   29   61 1    
    59   30   31 ar   
    60   30   62 1    
    61   31   32 ar   
    62   31   63 1    
    63   32   33 ar   
    64   32   34 1    
    65   33   64 1    
    66   34   35 1    
    67   34   36 1    
    68   34   37 1    
@<TRIPOS>SUBSTRUCTURE
     1 UNK         1 GROUP             0       ****    0 ROOT    
