@<TRIPOS>MOLECULE
ZINC53049673_6205
58   59    1
SMALL
USER_CHARGES


@<TRIPOS>ATOM
      1 C1          3.0757   53.1342   15.4889 C.3       1 UNK         0.0000 
      2 C2          4.4736   52.8971   16.0733 C.3       1 UNK         0.0000 
      3 H3          4.4965   51.9248   16.5692 H         1 UNK         0.0000 
      4 C4          5.4816   52.8973   14.8993 C.2       1 UNK         0.0000 
      5 O5          6.0259   53.9515   14.5608 O.2       1 UNK         0.0000 
      6 N6          5.6736   51.6941   14.3042 N.am      1 UNK         0.0000 
      7 C7          6.5534   51.3166   13.3436 C.2       1 UNK         0.0000 
      8 O8          6.5083   50.1723   12.8966 O.2       1 UNK         0.0000 
      9 N9          7.4789   52.2087   12.9321 N.am      1 UNK         0.0000 
     10 C10         8.6593   51.9325   12.1134 C.3       1 UNK         0.0000 
     11 C11         9.3213   53.2476   11.6702 C.3       1 UNK         0.0000 
     12 C12         9.6675   51.0012   12.8177 C.3       1 UNK         0.0000 
     13 N13         4.9379   53.8971   17.1850 N.4       1 UNK         0.0000 
     14 C14         6.3389   53.5273   17.7596 C.3       1 UNK         0.0000 
     15 C15         6.7193   54.4623   18.9191 C.3       1 UNK         0.0000 
     16 C16         5.6287   54.3468   20.0057 C.3       1 UNK         0.0000 
     17 C17         4.3076   54.8994   19.4418 C.3       1 UNK         0.0000 
     18 C18         3.8486   53.9791   18.2963 C.3       1 UNK         0.0000 
     19 C19         6.0573   55.1484   21.2565 C.2       1 UNK         0.0000 
     20 O20         6.4590   56.3086   21.1443 O.2       1 UNK         0.0000 
     21 N21         6.0092   54.4938   22.4318 N.am      1 UNK         0.0000 
     22 C22         6.5232   54.9922   23.7097 C.3       1 UNK         0.0000 
     23 C23         5.6875   54.6405   24.9404 C.ar      1 UNK         0.0000 
     24 C24         6.3355   54.4321   26.1619 C.ar      1 UNK         0.0000 
     25 C25         5.6025   54.1140   27.3007 C.ar      1 UNK         0.0000 
     26 C26         4.2186   53.9836   27.2187 C.ar      1 UNK         0.0000 
     27 C27         3.5664   54.1667   26.0022 C.ar      1 UNK         0.0000 
     28 C28         4.2978   54.4942   24.8633 C.ar      1 UNK         0.0000 
     29 F29         3.5061   53.6856   28.3270 F         1 UNK         0.0000 
     30 H30         2.8750   52.4647   14.6503 H         1 UNK         0.0000 
     31 H31         2.3123   52.9309   16.2413 H         1 UNK         0.0000 
     32 H32         2.9734   54.1665   15.1492 H         1 UNK         0.0000 
     33 H33         5.0929   50.9408   14.6417 H         1 UNK         0.0000 
     34 H34         7.3447   53.1698   13.2157 H         1 UNK         0.0000 
     35 H35         8.3194   51.4295   11.2043 H         1 UNK         0.0000 
     36 H36        10.2109   53.0513   11.0721 H         1 UNK         0.0000 
     37 H37         9.6428   53.8422   12.5297 H         1 UNK         0.0000 
     38 H38         8.6536   53.8525   11.0540 H         1 UNK         0.0000 
     39 H39        10.5770   50.8989   12.2268 H         1 UNK         0.0000 
     40 H40         9.9662   51.3906   13.7924 H         1 UNK         0.0000 
     41 H41         9.2682   49.9932   12.9410 H         1 UNK         0.0000 
     42 H42         6.2914   52.4958   18.0861 H         1 UNK         0.0000 
     43 H43         7.0726   53.6287   16.9603 H         1 UNK         0.0000 
     44 H44         7.6879   54.1030   19.2753 H         1 UNK         0.0000 
     45 H45         6.8003   55.4722   18.5120 H         1 UNK         0.0000 
     46 H46         5.5112   53.3138   20.3426 H         1 UNK         0.0000 
     47 H47         4.4194   55.9000   19.0191 H         1 UNK         0.0000 
     48 H48         3.5049   54.8533   20.1812 H         1 UNK         0.0000 
     49 H49         2.9569   54.4104   17.8398 H         1 UNK         0.0000 
     50 H50         3.6422   52.9574   18.6328 H         1 UNK         0.0000 
     51 H51         5.7154   53.5289   22.4289 H         1 UNK         0.0000 
     52 H52         7.5042   54.5388   23.8274 H         1 UNK         0.0000 
     53 H53         6.7026   56.0699   23.6962 H         1 UNK         0.0000 
     54 H54         7.4099   54.5041   26.2380 H         1 UNK         0.0000 
     55 H55         6.1020   53.9623   28.2442 H         1 UNK         0.0000 
     56 H56         2.4927   54.0605   25.9481 H         1 UNK         0.0000 
     57 H57         3.7799   54.6440   23.9284 H         1 UNK         0.0000 
     58 H58         5.0315   54.8172   16.7781 H         1 UNK         0.0000 
@<TRIPOS>BOND
     1    1    2 1    
     2    1   30 1    
     3    1   31 1    
     4    1   32 1    
     5    2    3 1    
     6    2    4 1    
     7    2   13 1    
     8    4    5 2    
     9    4    6 am   BACKBONE|DICT|INTERRES
    10    6    7 am   BACKBONE|DICT|INTERRES
    11    6   33 1    
    12    7    8 2    
    13    7    9 am   BACKBONE|DICT|INTERRES
    14    9   10 1    
    15    9   34 1    
    16   10   11 1    
    17   10   12 1    
    18   10   35 1    
    19   11   36 1    
    20   11   37 1    
    21   11   38 1    
    22   12   39 1    
    23   12   40 1    
    24   12   41 1    
    25   13   18 1    
    26   13   14 1    
    27   13   58 1    
    28   14   15 1    
    29   14   42 1    
    30   14   43 1    
    31   15   16 1    
    32   15   44 1    
    33   15   45 1    
    34   16   17 1    
    35   16   19 1    
    36   16   46 1    
    37   17   18 1    
    38   17   47 1    
    39   17   48 1    
    40   18   49 1    
    41   18   50 1    
    42   19   20 2    
    43   19   21 am   BACKBONE|DICT|INTERRES
    44   21   22 1    
    45   21   51 1    
    46   22   23 1    
    47   22   52 1    
    48   22   53 1    
    49   23   28 ar   
    50   23   24 ar   
    51   24   25 ar   
    52   24   54 1    
    53   25   26 ar   
    54   25   55 1    
    55   26   27 ar   
    56   26   29 1    
    57   27   28 ar   
    58   27   56 1    
    59   28   57 1    
@<TRIPOS>SUBSTRUCTURE
     1 UNK         1 GROUP             0       ****    0 ROOT    
