@<TRIPOS>MOLECULE
ZINC09966207_2809
55   58    1
SMALL
USER_CHARGES


@<TRIPOS>ATOM
      1 C1         -3.7621   53.5160   24.5809 C.3       1 UNK         0.0000 
      2 C2         -2.6317   52.5086   24.4844 C.ar      1 UNK         0.0000 
      3 C3         -2.8296   51.1896   24.8961 C.ar      1 UNK         0.0000 
      4 C4         -1.7931   50.2615   24.8023 C.ar      1 UNK         0.0000 
      5 C5         -0.5519   50.6303   24.2777 C.ar      1 UNK         0.0000 
      6 C6         -0.3427   51.9638   23.8630 C.ar      1 UNK         0.0000 
      7 C7         -1.3903   52.8903   23.9748 C.ar      1 UNK         0.0000 
      8 N8          0.9023   52.3980   23.3327 N.pl3     1 UNK         0.0000 
      9 C9          1.7396   53.0662   24.2366 C.ar      1 UNK         0.0000 
     10 O10         1.4344   53.2965   25.4109 O.2       1 UNK         0.0000 
     11 C11         3.0154   53.4324   23.6193 C.ar      1 UNK         0.0000 
     12 C12         4.1247   54.0955   24.1935 C.2       1 UNK         0.0000 
     13 C13         5.1894   54.2030   23.2786 C.2       1 UNK         0.0000 
     14 S14         4.7980   53.5427   21.7206 S.3       1 UNK         0.0000 
     15 C15         3.2444   53.0711   22.2979 C.ar      1 UNK         0.0000 
     16 N16         2.3728   52.3928   21.5140 N.2       1 UNK         0.0000 
     17 C17         1.2168   52.0952   21.9971 C.ar      1 UNK         0.0000 
     18 S18         0.0376   51.2526   20.8824 S.3       1 UNK         0.0000 
     19 C19         1.0586   50.8104   19.4248 C.3       1 UNK         0.0000 
     20 C20         1.3991   51.9931   18.5100 C.2       1 UNK         0.0000 
     21 O21         0.4933   52.7468   18.1416 O.2       1 UNK         0.0000 
     22 N22         2.7056   52.0967   18.1764 N.am      1 UNK         0.0000 
     23 C23         3.3192   53.1179   17.5446 C.2       1 UNK         0.0000 
     24 O24         2.7790   54.1409   17.1125 O.2       1 UNK         0.0000 
     25 N25         4.6396   52.8973   17.4764 N.am      1 UNK         0.0000 
     26 C26         5.6208   53.9050   17.0962 C.3       1 UNK         0.0000 
     27 C27         6.5653   54.7677   23.6018 C.3       1 UNK         0.0000 
     28 C28         6.4992   55.5363   24.9393 C.3       1 UNK         0.0000 
     29 C29         5.7449   54.7474   26.0217 C.3       1 UNK         0.0000 
     30 C30         4.2581   54.5485   25.6502 C.3       1 UNK         0.0000 
     31 C31         0.5448   49.5753   24.1904 C.3       1 UNK         0.0000 
     32 H32        -4.7139   53.0505   24.3225 H         1 UNK         0.0000 
     33 H33        -3.8402   53.9077   25.5949 H         1 UNK         0.0000 
     34 H34        -3.6203   54.3464   23.8886 H         1 UNK         0.0000 
     35 H35        -3.7819   50.8798   25.3002 H         1 UNK         0.0000 
     36 H36        -1.9638   49.2472   25.1361 H         1 UNK         0.0000 
     37 H37        -1.2325   53.9183   23.6820 H         1 UNK         0.0000 
     38 H38         0.5051   50.0823   18.8325 H         1 UNK         0.0000 
     39 H39         1.9644   50.3072   19.7700 H         1 UNK         0.0000 
     40 H40         3.3121   51.3488   18.4778 H         1 UNK         0.0000 
     41 H41         4.9957   51.9618   17.6810 H         1 UNK         0.0000 
     42 H42         6.6287   53.4978   17.1918 H         1 UNK         0.0000 
     43 H43         5.5410   54.7832   17.7379 H         1 UNK         0.0000 
     44 H44         5.4701   54.2134   16.0604 H         1 UNK         0.0000 
     45 H45         7.2834   53.9514   23.6949 H         1 UNK         0.0000 
     46 H46         6.9275   55.4238   22.8105 H         1 UNK         0.0000 
     47 H47         7.5042   55.7727   25.2781 H         1 UNK         0.0000 
     48 H48         6.0056   56.4984   24.7994 H         1 UNK         0.0000 
     49 H49         6.2236   53.7755   26.1640 H         1 UNK         0.0000 
     50 H50         5.8185   55.2633   26.9816 H         1 UNK         0.0000 
     51 H51         3.7071   55.4770   25.7950 H         1 UNK         0.0000 
     52 H52         3.8094   53.8286   26.3357 H         1 UNK         0.0000 
     53 H53         0.3601   48.7323   24.8614 H         1 UNK         0.0000 
     54 H54         0.6410   49.1988   23.1687 H         1 UNK         0.0000 
     55 H55         1.5062   49.9930   24.4816 H         1 UNK         0.0000 
@<TRIPOS>BOND
     1    1    2 1    
     2    1   32 1    
     3    1   33 1    
     4    1   34 1    
     5    2    7 ar   
     6    2    3 ar   
     7    3    4 ar   
     8    3   35 1    
     9    4    5 ar   
    10    4   36 1    
    11    5    6 ar   
    12    5   31 1    
    13    6    7 ar   
    14    6    8 1    
    15    7   37 1    
    16    8   17 ar   
    17    8    9 ar   
    18    9   10 2    
    19    9   11 ar   
    20   11   15 ar   
    21   11   12 1    
    22   12   30 1    
    23   12   13 2    
    24   13   14 1    
    25   13   27 1    
    26   14   15 1    
    27   15   16 ar   
    28   16   17 ar   
    29   17   18 1    
    30   18   19 1    
    31   19   20 1    
    32   19   38 1    
    33   19   39 1    
    34   20   21 2    
    35   20   22 am   BACKBONE|DICT|INTERRES
    36   22   23 am   BACKBONE|DICT|INTERRES
    37   22   40 1    
    38   23   24 2    
    39   23   25 am   BACKBONE|DICT|INTERRES
    40   25   26 1    
    41   25   41 1    
    42   26   42 1    
    43   26   43 1    
    44   26   44 1    
    45   27   28 1    
    46   27   45 1    
    47   27   46 1    
    48   28   29 1    
    49   28   47 1    
    50   28   48 1    
    51   29   30 1    
    52   29   49 1    
    53   29   50 1    
    54   30   51 1    
    55   30   52 1    
    56   31   53 1    
    57   31   54 1    
    58   31   55 1    
@<TRIPOS>SUBSTRUCTURE
     1 UNK         1 GROUP             0       ****    0 ROOT    
