@<TRIPOS>MOLECULE
ZINC15768956_5012
71   74    1
SMALL
USER_CHARGES


@<TRIPOS>ATOM
      1 C1         -1.7866   47.3937   21.8599 C.3       1 UNK         0.0000 
      2 C2         -1.6659   48.5728   22.8676 C.3       1 UNK         0.0000 
      3 H3         -2.5537   49.1854   22.7321 H         1 UNK         0.0000 
      4 C4         -0.4356   49.4702   22.4989 C.3       1 UNK         0.0000 
      5 H5          0.4863   48.8991   22.6283 H         1 UNK         0.0000 
      6 N6         -0.2775   50.6155   23.5180 N.4       1 UNK         0.0000 
      7 C7         -0.1254   50.1437   24.9745 C.3       1 UNK         0.0000 
      8 H8          0.7466   49.4840   24.9578 H         1 UNK         0.0000 
      9 C9         -1.4234   49.3490   25.3213 C.3       1 UNK         0.0000 
     10 H10        -1.2842   48.9307   26.3179 H         1 UNK         0.0000 
     11 C11        -1.6278   48.1143   24.3776 C.3       1 UNK         0.0000 
     12 C12        -2.8414   47.2765   24.8619 C.ar      1 UNK         0.0000 
     13 C13        -2.7220   46.4896   26.0226 C.ar      1 UNK         0.0000 
     14 C14        -3.7953   45.7344   26.4907 C.ar      1 UNK         0.0000 
     15 C15        -5.0122   45.7761   25.8168 C.ar      1 UNK         0.0000 
     16 C16        -5.1616   46.5695   24.6823 C.ar      1 UNK         0.0000 
     17 C17        -4.0854   47.3210   24.2124 C.ar      1 UNK         0.0000 
     18 F18        -6.0542   45.0432   26.2666 F         1 UNK         0.0000 
     19 O19        -0.4752   47.2955   24.4818 O.3       1 UNK         0.0000 
     20 C20        -2.6809   50.2664   25.4091 C.3       1 UNK         0.0000 
     21 C21         0.2908   51.3007   25.9152 C.ar      1 UNK         0.0000 
     22 C22        -0.1310   51.2872   27.2550 C.ar      1 UNK         0.0000 
     23 C23         0.2580   52.2660   28.1669 C.ar      1 UNK         0.0000 
     24 C24         1.1245   53.2764   27.7383 C.ar      1 UNK         0.0000 
     25 C25         1.5754   53.2975   26.4202 C.ar      1 UNK         0.0000 
     26 C26         1.1628   52.3286   25.4903 C.ar      1 UNK         0.0000 
     27 O27         1.6135   52.3203   24.1775 O.3       1 UNK         0.0000 
     28 C28         2.4723   53.3603   23.7106 C.3       1 UNK         0.0000 
     29 O29        -0.2507   52.1536   29.4449 O.3       1 UNK         0.0000 
     30 C30         0.0812   53.1328   30.4202 C.3       1 UNK         0.0000 
     31 C31        -0.4572   50.0900   21.0954 C.ar      1 UNK         0.0000 
     32 C32        -1.4646   51.0018   20.7507 C.ar      1 UNK         0.0000 
     33 C33        -1.5035   51.6009   19.4898 C.ar      1 UNK         0.0000 
     34 C34        -0.5158   51.2687   18.5526 C.ar      1 UNK         0.0000 
     35 C35         0.4782   50.3548   18.8748 C.ar      1 UNK         0.0000 
     36 C36         0.5206   49.7513   20.1401 C.ar      1 UNK         0.0000 
     37 O37         1.4840   48.8250   20.4883 O.3       1 UNK         0.0000 
     38 C38         2.4633   48.4540   19.5235 C.3       1 UNK         0.0000 
     39 O39        -2.5201   52.4968   19.2455 O.3       1 UNK         0.0000 
     40 C40        -2.5065   53.2241   18.0150 C.3       1 UNK         0.0000 
     41 H41        -0.8961   46.7667   21.8714 H         1 UNK         0.0000 
     42 H42        -2.6309   46.7361   22.0664 H         1 UNK         0.0000 
     43 H43        -1.9132   47.7503   20.8360 H         1 UNK         0.0000 
     44 H44        -1.0389   51.2706   23.4487 H         1 UNK         0.0000 
     45 H45        -1.7972   46.4719   26.5866 H         1 UNK         0.0000 
     46 H46        -3.6913   45.1335   27.3832 H         1 UNK         0.0000 
     47 H47        -6.1140   46.6073   24.1728 H         1 UNK         0.0000 
     48 H48        -4.2450   47.9406   23.3429 H         1 UNK         0.0000 
     49 H49        -0.2459   47.1954   25.4142 H         1 UNK         0.0000 
     50 H50        -2.9570   50.6909   24.4439 H         1 UNK         0.0000 
     51 H51        -3.5470   49.7198   25.7846 H         1 UNK         0.0000 
     52 H52        -2.5345   51.1029   26.0939 H         1 UNK         0.0000 
     53 H53        -0.7650   50.4993   27.6372 H         1 UNK         0.0000 
     54 H54         1.4613   54.0510   28.4138 H         1 UNK         0.0000 
     55 H55         2.2545   54.0884   26.1411 H         1 UNK         0.0000 
     56 H56         2.7105   53.1868   22.6600 H         1 UNK         0.0000 
     57 H57         1.9925   54.3391   23.7807 H         1 UNK         0.0000 
     58 H58         3.4168   53.3827   24.2587 H         1 UNK         0.0000 
     59 H59        -0.4379   52.8965   31.3507 H         1 UNK         0.0000 
     60 H60         1.1523   53.1430   30.6303 H         1 UNK         0.0000 
     61 H61        -0.2381   54.1293   30.1104 H         1 UNK         0.0000 
     62 H62        -2.2299   51.2613   21.4672 H         1 UNK         0.0000 
     63 H63        -0.5002   51.7000   17.5617 H         1 UNK         0.0000 
     64 H64         1.2119   50.1314   18.1147 H         1 UNK         0.0000 
     65 H65         3.1025   47.6967   19.9639 H         1 UNK         0.0000 
     66 H66         2.0142   48.0192   18.6282 H         1 UNK         0.0000 
     67 H67         3.0987   49.2947   19.2382 H         1 UNK         0.0000 
     68 H68        -3.2943   53.9728   18.0135 H         1 UNK         0.0000 
     69 H69        -1.5676   53.7615   17.8715 H         1 UNK         0.0000 
     70 H70        -2.6753   52.5659   17.1619 H         1 UNK         0.0000 
     71 H71         0.5498   51.1606   23.2993 H         1 UNK         0.0000 
@<TRIPOS>BOND
     1    1    2 1    
     2    1   41 1    
     3    1   42 1    
     4    1   43 1    
     5    2    3 1    
     6    2   11 1    
     7    2    4 1    
     8    4    5 1    
     9    4    6 1    
    10    4   31 1    
    11    6    7 1    
    12    6   44 1    
    13    6   71 1    
    14    7    8 1    
    15    7    9 1    
    16    7   21 1    
    17    9   10 1    
    18    9   11 1    
    19    9   20 1    
    20   11   12 1    
    21   11   19 1    
    22   12   17 ar   
    23   12   13 ar   
    24   13   14 ar   
    25   13   45 1    
    26   14   15 ar   
    27   14   46 1    
    28   15   16 ar   
    29   15   18 1    
    30   16   17 ar   
    31   16   47 1    
    32   17   48 1    
    33   19   49 1    
    34   20   50 1    
    35   20   51 1    
    36   20   52 1    
    37   21   26 ar   
    38   21   22 ar   
    39   22   23 ar   
    40   22   53 1    
    41   23   24 ar   
    42   23   29 1    
    43   24   25 ar   
    44   24   54 1    
    45   25   26 ar   
    46   25   55 1    
    47   26   27 1    
    48   27   28 1    
    49   28   56 1    
    50   28   57 1    
    51   28   58 1    
    52   29   30 1    
    53   30   59 1    
    54   30   60 1    
    55   30   61 1    
    56   31   36 ar   
    57   31   32 ar   
    58   32   33 ar   
    59   32   62 1    
    60   33   34 ar   
    61   33   39 1    
    62   34   35 ar   
    63   34   63 1    
    64   35   36 ar   
    65   35   64 1    
    66   36   37 1    
    67   37   38 1    
    68   38   65 1    
    69   38   66 1    
    70   38   67 1    
    71   39   40 1    
    72   40   68 1    
    73   40   69 1    
    74   40   70 1    
@<TRIPOS>SUBSTRUCTURE
     1 UNK         1 GROUP             0       ****    0 ROOT    
