@<TRIPOS>MOLECULE
ZINC02261981_2781
44   47    1
SMALL
USER_CHARGES


@<TRIPOS>ATOM
      1 C1         -5.4759   44.9264   27.5572 C.3       1 UNK         0.0000 
      2 C2         -4.5534   45.6915   26.6477 C.2       1 UNK         0.0000 
      3 C3         -3.6920   46.7507   26.8109 C.2       1 UNK         0.0000 
      4 C4         -3.1178   46.9641   25.5622 C.2       1 UNK         0.0000 
      5 N5         -3.5952   46.1083   24.6745 N.2       1 UNK         0.0000 
      6 O6         -4.4943   45.2880   25.3554 O.3       1 UNK         0.0000 
      7 N7         -2.2084   47.9771   25.2987 N.am      1 UNK         0.0000 
      8 C8         -1.4396   48.0916   24.1931 C.2       1 UNK         0.0000 
      9 O9         -1.3502   47.2360   23.3094 O.2       1 UNK         0.0000 
     10 C10        -0.7123   49.3352   24.0853 C.ar      1 UNK         0.0000 
     11 C11        -1.1415   50.5987   24.5373 C.ar      1 UNK         0.0000 
     12 C12        -0.2273   51.5149   24.0553 C.ar      1 UNK         0.0000 
     13 N13         0.6730   50.7776   23.3095 N.pl3     1 UNK         0.0000 
     14 N14         0.3956   49.4646   23.3840 N.2       1 UNK         0.0000 
     15 C15         1.8851   51.2953   22.6536 C.3       1 UNK         0.0000 
     16 H16         2.7041   51.1507   23.3545 H         1 UNK         0.0000 
     17 C17         1.6685   52.8192   22.4652 C.3       1 UNK         0.0000 
     18 C18         1.1125   53.5328   23.7261 C.3       1 UNK         0.0000 
     19 H19         0.8735   54.5681   23.4807 H         1 UNK         0.0000 
     20 N20        -0.1688   52.8976   24.0810 N.pl3     1 UNK         0.0000 
     21 C21         2.1452   53.6373   24.8645 C.ar      1 UNK         0.0000 
     22 C22         1.9046   53.1207   26.1471 C.ar      1 UNK         0.0000 
     23 C23         2.8387   53.2968   27.1650 C.ar      1 UNK         0.0000 
     24 C24         4.0233   53.9831   26.9082 C.ar      1 UNK         0.0000 
     25 C25         4.2781   54.4961   25.6395 C.ar      1 UNK         0.0000 
     26 C26         3.3398   54.3278   24.6245 C.ar      1 UNK         0.0000 
     27 Cl27        5.1811   54.2019   28.1703 Cl        1 UNK         0.0000 
     28 C28         2.2901   50.5666   21.3478 C.3       1 UNK         0.0000 
     29 F29         3.3985   51.1034   20.8380 F         1 UNK         0.0000 
     30 F30         2.5369   49.2726   21.5470 F         1 UNK         0.0000 
     31 F31         1.3391   50.6596   20.4171 F         1 UNK         0.0000 
     32 H32        -5.7095   45.4980   28.4543 H         1 UNK         0.0000 
     33 H33        -5.0258   43.9817   27.8645 H         1 UNK         0.0000 
     34 H34        -6.4229   44.6955   27.0689 H         1 UNK         0.0000 
     35 H35        -3.4820   47.2983   27.7199 H         1 UNK         0.0000 
     36 H36        -2.0247   48.6034   26.0694 H         1 UNK         0.0000 
     37 H37        -2.0332   50.8217   25.1046 H         1 UNK         0.0000 
     38 H38         2.5955   53.2840   22.1283 H         1 UNK         0.0000 
     39 H39         0.9891   52.9876   21.6271 H         1 UNK         0.0000 
     40 H40        -0.6546   53.4017   24.8076 H         1 UNK         0.0000 
     41 H41         0.9943   52.5861   26.3730 H         1 UNK         0.0000 
     42 H42         2.6448   52.8971   28.1494 H         1 UNK         0.0000 
     43 H43         5.1960   55.0299   25.4438 H         1 UNK         0.0000 
     44 H44         3.5412   54.7524   23.6518 H         1 UNK         0.0000 
@<TRIPOS>BOND
     1    1    2 1    
     2    1   32 1    
     3    1   33 1    
     4    1   34 1    
     5    2    6 1    
     6    2    3 2    
     7    3    4 1    
     8    3   35 1    
     9    4    5 2    
    10    4    7 1    
    11    5    6 1    
    12    7    8 am   BACKBONE|DICT|INTERRES
    13    7   36 1    
    14    8    9 2    
    15    8   10 1    
    16   10   14 ar   
    17   10   11 ar   
    18   11   12 ar   
    19   11   37 1    
    20   12   20 1    
    21   12   13 ar   
    22   13   14 ar   
    23   13   15 1    
    24   15   16 1    
    25   15   17 1    
    26   15   28 1    
    27   17   18 1    
    28   17   38 1    
    29   17   39 1    
    30   18   19 1    
    31   18   20 1    
    32   18   21 1    
    33   20   40 1    
    34   21   26 ar   
    35   21   22 ar   
    36   22   23 ar   
    37   22   41 1    
    38   23   24 ar   
    39   23   42 1    
    40   24   25 ar   
    41   24   27 1    
    42   25   26 ar   
    43   25   43 1    
    44   26   44 1    
    45   28   29 1    
    46   28   30 1    
    47   28   31 1    
@<TRIPOS>SUBSTRUCTURE
     1 UNK         1 GROUP             0       ****    0 ROOT    
