@<TRIPOS>MOLECULE
ZINC39656934_3674
62   65    1
SMALL
USER_CHARGES


@<TRIPOS>ATOM
      1 C1         -1.4890   50.8445   21.9872 C.3       1 UNK         0.0000 
      2 C2         -1.0452   51.9507   22.9568 C.3       1 UNK         0.0000 
      3 H3         -1.3426   52.8969   22.5007 H         1 UNK         0.0000 
      4 C4         -1.7760   51.8162   24.2963 C.ar      1 UNK         0.0000 
      5 C5         -1.2653   50.9966   25.3106 C.ar      1 UNK         0.0000 
      6 C6         -1.9553   50.8580   26.5091 C.ar      1 UNK         0.0000 
      7 C7         -3.1545   51.5372   26.7009 C.ar      1 UNK         0.0000 
      8 C8         -3.6598   52.3744   25.7082 C.ar      1 UNK         0.0000 
      9 C9         -2.9691   52.5167   24.5071 C.ar      1 UNK         0.0000 
     10 Br10       -4.1161   51.2966   28.3266 Br        1 UNK         0.0000 
     11 N11         0.4156   51.9501   23.0727 N.am      1 UNK         0.0000 
     12 C12         1.1759   52.9950   23.4437 C.2       1 UNK         0.0000 
     13 O13         0.7042   54.0969   23.6926 O.2       1 UNK         0.0000 
     14 C14         2.6927   52.7174   23.5677 C.3       1 UNK         0.0000 
     15 H15         2.7044   51.7751   24.1139 H         1 UNK         0.0000 
     16 C16         3.3733   53.8123   24.4088 C.3       1 UNK         0.0000 
     17 N17         4.7737   53.7831   23.9660 N.am      1 UNK         0.0000 
     18 C18         4.9664   53.0302   22.7149 C.3       1 UNK         0.0000 
     19 C19         3.5236   52.7107   22.2508 C.3       1 UNK         0.0000 
     20 C20         3.2877   51.3936   21.4800 C.3       1 UNK         0.0000 
     21 C21         4.1516   51.2979   20.2276 C.3       1 UNK         0.0000 
     22 N22         3.8206   52.4809   19.2891 N.4       1 UNK         0.0000 
     23 C23         3.9143   53.8672   19.9609 C.3       1 UNK         0.0000 
     24 C24         3.1044   53.8339   21.2814 C.3       1 UNK         0.0000 
     25 C25         5.8108   54.2883   24.6797 C.2       1 UNK         0.0000 
     26 O26         6.9804   54.0968   24.3484 O.2       1 UNK         0.0000 
     27 C27         5.5465   55.1934   25.9024 C.3       1 UNK         0.0000 
     28 C28         4.9084   54.4975   27.1041 C.ar      1 UNK         0.0000 
     29 C29         5.5912   53.4973   27.7926 C.ar      1 UNK         0.0000 
     30 C30         4.9835   52.8810   28.8807 C.ar      1 UNK         0.0000 
     31 C31         3.7082   53.2547   29.2893 C.ar      1 UNK         0.0000 
     32 C32         3.0256   54.2603   28.6142 C.ar      1 UNK         0.0000 
     33 C33         3.6299   54.8778   27.5236 C.ar      1 UNK         0.0000 
     34 Cl34        2.9768   52.4640   30.6376 Cl        1 UNK         0.0000 
     35 H35        -2.5672   50.8674   21.8246 H         1 UNK         0.0000 
     36 H36        -1.0096   50.9565   21.0141 H         1 UNK         0.0000 
     37 H37        -1.2356   49.8549   22.3704 H         1 UNK         0.0000 
     38 H38        -0.3471   50.4453   25.1671 H         1 UNK         0.0000 
     39 H39        -1.5730   50.2047   27.2812 H         1 UNK         0.0000 
     40 H40        -4.5894   52.9010   25.8660 H         1 UNK         0.0000 
     41 H41        -3.3720   53.1598   23.7376 H         1 UNK         0.0000 
     42 H42         0.8630   51.0551   22.9485 H         1 UNK         0.0000 
     43 H43         3.2312   53.5571   25.4549 H         1 UNK         0.0000 
     44 H44         2.9874   54.8011   24.1529 H         1 UNK         0.0000 
     45 H45         5.5669   53.5605   21.9799 H         1 UNK         0.0000 
     46 H46         5.5040   52.0970   22.8818 H         1 UNK         0.0000 
     47 H47         3.5149   50.5378   22.1151 H         1 UNK         0.0000 
     48 H48         2.2376   51.2661   21.2133 H         1 UNK         0.0000 
     49 H49         5.2217   51.3359   20.4245 H         1 UNK         0.0000 
     50 H50         3.9043   50.3888   19.6798 H         1 UNK         0.0000 
     51 H51         4.4324   52.4089   18.4831 H         1 UNK         0.0000 
     52 H52         4.9760   54.0824   20.0828 H         1 UNK         0.0000 
     53 H53         3.5047   54.5818   19.2448 H         1 UNK         0.0000 
     54 H54         2.0525   53.6958   21.0720 H         1 UNK         0.0000 
     55 H55         3.1756   54.8127   21.7602 H         1 UNK         0.0000 
     56 H56         4.9357   56.0333   25.5781 H         1 UNK         0.0000 
     57 H57         6.4877   55.6402   26.2269 H         1 UNK         0.0000 
     58 H58         6.5795   53.1886   27.4823 H         1 UNK         0.0000 
     59 H59         5.5029   52.0965   29.3964 H         1 UNK         0.0000 
     60 H60         2.0345   54.5558   28.9264 H         1 UNK         0.0000 
     61 H61         3.1042   55.6508   26.9901 H         1 UNK         0.0000 
     62 H62         2.8843   52.3508   18.9331 H         1 UNK         0.0000 
@<TRIPOS>BOND
     1    1    2 1    
     2    1   35 1    
     3    1   36 1    
     4    1   37 1    
     5    2    3 1    
     6    2    4 1    
     7    2   11 1    
     8    4    9 ar   
     9    4    5 ar   
    10    5    6 ar   
    11    5   38 1    
    12    6    7 ar   
    13    6   39 1    
    14    7    8 ar   
    15    7   10 1    
    16    8    9 ar   
    17    8   40 1    
    18    9   41 1    
    19   11   12 am   BACKBONE|DICT|INTERRES
    20   11   42 1    
    21   12   13 2    
    22   12   14 1    
    23   14   15 1    
    24   14   19 1    
    25   14   16 1    
    26   16   17 1    
    27   16   43 1    
    28   16   44 1    
    29   17   18 1    
    30   17   25 am   BACKBONE|DICT|INTERRES
    31   18   19 1    
    32   18   45 1    
    33   18   46 1    
    34   19   24 1    
    35   19   20 1    
    36   20   21 1    
    37   20   47 1    
    38   20   48 1    
    39   21   22 1    
    40   21   49 1    
    41   21   50 1    
    42   22   23 1    
    43   22   51 1    
    44   22   62 1    
    45   23   24 1    
    46   23   52 1    
    47   23   53 1    
    48   24   54 1    
    49   24   55 1    
    50   25   26 2    
    51   25   27 1    
    52   27   28 1    
    53   27   56 1    
    54   27   57 1    
    55   28   33 ar   
    56   28   29 ar   
    57   29   30 ar   
    58   29   58 1    
    59   30   31 ar   
    60   30   59 1    
    61   31   32 ar   
    62   31   34 1    
    63   32   33 ar   
    64   32   60 1    
    65   33   61 1    
@<TRIPOS>SUBSTRUCTURE
     1 UNK         1 GROUP             0       ****    0 ROOT    
