ZINC02853633_5275
                    3D
 Schrodinger Suite 2024-2.
 64 67  0  0  1  0            999 V2000
    6.6815   54.2815   27.2009 C   0  0  0  0  0  0
    6.0917   54.5079   25.8036 C   0  0  0  0  0  0
    4.7199   54.1424   25.8437 O   0  0  0  0  0  0
    3.9919   53.9961   24.7159 C   0  0  0  0  0  0
    4.4174   54.2308   23.5853 O   0  0  0  0  0  0
    2.6400   53.4641   24.9880 C   0  0  0  0  0  0
    1.9303   53.5498   26.2317 C   0  0  0  0  0  0
    0.7090   52.8622   26.2199 C   0  0  0  0  0  0
    0.3199   52.2924   24.6398 S   0  0  0  0  0  0
    1.8702   52.7725   24.0257 C   0  0  0  0  0  0
    2.2273   52.5116   22.6938 N   0  0  0  0  0  0
    2.0846   51.3491   21.9663 C   0  0  0  0  0  0
    1.5016   49.8751   22.4816 S   0  0  0  0  0  0
    2.4661   51.3868   20.6546 N   0  0  0  0  0  0
    3.1838   52.3357   19.9812 C   0  0  0  0  0  0
    2.8895   52.8967   18.7950 C   0  0  0  0  0  0
    3.9227   53.7652   18.4814 N   0  0  0  0  0  0
    4.8351   53.7381   19.5375 N   0  0  0  0  0  0
    4.4740   52.8060   20.4416 C   0  0  0  0  0  0
    5.1045   52.4272   21.4305 O   0  0  0  0  0  0
    6.0499   54.4592   19.5474 C   0  0  0  0  0  0
    6.8593   54.4818   18.4063 C   0  0  0  0  0  0
    8.0999   55.1138   18.4481 C   0  0  0  0  0  0
    8.5310   55.7081   19.6323 C   0  0  0  0  0  0
    7.7284   55.6969   20.7697 C   0  0  0  0  0  0
    6.4745   55.0977   20.7211 C   0  0  0  0  0  0
    3.6137   55.1286   18.0432 C   0  0  0  0  0  0
    1.7149   52.7069   17.8521 C   0  0  0  0  0  0
   -0.2527   52.6282   27.3705 C   0  0  0  0  0  0
    0.1551   51.4166   28.2296 C   0  0  0  0  0  0
    1.6447   51.3602   28.6414 C   0  0  0  0  0  0
    2.1930   52.5889   29.3971 C   0  0  0  0  0  0
    3.0944   53.5144   28.5520 C   0  0  0  0  0  0
    2.3685   54.3417   27.4707 C   0  0  0  0  0  0
    7.7482   54.4998   27.2256 H   0  0  0  0  0  0
    6.1943   54.9150   27.9439 H   0  0  0  0  0  0
    6.5550   53.2440   27.5133 H   0  0  0  0  0  0
    6.6288   53.8981   25.0744 H   0  0  0  0  0  0
    6.1936   55.5521   25.5044 H   0  0  0  0  0  0
    2.8952   53.1686   22.3123 H   0  0  0  0  0  0
    2.2401   50.5668   20.1110 H   0  0  0  0  0  0
    6.5429   53.9879   17.4980 H   0  0  0  0  0  0
    8.7332   55.1211   17.5738 H   0  0  0  0  0  0
    9.5042   56.1751   19.6701 H   0  0  0  0  0  0
    8.0836   56.1381   21.6902 H   0  0  0  0  0  0
    5.8615   55.0818   21.6100 H   0  0  0  0  0  0
    2.8188   55.1362   17.2963 H   0  0  0  0  0  0
    3.2988   55.7513   18.8814 H   0  0  0  0  0  0
    4.4824   55.5995   17.5807 H   0  0  0  0  0  0
    1.0324   51.9481   18.2364 H   0  0  0  0  0  0
    1.1543   53.6349   17.7365 H   0  0  0  0  0  0
    2.0674   52.3810   16.8720 H   0  0  0  0  0  0
   -1.2695   52.4758   27.0052 H   0  0  0  0  0  0
   -0.3151   53.5079   28.0113 H   0  0  0  0  0  0
   -0.0847   50.5018   27.6829 H   0  0  0  0  0  0
   -0.4713   51.3869   29.1236 H   0  0  0  0  0  0
    2.2645   51.1431   27.7719 H   0  0  0  0  0  0
    1.7694   50.4968   29.2810 H   0  0  0  0  0  0
    2.7910   52.2297   30.2369 H   0  0  0  0  0  0
    1.3799   53.1568   29.8512 H   0  0  0  0  0  0
    3.9052   52.9376   28.1056 H   0  0  0  0  0  0
    3.5835   54.2127   29.2321 H   0  0  0  0  0  0
    1.5119   54.8401   27.9240 H   0  0  0  0  0  0
    2.9947   55.1889   27.1941 H   0  0  0  0  0  0
  1  2  1  0  0  0
  1 35  1  0  0  0
  1 36  1  0  0  0
  1 37  1  0  0  0
  2  3  1  0  0  0
  2 38  1  0  0  0
  2 39  1  0  0  0
  3  4  1  0  0  0
  4  5  2  0  0  0
  4  6  1  0  0  0
  6 10  2  0  0  0
  6  7  1  0  0  0
  7 34  1  0  0  0
  7  8  2  0  0  0
  8  9  1  0  0  0
  8 29  1  0  0  0
  9 10  1  0  0  0
 10 11  1  0  0  0
 11 12  1  0  0  0
 11 40  1  0  0  0
 12 13  2  0  0  0
 12 14  1  0  0  0
 14 15  1  0  0  0
 14 41  1  0  0  0
 15 19  1  0  0  0
 15 16  2  0  0  0
 16 17  1  0  0  0
 16 28  1  0  0  0
 17 18  1  0  0  0
 17 27  1  0  0  0
 18 19  1  0  0  0
 18 21  1  0  0  0
 19 20  2  0  0  0
 21 26  2  0  0  0
 21 22  1  0  0  0
 22 23  2  0  0  0
 22 42  1  0  0  0
 23 24  1  0  0  0
 23 43  1  0  0  0
 24 25  2  0  0  0
 24 44  1  0  0  0
 25 26  1  0  0  0
 25 45  1  0  0  0
 26 46  1  0  0  0
 27 47  1  0  0  0
 27 48  1  0  0  0
 27 49  1  0  0  0
 28 50  1  0  0  0
 28 51  1  0  0  0
 28 52  1  0  0  0
 29 30  1  0  0  0
 29 53  1  0  0  0
 29 54  1  0  0  0
 30 31  1  0  0  0
 30 55  1  0  0  0
 30 56  1  0  0  0
 31 32  1  0  0  0
 31 57  1  0  0  0
 31 58  1  0  0  0
 32 33  1  0  0  0
 32 59  1  0  0  0
 32 60  1  0  0  0
 33 34  1  0  0  0
 33 61  1  0  0  0
 33 62  1  0  0  0
 34 63  1  0  0  0
 34 64  1  0  0  0
M  END
> <i_i_glide_confnum>
364

> <i_i_glide_lignum>
5276

> <i_i_glide_posenum>
241

> <i_i_glide_rotatable_bonds>
8

> <i_m_Source_File_Index>
3144

> <b_m_subgroup_collapsed>
0

> <r_i_docking_score>
-5.2738

> <r_i_glide_ecoul>
-1.78125

> <r_i_glide_eff_state_penalty>
0

> <r_i_glide_einternal>
6.14753

> <r_i_glide_emodel>
-59.8683

> <r_i_glide_energy>
-47.6463

> <r_i_glide_erotb>
0.57448

> <r_i_glide_esite>
-0.0415295

> <r_i_glide_evdw>
-45.8651

> <r_i_glide_gscore>
-5.2738

> <r_i_glide_hbond>
0

> <r_i_glide_ligand_efficiency>
-0.155112

> <r_i_glide_ligand_efficiency_ln>
-1.16513

> <r_i_glide_ligand_efficiency_sa>
-0.502502

> <r_i_glide_lipo>
-2.59474

> <r_i_glide_metal>
0

> <r_i_glide_rewards>
-0.651568

> <s_i_glide_gridfile>
wee1_glide-grid

> <s_m_Source_File>
wee1_decoys_glide_SP.sdf

> <s_m_Source_Path>
/Users/zhangxujun/Desktop

> <s_m_entry_id>
3419

> <s_m_entry_name>
wee1_decoys_glide_SP.3144

> <s_m_subgroup_title>
wee1_decoys_glide_SP

> <s_m_subgroupid>
wee1_decoys_glide_SP


$$$$
