@<TRIPOS>MOLECULE
ZINC20058168_3764
43   45    1
SMALL
USER_CHARGES


@<TRIPOS>ATOM
      1 C1          1.9047   49.7870   23.3520 C.3       1 UNK         0.0000 
      2 C2          1.7181   49.4809   21.8482 C.3       1 UNK         0.0000 
      3 C3          0.2681   49.6174   21.4085 C.2       1 UNK         0.0000 
      4 C4         -0.7694   49.8344   22.2396 C.2       1 UNK         0.0000 
      5 C5         -0.6809   49.9244   23.7656 C.3       1 UNK         0.0000 
      6 H6         -1.3902   49.1598   24.0766 H         1 UNK         0.0000 
      7 C7          0.7042   49.4129   24.2567 C.3       1 UNK         0.0000 
      8 C8         -1.2045   51.3188   24.3002 C.3       1 UNK         0.0000 
      9 H9         -1.9937   51.5719   23.5880 H         1 UNK         0.0000 
     10 C10        -0.2223   52.5255   24.2342 C.3       1 UNK         0.0000 
     11 H11        -0.8368   53.4140   24.3898 H         1 UNK         0.0000 
     12 C12         0.4715   52.7831   22.8801 C.3       1 UNK         0.0000 
     13 C13         1.5046   53.9192   22.9842 C.3       1 UNK         0.0000 
     14 C14         2.5944   53.6154   24.0245 C.3       1 UNK         0.0000 
     15 C15         2.0010   53.0225   25.2957 C.2       1 UNK         0.0000 
     16 C16         0.7453   52.5297   25.4301 C.2       1 UNK         0.0000 
     17 C17         0.2427   52.0743   26.7289 C.2       1 UNK         0.0000 
     18 C18        -0.9978   51.5516   26.8743 C.2       1 UNK         0.0000 
     19 C19        -1.9582   51.3194   25.6876 C.3       1 UNK         0.0000 
     20 C20        -2.7561   50.0887   25.8671 C.1       1 UNK         0.0000 
     21 N21        -3.3919   49.1304   25.9989 N.1       1 UNK         0.0000 
     22 C22        -2.9339   52.4274   25.7019 C.1       1 UNK         0.0000 
     23 N23        -3.7003   53.2949   25.7097 N.1       1 UNK         0.0000 
     24 N24        -1.5350   51.2962   28.1169 N.pl3     1 UNK         0.0000 
     25 C25         1.0631   52.2288   27.8971 C.1       1 UNK         0.0000 
     26 N26         1.7216   52.3262   28.8452 N.1       1 UNK         0.0000 
     27 H27         2.8126   49.2969   23.6807 H         1 UNK         0.0000 
     28 H28         2.1989   50.8120   23.5333 H         1 UNK         0.0000 
     29 H29         2.0408   48.4639   21.6372 H         1 UNK         0.0000 
     30 H30         2.3739   50.1166   21.2519 H         1 UNK         0.0000 
     31 H31         0.0537   49.5548   20.3513 H         1 UNK         0.0000 
     32 H32        -1.7451   49.9260   21.7837 H         1 UNK         0.0000 
     33 H33         0.8870   49.7294   25.2823 H         1 UNK         0.0000 
     34 H34         0.6684   48.3239   24.3217 H         1 UNK         0.0000 
     35 H35        -0.2892   52.8975   22.1123 H         1 UNK         0.0000 
     36 H36         0.9717   51.9330   22.4659 H         1 UNK         0.0000 
     37 H37         1.9735   54.0963   22.0192 H         1 UNK         0.0000 
     38 H38         1.0027   54.8456   23.2669 H         1 UNK         0.0000 
     39 H39         3.3264   52.9204   23.6128 H         1 UNK         0.0000 
     40 H40         3.1478   54.5278   24.2506 H         1 UNK         0.0000 
     41 H41         2.6532   53.0184   26.1573 H         1 UNK         0.0000 
     42 H42        -2.3146   50.6565   28.2112 H         1 UNK         0.0000 
     43 H43        -0.9740   51.4167   28.9493 H         1 UNK         0.0000 
@<TRIPOS>BOND
     1    1    7 1    
     2    1    2 1    
     3    1   27 1    
     4    1   28 1    
     5    2    3 1    
     6    2   29 1    
     7    2   30 1    
     8    3    4 2    
     9    3   31 1    
    10    4    5 1    
    11    4   32 1    
    12    5    6 1    
    13    5    7 1    
    14    5    8 1    
    15    7   33 1    
    16    7   34 1    
    17    8    9 1    
    18    8   19 1    
    19    8   10 1    
    20   10   11 1    
    21   10   16 1    
    22   10   12 1    
    23   12   13 1    
    24   12   35 1    
    25   12   36 1    
    26   13   14 1    
    27   13   37 1    
    28   13   38 1    
    29   14   15 1    
    30   14   39 1    
    31   14   40 1    
    32   15   16 2    
    33   15   41 1    
    34   16   17 1    
    35   17   18 2    
    36   17   25 1    
    37   18   19 1    
    38   18   24 1    
    39   19   20 1    
    40   19   22 1    
    41   20   21 3    
    42   22   23 3    
    43   24   42 1    
    44   24   43 1    
    45   25   26 3    
@<TRIPOS>SUBSTRUCTURE
     1 UNK         1 GROUP             0       ****    0 ROOT    
