@<TRIPOS>MOLECULE
ZINC34716129_4627
77   81    1
SMALL
USER_CHARGES


@<TRIPOS>ATOM
      1 C1          0.6882   54.1917   28.5855 C.3       1 UNK         0.0000 
      2 C2          1.9154   53.3449   28.1415 C.3       1 UNK         0.0000 
      3 C3          1.4404   51.9029   27.7802 C.3       1 UNK         0.0000 
      4 C4          0.6340   51.8249   26.4693 C.3       1 UNK         0.0000 
      5 C5          1.4260   52.3697   25.2483 C.3       1 UNK         0.0000 
      6 H6          2.3043   51.7595   25.1154 H         1 UNK         0.0000 
      7 C7          1.9584   53.8088   25.5311 C.3       1 UNK         0.0000 
      8 H8          1.1051   54.4635   25.5238 H         1 UNK         0.0000 
      9 C9          2.6648   53.9811   26.9227 C.3       1 UNK         0.0000 
     10 H10         2.7266   55.0486   27.1383 H         1 UNK         0.0000 
     11 C11         4.1000   53.4426   27.0224 C.3       1 UNK         0.0000 
     12 C12         4.3701   53.1212   28.4968 C.3       1 UNK         0.0000 
     13 C13         3.0385   53.3285   29.2461 C.3       1 UNK         0.0000 
     14 C14         2.8463   52.3184   30.3980 C.3       1 UNK         0.0000 
     15 O15         3.1117   54.5574   29.9416 O.3       1 UNK         0.0000 
     16 C16         2.8502   54.2648   24.3536 C.3       1 UNK         0.0000 
     17 C17         2.0959   54.2203   23.0154 C.3       1 UNK         0.0000 
     18 C18         1.6064   52.7969   22.7724 C.2       1 UNK         0.0000 
     19 C19         2.0016   52.0770   21.6968 C.2       1 UNK         0.0000 
     20 C20         1.6378   50.7165   21.4160 C.2       1 UNK         0.0000 
     21 N21         2.0251   50.1703   20.3310 N.2       1 UNK         0.0000 
     22 O22         1.5233   48.8575   20.1643 O.3       1 UNK         0.0000 
     23 C23         1.4338   48.5343   18.7722 C.3       1 UNK         0.0000 
     24 C24         0.1293   49.0622   18.1351 C.2       1 UNK         0.0000 
     25 O25        -0.2356   48.6124   17.0490 O.2       1 UNK         0.0000 
     26 N26        -0.5673   49.9992   18.8009 N.am      1 UNK         0.0000 
     27 C27        -1.8293   50.6248   18.3816 C.3       1 UNK         0.0000 
     28 H28        -1.7608   50.9335   17.3371 H         1 UNK         0.0000 
     29 C29        -3.0081   49.6305   18.5881 C.3       1 UNK         0.0000 
     30 C30        -4.3703   50.0877   18.0873 C.ar      1 UNK         0.0000 
     31 C31        -5.2463   50.7884   18.9455 C.ar      1 UNK         0.0000 
     32 C32        -6.4464   51.2877   18.4608 C.ar      1 UNK         0.0000 
     33 C33        -6.7867   51.1168   17.1246 C.ar      1 UNK         0.0000 
     34 C34        -5.9190   50.4617   16.2585 C.ar      1 UNK         0.0000 
     35 C35        -4.7093   49.9603   16.7215 C.ar      1 UNK         0.0000 
     36 C36        -2.0645   51.9021   19.2573 C.2       1 UNK         0.0000 
     37 O37        -2.4962   52.8957   18.6322 O.co2     1 UNK         0.0000 
     38 O38        -1.8306   51.7867   20.4830 O.co2     1 UNK         0.0000 
     39 C39         0.8152   50.1132   22.4398 C.2       1 UNK         0.0000 
     40 C40         0.3756   50.7534   23.5416 C.2       1 UNK         0.0000 
     41 C41         0.6683   52.2283   23.8812 C.3       1 UNK         0.0000 
     42 C42        -0.6902   52.9719   23.8503 C.3       1 UNK         0.0000 
     43 H43         0.9169   55.2577   28.6416 H         1 UNK         0.0000 
     44 H44        -0.1681   54.0921   27.9246 H         1 UNK         0.0000 
     45 H45         0.3417   53.8853   29.5729 H         1 UNK         0.0000 
     46 H46         0.8643   51.4747   28.6012 H         1 UNK         0.0000 
     47 H47         2.3045   51.2498   27.6819 H         1 UNK         0.0000 
     48 H48        -0.3112   52.3532   26.5734 H         1 UNK         0.0000 
     49 H49         0.3511   50.7858   26.3010 H         1 UNK         0.0000 
     50 H50         4.1736   52.5057   26.4831 H         1 UNK         0.0000 
     51 H51         4.8365   54.1187   26.5857 H         1 UNK         0.0000 
     52 H52         4.7292   52.0970   28.5951 H         1 UNK         0.0000 
     53 H53         5.1675   53.7653   28.8753 H         1 UNK         0.0000 
     54 H54         2.8966   51.2971   30.0270 H         1 UNK         0.0000 
     55 H55         3.6248   52.4141   31.1593 H         1 UNK         0.0000 
     56 H56         1.8820   52.4432   30.8933 H         1 UNK         0.0000 
     57 H57         3.2389   55.2518   29.2905 H         1 UNK         0.0000 
     58 H58         3.7592   53.6645   24.3007 H         1 UNK         0.0000 
     59 H59         3.1922   55.2837   24.5351 H         1 UNK         0.0000 
     60 H60         2.7491   54.5527   22.2063 H         1 UNK         0.0000 
     61 H61         1.2500   54.9037   23.0115 H         1 UNK         0.0000 
     62 H62         2.6554   52.5741   20.9933 H         1 UNK         0.0000 
     63 H63         1.4248   47.4479   18.6926 H         1 UNK         0.0000 
     64 H64         2.3035   48.8661   18.1991 H         1 UNK         0.0000 
     65 H65        -0.1787   50.3625   19.6616 H         1 UNK         0.0000 
     66 H66        -3.0984   49.3603   19.6413 H         1 UNK         0.0000 
     67 H67        -2.7834   48.6966   18.0701 H         1 UNK         0.0000 
     68 H68        -4.9773   50.9387   19.9815 H         1 UNK         0.0000 
     69 H69        -7.1159   51.8183   19.1255 H         1 UNK         0.0000 
     70 H70        -7.7254   51.5026   16.7551 H         1 UNK         0.0000 
     71 H71        -6.1841   50.3464   15.2176 H         1 UNK         0.0000 
     72 H72        -4.0283   49.4733   16.0366 H         1 UNK         0.0000 
     73 H73         0.5159   49.0777   22.3416 H         1 UNK         0.0000 
     74 H74        -0.2449   50.1814   24.2192 H         1 UNK         0.0000 
     75 H75        -1.1562   52.8958   22.8683 H         1 UNK         0.0000 
     76 H76        -1.3981   52.5566   24.5688 H         1 UNK         0.0000 
     77 H77        -0.5899   54.0308   24.0787 H         1 UNK         0.0000 
@<TRIPOS>BOND
     1    1    2 1    
     2    1   43 1    
     3    1   44 1    
     4    1   45 1    
     5    2    9 1    
     6    2   13 1    
     7    2    3 1    
     8    3    4 1    
     9    3   46 1    
    10    3   47 1    
    11    4    5 1    
    12    4   48 1    
    13    4   49 1    
    14    5    6 1    
    15    5   41 1    
    16    5    7 1    
    17    7    8 1    
    18    7    9 1    
    19    7   16 1    
    20    9   10 1    
    21    9   11 1    
    22   11   12 1    
    23   11   50 1    
    24   11   51 1    
    25   12   13 1    
    26   12   52 1    
    27   12   53 1    
    28   13   14 1    
    29   13   15 1    
    30   14   54 1    
    31   14   55 1    
    32   14   56 1    
    33   15   57 1    
    34   16   17 1    
    35   16   58 1    
    36   16   59 1    
    37   17   18 1    
    38   17   60 1    
    39   17   61 1    
    40   18   41 1    
    41   18   19 2    
    42   19   20 1    
    43   19   62 1    
    44   20   21 2    
    45   20   39 1    
    46   21   22 1    
    47   22   23 1    
    48   23   24 1    
    49   23   63 1    
    50   23   64 1    
    51   24   25 2    
    52   24   26 am   BACKBONE|DICT|INTERRES
    53   26   27 1    
    54   26   65 1    
    55   27   28 1    
    56   27   29 1    
    57   27   36 1    
    58   29   30 1    
    59   29   66 1    
    60   29   67 1    
    61   30   35 ar   
    62   30   31 ar   
    63   31   32 ar   
    64   31   68 1    
    65   32   33 ar   
    66   32   69 1    
    67   33   34 ar   
    68   33   70 1    
    69   34   35 ar   
    70   34   71 1    
    71   35   72 1    
    72   36   37 2    
    73   36   38 1    
    74   39   40 2    
    75   39   73 1    
    76   40   41 1    
    77   40   74 1    
    78   41   42 1    
    79   42   75 1    
    80   42   76 1    
    81   42   77 1    
@<TRIPOS>SUBSTRUCTURE
     1 UNK         1 GROUP             0       ****    0 ROOT    
