@<TRIPOS>MOLECULE
ZINC33939959_2058
73   77    1
SMALL
USER_CHARGES


@<TRIPOS>ATOM
      1 C1         -3.5707   50.1122   24.0837 C.3       1 UNK         0.0000 
      2 C2         -2.7762   50.2374   25.4021 C.3       1 UNK         0.0000 
      3 H3         -2.7255   49.2534   25.8753 H         1 UNK         0.0000 
      4 C4         -3.5072   51.1583   26.4030 C.3       1 UNK         0.0000 
      5 C5         -2.8192   51.1047   27.7810 C.3       1 UNK         0.0000 
      6 C6         -1.3316   51.5022   27.6822 C.3       1 UNK         0.0000 
      7 C7         -0.5697   50.7356   26.5744 C.3       1 UNK         0.0000 
      8 C8         -1.3140   50.7468   25.2221 C.3       1 UNK         0.0000 
      9 H9         -1.3627   51.8032   24.9379 H         1 UNK         0.0000 
     10 N10        -0.5302   50.0796   24.1802 N.am      1 UNK         0.0000 
     11 C11        -0.4320   50.4419   22.8917 C.2       1 UNK         0.0000 
     12 O12        -1.0193   51.4196   22.4237 O.2       1 UNK         0.0000 
     13 C13         0.5081   49.5667   22.0188 C.3       1 UNK         0.0000 
     14 H14         0.6375   48.6233   22.5492 H         1 UNK         0.0000 
     15 C15         1.9009   50.2060   21.6879 C.3       1 UNK         0.0000 
     16 H16         2.7104   49.5609   22.0312 H         1 UNK         0.0000 
     17 C17         2.2569   51.6536   22.0872 C.2       1 UNK         0.0000 
     18 O18         2.2776   52.0944   23.2374 O.2       1 UNK         0.0000 
     19 N19         2.6760   52.2736   20.9559 N.am      1 UNK         0.0000 
     20 C20         2.7257   51.4029   19.7667 C.3       1 UNK         0.0000 
     21 H21         3.7519   51.0672   19.6120 H         1 UNK         0.0000 
     22 C22         1.8250   50.2387   20.1726 C.3       1 UNK         0.0000 
     23 C23         1.9651   48.8763   19.5293 C.2       1 UNK         0.0000 
     24 C24         0.8198   48.2484   19.8464 C.2       1 UNK         0.0000 
     25 C25        -0.0418   49.2776   20.5795 C.3       1 UNK         0.0000 
     26 O26         0.4340   50.4501   19.9679 O.3       1 UNK         0.0000 
     27 C27        -1.5530   49.0899   20.3370 C.3       1 UNK         0.0000 
     28 C28         2.2504   52.1296   18.4866 C.2       1 UNK         0.0000 
     29 O29         1.1792   52.7391   18.4459 O.2       1 UNK         0.0000 
     30 N30         3.1045   52.0967   17.4537 N.am      1 UNK         0.0000 
     31 C31         2.9551   52.8069   16.1826 C.3       1 UNK         0.0000 
     32 C32         3.1157   54.3436   16.3302 C.3       1 UNK         0.0000 
     33 C33         4.5338   54.7341   16.8055 C.3       1 UNK         0.0000 
     34 C34         5.6198   54.1732   15.8590 C.3       1 UNK         0.0000 
     35 C35         5.4494   52.6621   15.5843 C.3       1 UNK         0.0000 
     36 C36         4.0031   52.3217   15.1531 C.3       1 UNK         0.0000 
     37 C37         3.3824   53.5556   21.0474 C.3       1 UNK         0.0000 
     38 C38         4.8743   53.4222   21.2712 C.2       1 UNK         0.0000 
     39 C39         5.5041   53.8808   22.3645 C.2       1 UNK         0.0000 
     40 H40        -3.6163   51.0648   23.5539 H         1 UNK         0.0000 
     41 H41        -3.1208   49.3797   23.4126 H         1 UNK         0.0000 
     42 H42        -4.5952   49.7859   24.2679 H         1 UNK         0.0000 
     43 H43        -3.5817   52.1767   26.0167 H         1 UNK         0.0000 
     44 H44        -4.5412   50.8280   26.5155 H         1 UNK         0.0000 
     45 H45        -2.8955   50.0967   28.1883 H         1 UNK         0.0000 
     46 H46        -3.3413   51.7426   28.4922 H         1 UNK         0.0000 
     47 H47        -0.8417   51.3431   28.6439 H         1 UNK         0.0000 
     48 H48        -1.2620   52.5708   27.4811 H         1 UNK         0.0000 
     49 H49        -0.4297   49.6988   26.8816 H         1 UNK         0.0000 
     50 H50         0.4281   51.1612   26.4612 H         1 UNK         0.0000 
     51 H51        -0.0086   49.2735   24.4883 H         1 UNK         0.0000 
     52 H52         2.8446   48.5117   19.0165 H         1 UNK         0.0000 
     53 H53         0.5258   47.2311   19.6404 H         1 UNK         0.0000 
     54 H54        -1.9333   48.2315   20.8904 H         1 UNK         0.0000 
     55 H55        -2.1284   49.9643   20.6393 H         1 UNK         0.0000 
     56 H56        -1.7621   48.9274   19.2789 H         1 UNK         0.0000 
     57 H57         3.9425   51.5259   17.5506 H         1 UNK         0.0000 
     58 H58         1.9537   52.5902   15.8053 H         1 UNK         0.0000 
     59 H59         2.3734   54.7357   17.0282 H         1 UNK         0.0000 
     60 H60         2.9016   54.8308   15.3773 H         1 UNK         0.0000 
     61 H61         4.6996   54.3574   17.8164 H         1 UNK         0.0000 
     62 H62         4.6204   55.8198   16.8687 H         1 UNK         0.0000 
     63 H63         6.6110   54.3658   16.2730 H         1 UNK         0.0000 
     64 H64         5.5796   54.7137   14.9120 H         1 UNK         0.0000 
     65 H65         5.7118   52.0974   16.4807 H         1 UNK         0.0000 
     66 H66         6.1514   52.3425   14.8133 H         1 UNK         0.0000 
     67 H67         3.7974   52.7712   14.1804 H         1 UNK         0.0000 
     68 H68         3.9056   51.2447   15.0079 H         1 UNK         0.0000 
     69 H69         3.1933   54.1077   20.1296 H         1 UNK         0.0000 
     70 H70         2.9526   54.1580   21.8506 H         1 UNK         0.0000 
     71 H71         5.4341   52.9263   20.4917 H         1 UNK         0.0000 
     72 H72         6.5709   53.7684   22.4844 H         1 UNK         0.0000 
     73 H73         4.9640   54.3752   23.1589 H         1 UNK         0.0000 
@<TRIPOS>BOND
     1    1    2 1    
     2    1   40 1    
     3    1   41 1    
     4    1   42 1    
     5    2    3 1    
     6    2    8 1    
     7    2    4 1    
     8    4    5 1    
     9    4   43 1    
    10    4   44 1    
    11    5    6 1    
    12    5   45 1    
    13    5   46 1    
    14    6    7 1    
    15    6   47 1    
    16    6   48 1    
    17    7    8 1    
    18    7   49 1    
    19    7   50 1    
    20    8    9 1    
    21    8   10 1    
    22   10   11 am   BACKBONE|DICT|INTERRES
    23   10   51 1    
    24   11   12 2    
    25   11   13 1    
    26   13   14 1    
    27   13   25 1    
    28   13   15 1    
    29   15   16 1    
    30   15   22 1    
    31   15   17 1    
    32   17   18 2    
    33   17   19 am   BACKBONE|DICT|INTERRES
    34   19   20 1    
    35   19   37 1    
    36   20   21 1    
    37   20   22 1    
    38   20   28 1    
    39   22   26 1    
    40   22   23 1    
    41   23   24 2    
    42   23   52 1    
    43   24   25 1    
    44   24   53 1    
    45   25   26 1    
    46   25   27 1    
    47   27   54 1    
    48   27   55 1    
    49   27   56 1    
    50   28   29 2    
    51   28   30 am   BACKBONE|DICT|INTERRES
    52   30   31 1    
    53   30   57 1    
    54   31   36 1    
    55   31   32 1    
    56   31   58 1    
    57   32   33 1    
    58   32   59 1    
    59   32   60 1    
    60   33   34 1    
    61   33   61 1    
    62   33   62 1    
    63   34   35 1    
    64   34   63 1    
    65   34   64 1    
    66   35   36 1    
    67   35   65 1    
    68   35   66 1    
    69   36   67 1    
    70   36   68 1    
    71   37   38 1    
    72   37   69 1    
    73   37   70 1    
    74   38   39 2    
    75   38   71 1    
    76   39   72 1    
    77   39   73 1    
@<TRIPOS>SUBSTRUCTURE
     1 UNK         1 GROUP             0       ****    0 ROOT    
