ZINC36818912_2372
                    3D
 Schrodinger Suite 2024-2.
 43 46  0  0  1  0            999 V2000
    0.3919   51.6962   29.0075 C   0  0  0  0  0  0
   -0.2758   52.7170   29.6692 C   0  0  0  0  0  0
    0.3421   53.9526   29.8432 C   0  0  0  0  0  0
    1.6354   54.1734   29.3647 C   0  0  0  0  0  0
    2.3219   53.1272   28.7124 C   0  0  0  0  0  0
    1.6947   51.8876   28.5552 C   0  0  0  0  0  0
    3.6538   53.2031   28.2904 N   0  0  0  0  0  0
    4.1458   54.0495   27.3686 C   0  0  0  0  0  0
    3.4780   54.8965   26.7811 O   0  0  0  0  0  0
    5.6283   53.8561   27.0494 C   0  0  0  0  0  0
    6.3952   55.0989   25.9726 S   0  0  0  0  0  0
    5.9158   54.8326   24.2922 C   0  0  0  0  0  0
    6.7517   55.3867   23.3954 N   0  0  0  0  0  0
    6.5300   55.1583   22.0843 C   0  0  0  0  0  0
    5.4239   54.3963   21.6499 C   0  0  0  0  0  0
    4.9621   53.9987   20.3529 C   0  0  0  0  0  0
    3.8015   53.2311   20.4406 C   0  0  0  0  0  0
    3.2531   52.9577   22.0801 S   0  0  0  0  0  0
    4.5968   53.8929   22.7021 C   0  0  0  0  0  0
    4.8142   54.0860   24.0102 N   0  0  0  0  0  0
    3.0783   52.6263   19.2469 C   0  0  0  0  0  0
    3.4662   53.4043   17.9733 C   0  0  0  0  0  0
    4.9911   53.5642   17.8571 C   0  0  0  0  0  0
    5.6013   54.3823   19.0165 C   0  0  0  0  0  0
    7.4752   55.6966   21.2111 N   0  0  0  0  0  0
    2.3971   55.8919   29.6812 Br  0  0  0  0  0  0
   -0.0957   50.7418   28.8674 H   0  0  0  0  0  0
   -1.2736   52.5413   30.0415 H   0  0  0  0  0  0
   -0.1775   54.7451   30.3638 H   0  0  0  0  0  0
    2.2033   51.0673   28.0708 H   0  0  0  0  0  0
    4.2247   52.3972   28.4927 H   0  0  0  0  0  0
    6.1904   53.8459   27.9846 H   0  0  0  0  0  0
    5.7653   52.8882   26.5744 H   0  0  0  0  0  0
    3.3621   51.5777   19.1348 H   0  0  0  0  0  0
    1.9967   52.6443   19.3869 H   0  0  0  0  0  0
    3.0803   52.8793   17.0969 H   0  0  0  0  0  0
    2.9906   54.3869   17.9765 H   0  0  0  0  0  0
    5.4513   52.5727   17.8315 H   0  0  0  0  0  0
    5.2464   54.0290   16.9037 H   0  0  0  0  0  0
    5.4492   55.4475   18.8334 H   0  0  0  0  0  0
    6.6796   54.2175   19.0292 H   0  0  0  0  0  0
    7.3994   55.5203   20.2200 H   0  0  0  0  0  0
    8.2909   56.1380   21.6094 H   0  0  0  0  0  0
  1  6  2  0  0  0
  1  2  1  0  0  0
  1 27  1  0  0  0
  2  3  2  0  0  0
  2 28  1  0  0  0
  3  4  1  0  0  0
  3 29  1  0  0  0
  4  5  2  0  0  0
  4 26  1  0  0  0
  5  6  1  0  0  0
  5  7  1  0  0  0
  6 30  1  0  0  0
  7  8  1  0  0  0
  7 31  1  0  0  0
  8  9  2  0  0  0
  8 10  1  0  0  0
 10 11  1  0  0  0
 10 32  1  0  0  0
 10 33  1  0  0  0
 11 12  1  0  0  0
 12 20  2  0  0  0
 12 13  1  0  0  0
 13 14  2  0  0  0
 14 15  1  0  0  0
 14 25  1  0  0  0
 15 19  2  0  0  0
 15 16  1  0  0  0
 16 24  1  0  0  0
 16 17  2  0  0  0
 17 18  1  0  0  0
 17 21  1  0  0  0
 18 19  1  0  0  0
 19 20  1  0  0  0
 21 22  1  0  0  0
 21 34  1  0  0  0
 21 35  1  0  0  0
 22 23  1  0  0  0
 22 36  1  0  0  0
 22 37  1  0  0  0
 23 24  1  0  0  0
 23 38  1  0  0  0
 23 39  1  0  0  0
 24 40  1  0  0  0
 24 41  1  0  0  0
 25 42  1  0  0  0
 25 43  1  0  0  0
M  END
> <i_i_glide_confnum>
20

> <i_i_glide_lignum>
2373

> <i_i_glide_posenum>
42

> <i_i_glide_rotatable_bonds>
5

> <i_m_Source_File_Index>
1749

> <b_m_subgroup_collapsed>
0

> <r_i_docking_score>
-6.00233

> <r_i_glide_ecoul>
-3.10412

> <r_i_glide_eff_state_penalty>
0

> <r_i_glide_einternal>
5.67149

> <r_i_glide_emodel>
-63.5007

> <r_i_glide_energy>
-48.348

> <r_i_glide_erotb>
0.396938

> <r_i_glide_esite>
0

> <r_i_glide_evdw>
-45.2439

> <r_i_glide_gscore>
-6.00233

> <r_i_glide_hbond>
0

> <r_i_glide_ligand_efficiency>
-0.230859

> <r_i_glide_ligand_efficiency_ln>
-1.40963

> <r_i_glide_ligand_efficiency_sa>
-0.683918

> <r_i_glide_lipo>
-2.49943

> <r_i_glide_metal>
0

> <r_i_glide_rewards>
-1.17203

> <s_i_glide_gridfile>
wee1_glide-grid

> <s_m_Source_File>
wee1_decoys_glide_SP.sdf

> <s_m_Source_Path>
/Users/zhangxujun/Desktop

> <s_m_entry_id>
2024

> <s_m_entry_name>
wee1_decoys_glide_SP.1749

> <s_m_subgroup_title>
wee1_decoys_glide_SP

> <s_m_subgroupid>
wee1_decoys_glide_SP


$$$$
