ZINC16887139_677
                    3D
 Schrodinger Suite 2024-2.
 46 48  0  0  1  0            999 V2000
   -1.1162   48.7437   21.6746 C   0  0  0  0  0  0
   -1.0551   49.7793   22.7796 C   0  0  0  0  0  0
   -0.5278   51.0812   22.7477 C   0  0  0  0  0  0
   -0.7868   51.8120   24.3131 S   0  0  0  0  0  0
   -1.5082   50.3285   24.8527 C   0  0  0  0  0  0
   -1.5582   49.3925   23.9413 N   0  0  0  0  0  0
   -1.9588   50.1736   26.1413 N   0  0  0  0  0  0
   -2.4921   51.4987   27.1882 S   0  0  0  0  0  0
   -1.4322   51.6969   28.1835 O   0  0  0  0  0  0
   -2.9415   52.5999   26.3265 O   0  0  0  0  0  0
   -3.9484   50.8971   28.0359 C   0  0  0  0  0  0
   -5.1829   50.9220   27.3824 C   0  0  0  0  0  0
   -6.3241   50.4750   28.0441 C   0  0  0  0  0  0
   -6.2234   50.0015   29.3516 C   0  0  0  0  0  0
   -4.9916   49.9677   30.0029 C   0  0  0  0  0  0
   -3.8509   50.4153   29.3428 C   0  0  0  0  0  0
    0.0282   51.8133   21.6212 C   0  0  0  0  0  0
   -0.4898   51.6968   20.5116 O   0  0  0  0  0  0
    1.1215   52.5962   21.7836 N   0  0  0  0  0  0
    1.7570   52.8202   22.9571 N   0  0  0  0  0  0
    2.8535   53.4845   22.9614 C   0  0  0  0  0  0
    3.6550   53.8526   21.6992 C   0  0  0  0  0  0
    3.4751   53.8401   24.2705 C   0  0  0  0  0  0
    2.7470   53.6965   25.4677 C   0  0  0  0  0  0
    3.3384   53.9135   26.7075 C   0  0  0  0  0  0
    4.6738   54.2889   26.7750 C   0  0  0  0  0  0
    5.4069   54.4932   25.6106 C   0  0  0  0  0  0
    4.8114   54.2710   24.3702 C   0  0  0  0  0  0
    5.5037   54.4849   28.4741 Br  0  0  0  0  0  0
   -0.6551   49.0877   20.7499 H   0  0  0  0  0  0
   -0.5977   47.8278   21.9534 H   0  0  0  0  0  0
   -2.1436   48.4730   21.4320 H   0  0  0  0  0  0
   -1.6953   49.3580   26.6891 H   0  0  0  0  0  0
   -5.2586   51.2899   26.3691 H   0  0  0  0  0  0
   -7.2820   50.4916   27.5452 H   0  0  0  0  0  0
   -7.1080   49.6511   29.8630 H   0  0  0  0  0  0
   -4.9134   49.5903   31.0124 H   0  0  0  0  0  0
   -2.8956   50.3694   29.8475 H   0  0  0  0  0  0
    1.5111   53.0761   20.9845 H   0  0  0  0  0  0
    4.5434   53.2266   21.6161 H   0  0  0  0  0  0
    3.1087   53.7033   20.7692 H   0  0  0  0  0  0
    3.9641   54.8965   21.7151 H   0  0  0  0  0  0
    1.7142   53.3781   25.4539 H   0  0  0  0  0  0
    2.7685   53.7625   27.6130 H   0  0  0  0  0  0
    6.4439   54.7879   25.6680 H   0  0  0  0  0  0
    5.4275   54.4028   23.4938 H   0  0  0  0  0  0
  1  2  1  0  0  0
  1 30  1  0  0  0
  1 31  1  0  0  0
  1 32  1  0  0  0
  2  6  1  0  0  0
  2  3  2  0  0  0
  3  4  1  0  0  0
  3 17  1  0  0  0
  4  5  1  0  0  0
  5  6  2  0  0  0
  5  7  1  0  0  0
  7  8  1  0  0  0
  7 33  1  0  0  0
  8  9  2  0  0  0
  8 10  2  0  0  0
  8 11  1  0  0  0
 11 16  2  0  0  0
 11 12  1  0  0  0
 12 13  2  0  0  0
 12 34  1  0  0  0
 13 14  1  0  0  0
 13 35  1  0  0  0
 14 15  2  0  0  0
 14 36  1  0  0  0
 15 16  1  0  0  0
 15 37  1  0  0  0
 16 38  1  0  0  0
 17 18  2  0  0  0
 17 19  1  0  0  0
 19 20  1  0  0  0
 19 39  1  0  0  0
 20 21  2  0  0  0
 21 22  1  0  0  0
 21 23  1  0  0  0
 22 40  1  0  0  0
 22 41  1  0  0  0
 22 42  1  0  0  0
 23 28  2  0  0  0
 23 24  1  0  0  0
 24 25  2  0  0  0
 24 43  1  0  0  0
 25 26  1  0  0  0
 25 44  1  0  0  0
 26 27  2  0  0  0
 26 29  1  0  0  0
 27 28  1  0  0  0
 27 45  1  0  0  0
 28 46  1  0  0  0
M  END
> <i_i_glide_confnum>
12

> <i_i_glide_lignum>
678

> <i_i_glide_posenum>
220

> <i_i_glide_rotatable_bonds>
7

> <i_m_Source_File_Index>
4802

> <b_m_subgroup_collapsed>
0

> <r_i_docking_score>
-3.79576

> <r_i_glide_ecoul>
-5.7898

> <r_i_glide_eff_state_penalty>
0

> <r_i_glide_einternal>
7.53422

> <r_i_glide_emodel>
-46.7001

> <r_i_glide_energy>
-42.6753

> <r_i_glide_erotb>
0.502079

> <r_i_glide_esite>
-0.227503

> <r_i_glide_evdw>
-36.8855

> <r_i_glide_gscore>
-3.79576

> <r_i_glide_hbond>
-0.219693

> <r_i_glide_ligand_efficiency>
-0.130888

> <r_i_glide_ligand_efficiency_ln>
-0.869134

> <r_i_glide_ligand_efficiency_sa>
-0.402131

> <r_i_glide_lipo>
-1.6984

> <r_i_glide_metal>
0

> <r_i_glide_rewards>
0.560494

> <s_i_glide_gridfile>
wee1_glide-grid

> <s_m_Source_File>
wee1_decoys_glide_SP.sdf

> <s_m_Source_Path>
/Users/zhangxujun/Desktop

> <s_m_entry_id>
5077

> <s_m_entry_name>
wee1_decoys_glide_SP.4802

> <s_m_subgroup_title>
wee1_decoys_glide_SP

> <s_m_subgroupid>
wee1_decoys_glide_SP


$$$$
