@<TRIPOS>MOLECULE
ZINC44040075_1379
52   55    1
SMALL
USER_CHARGES


@<TRIPOS>ATOM
      1 C1          4.5132   56.3933   16.0717 C.3       1 UNK         0.0000 
      2 C2          5.9996   56.8104   16.1571 C.3       1 UNK         0.0000 
      3 C3          6.2669   57.9650   15.1652 C.3       1 UNK         0.0000 
      4 C4          6.4538   57.1511   17.6099 C.3       1 UNK         0.0000 
      5 H5          5.8640   58.0171   17.9237 H         1 UNK         0.0000 
      6 C6          7.9361   57.5460   17.6728 C.ar      1 UNK         0.0000 
      7 C7          8.9341   56.5619   17.6073 C.ar      1 UNK         0.0000 
      8 C8         10.2815   56.9121   17.6825 C.ar      1 UNK         0.0000 
      9 C9         10.6390   58.2472   17.8379 C.ar      1 UNK         0.0000 
     10 C10         9.6473   59.2415   17.8896 C.ar      1 UNK         0.0000 
     11 C11         8.2997   58.8923   17.8142 C.ar      1 UNK         0.0000 
     12 O12         9.9583   60.5740   18.0816 O.3       1 UNK         0.0000 
     13 C13        11.3107   60.9021   17.7492 C.3       1 UNK         0.0000 
     14 C14        12.2827   59.8593   18.3540 C.3       1 UNK         0.0000 
     15 O15        11.9866   58.5484   17.8602 O.3       1 UNK         0.0000 
     16 N16         6.1108   56.0798   18.5611 N.am      1 UNK         0.0000 
     17 C17         6.2641   56.1469   19.8934 C.2       1 UNK         0.0000 
     18 O18         6.7032   57.1407   20.4766 O.2       1 UNK         0.0000 
     19 N19         5.8407   55.0207   20.5025 N.am      1 UNK         0.0000 
     20 C20         5.8010   54.8032   21.8879 C.ar      1 UNK         0.0000 
     21 C21         6.8031   55.2750   22.7395 C.ar      1 UNK         0.0000 
     22 C22         6.7044   55.0841   24.1115 C.ar      1 UNK         0.0000 
     23 C23         5.6111   54.4023   24.6574 C.ar      1 UNK         0.0000 
     24 C24         4.6127   53.9196   23.7965 C.ar      1 UNK         0.0000 
     25 C25         4.7180   54.0969   22.4165 C.ar      1 UNK         0.0000 
     26 N26         5.5327   54.1897   26.0596 N.pl3     1 UNK         0.0000 
     27 C27         4.4971   53.7068   26.8248 C.ar      1 UNK         0.0000 
     28 N28         4.8332   53.6512   28.0885 N.2       1 UNK         0.0000 
     29 C29         6.0766   54.0967   28.0565 C.ar      1 UNK         0.0000 
     30 N30         6.5619   54.4413   26.8850 N.2       1 UNK         0.0000 
     31 H31         3.8579   57.1828   16.4432 H         1 UNK         0.0000 
     32 H32         4.2206   56.1802   15.0418 H         1 UNK         0.0000 
     33 H33         4.3081   55.4908   16.6487 H         1 UNK         0.0000 
     34 H34         6.5792   55.9474   15.8203 H         1 UNK         0.0000 
     35 H35         5.7537   58.8783   15.4712 H         1 UNK         0.0000 
     36 H36         7.3305   58.1945   15.0899 H         1 UNK         0.0000 
     37 H37         5.9281   57.7161   14.1584 H         1 UNK         0.0000 
     38 H38         8.6622   55.5225   17.5040 H         1 UNK         0.0000 
     39 H39        11.0467   56.1482   17.6358 H         1 UNK         0.0000 
     40 H40         7.5437   59.6637   17.8684 H         1 UNK         0.0000 
     41 H41        11.4244   60.9107   16.6623 H         1 UNK         0.0000 
     42 H42        11.5435   61.9031   18.1140 H         1 UNK         0.0000 
     43 H43        13.3173   60.1075   18.1120 H         1 UNK         0.0000 
     44 H44        12.1813   59.8607   19.4410 H         1 UNK         0.0000 
     45 H45         5.5519   55.3272   18.1871 H         1 UNK         0.0000 
     46 H46         5.3863   54.3214   19.9321 H         1 UNK         0.0000 
     47 H47         7.6655   55.7991   22.3513 H         1 UNK         0.0000 
     48 H48         7.5038   55.4669   24.7285 H         1 UNK         0.0000 
     49 H49         3.7579   53.3804   24.1775 H         1 UNK         0.0000 
     50 H50         3.9404   53.7145   21.7695 H         1 UNK         0.0000 
     51 H51         3.5546   53.4219   26.3869 H         1 UNK         0.0000 
     52 H52         6.6736   54.1760   28.9557 H         1 UNK         0.0000 
@<TRIPOS>BOND
     1    1    2 1    
     2    1   31 1    
     3    1   32 1    
     4    1   33 1    
     5    2    3 1    
     6    2    4 1    
     7    2   34 1    
     8    3   35 1    
     9    3   36 1    
    10    3   37 1    
    11    4    5 1    
    12    4    6 1    
    13    4   16 1    
    14    6   11 ar   
    15    6    7 ar   
    16    7    8 ar   
    17    7   38 1    
    18    8    9 ar   
    19    8   39 1    
    20    9   15 1    
    21    9   10 ar   
    22   10   11 ar   
    23   10   12 1    
    24   11   40 1    
    25   12   13 1    
    26   13   14 1    
    27   13   41 1    
    28   13   42 1    
    29   14   15 1    
    30   14   43 1    
    31   14   44 1    
    32   16   17 am   BACKBONE|DICT|INTERRES
    33   16   45 1    
    34   17   18 2    
    35   17   19 am   BACKBONE|DICT|INTERRES
    36   19   20 1    
    37   19   46 1    
    38   20   25 ar   
    39   20   21 ar   
    40   21   22 ar   
    41   21   47 1    
    42   22   23 ar   
    43   22   48 1    
    44   23   24 ar   
    45   23   26 1    
    46   24   25 ar   
    47   24   49 1    
    48   25   50 1    
    49   26   30 ar   
    50   26   27 ar   
    51   27   28 ar   
    52   27   51 1    
    53   28   29 ar   
    54   29   30 ar   
    55   29   52 1    
@<TRIPOS>SUBSTRUCTURE
     1 UNK         1 GROUP             0       ****    0 ROOT    
