ZINC02268321_608
                    3D
 Schrodinger Suite 2024-2.
 50 53  0  0  1  0            999 V2000
    5.3011   54.3082   23.4740 C   0  0  0  0  0  0
    4.8184   54.1020   22.1815 C   0  0  0  0  0  0
    3.5028   53.6985   21.9493 C   0  0  0  0  0  0
    2.6823   53.4773   23.0648 C   0  0  0  0  0  0
    3.1616   53.6944   24.3838 C   0  0  0  0  0  0
    4.4810   54.1241   24.5890 C   0  0  0  0  0  0
    2.2827   53.3877   25.3744 N   0  0  0  0  0  0
    1.1582   52.9055   24.8991 C   0  0  0  0  0  0
    1.0277   52.8894   23.1474 S   0  0  0  0  0  0
    0.1560   52.3725   25.7200 N   0  0  0  0  0  0
   -1.1515   52.1120   25.4881 C   0  0  0  0  0  0
   -1.7808   52.2905   24.4432 O   0  0  0  0  0  0
   -1.6353   51.5872   26.7607 C   0  0  0  0  0  0
   -0.6391   51.6241   27.6679 C   0  0  0  0  0  0
    0.4822   52.0598   27.0123 N   0  0  0  0  0  0
    1.0415   52.8376   27.3329 H   0  0  0  0  0  0
   -0.5328   51.2968   29.1457 C   0  0  0  0  0  0
   -0.0938   52.7086   30.2088 S   0  0  0  0  0  0
    1.4978   53.3056   29.7284 C   0  0  0  0  0  0
    2.5209   52.4174   29.3883 C   0  0  0  0  0  0
    3.7584   52.9125   28.9836 C   0  0  0  0  0  0
    3.9651   54.2894   28.9278 C   0  0  0  0  0  0
    2.9472   55.1758   29.2808 C   0  0  0  0  0  0
    1.7094   54.6826   29.6817 C   0  0  0  0  0  0
    5.4964   54.8943   28.4140 Cl  0  0  0  0  0  0
   -2.9467   51.1765   26.9321 C   0  0  0  0  0  0
   -3.2956   50.0994   27.6282 N   0  3  0  0  0  0
   -4.7026   49.6772   27.8531 C   0  0  0  0  0  0
   -4.9219   49.3093   29.3378 C   0  0  0  0  0  0
   -4.7657   50.4629   30.3489 C   0  0  0  0  0  0
   -5.6937   51.4963   30.0766 O   0  0  0  0  0  0
    6.3266   54.6237   23.6122 H   0  0  0  0  0  0
    5.4783   54.2675   21.3416 H   0  0  0  0  0  0
    3.1348   53.5465   20.9437 H   0  0  0  0  0  0
    4.8662   54.2770   25.5863 H   0  0  0  0  0  0
    0.1952   50.4980   29.2688 H   0  0  0  0  0  0
   -1.4777   50.8967   29.5114 H   0  0  0  0  0  0
    2.3589   51.3508   29.4188 H   0  0  0  0  0  0
    4.5525   52.2326   28.7067 H   0  0  0  0  0  0
    3.1042   56.2435   29.2476 H   0  0  0  0  0  0
    0.9176   55.3680   29.9510 H   0  0  0  0  0  0
   -3.7389   51.7513   26.4726 H   0  0  0  0  0  0
   -5.3767   50.4674   27.5141 H   0  0  0  0  0  0
   -4.8449   48.8022   27.2199 H   0  0  0  0  0  0
   -5.9125   48.8682   29.4525 H   0  0  0  0  0  0
   -4.2271   48.5110   29.6113 H   0  0  0  0  0  0
   -4.8857   50.1076   31.3750 H   0  0  0  0  0  0
   -3.7706   50.8963   30.2683 H   0  0  0  0  0  0
   -6.5764   51.1540   30.2469 H   0  0  0  0  0  0
   -2.5609   49.4927   28.0254 H   0  0  0  0  0  0
  1  6  2  0  0  0
  1  2  1  0  0  0
  1 32  1  0  0  0
  2  3  2  0  0  0
  2 33  1  0  0  0
  3  4  1  0  0  0
  3 34  1  0  0  0
  4  9  1  0  0  0
  4  5  2  0  0  0
  5  6  1  0  0  0
  5  7  1  0  0  0
  6 35  1  0  0  0
  7  8  2  0  0  0
  8  9  1  0  0  0
  8 10  1  0  0  0
 10 15  1  0  0  0
 10 11  1  0  0  0
 11 12  2  0  0  0
 11 13  1  0  0  0
 13 14  2  0  0  0
 13 26  1  0  0  0
 14 15  1  0  0  0
 14 17  1  0  0  0
 15 16  1  0  0  0
 17 18  1  0  0  0
 17 36  1  0  0  0
 17 37  1  0  0  0
 18 19  1  0  0  0
 19 24  2  0  0  0
 19 20  1  0  0  0
 20 21  2  0  0  0
 20 38  1  0  0  0
 21 22  1  0  0  0
 21 39  1  0  0  0
 22 23  2  0  0  0
 22 25  1  0  0  0
 23 24  1  0  0  0
 23 40  1  0  0  0
 24 41  1  0  0  0
 26 27  2  0  0  0
 26 42  1  0  0  0
 27 28  1  0  0  0
 27 50  1  0  0  0
 28 29  1  0  0  0
 28 43  1  0  0  0
 28 44  1  0  0  0
 29 30  1  0  0  0
 29 45  1  0  0  0
 29 46  1  0  0  0
 30 31  1  0  0  0
 30 47  1  0  0  0
 30 48  1  0  0  0
 31 49  1  0  0  0
M  CHG  1  27   1
M  END
> <i_i_glide_confnum>
151

> <i_i_glide_lignum>
609

> <i_i_glide_posenum>
314

> <i_i_glide_rotatable_bonds>
9

> <i_m_Source_File_Index>
2537

> <b_m_subgroup_collapsed>
0

> <r_i_docking_score>
-5.73549

> <r_i_glide_ecoul>
-4.9606

> <r_i_glide_eff_state_penalty>
0

> <r_i_glide_einternal>
7.54057

> <r_i_glide_emodel>
-65.9707

> <r_i_glide_energy>
-48.9876

> <r_i_glide_erotb>
0.760888

> <r_i_glide_esite>
-0.154141

> <r_i_glide_evdw>
-44.027

> <r_i_glide_gscore>
-5.73549

> <r_i_glide_hbond>
-0.2

> <r_i_glide_ligand_efficiency>
-0.191183

> <r_i_glide_ligand_efficiency_ln>
-1.30317

> <r_i_glide_ligand_efficiency_sa>
-0.59405

> <r_i_glide_lipo>
-2.62676

> <r_i_glide_metal>
0

> <r_i_glide_rewards>
-0.570039

> <s_i_glide_gridfile>
wee1_glide-grid

> <s_m_Source_File>
wee1_decoys_glide_SP.sdf

> <s_m_Source_Path>
/Users/zhangxujun/Desktop

> <s_m_entry_id>
2812

> <s_m_entry_name>
wee1_decoys_glide_SP.2537

> <s_m_subgroup_title>
wee1_decoys_glide_SP

> <s_m_subgroupid>
wee1_decoys_glide_SP


$$$$
