@<TRIPOS>MOLECULE
ZINC03427065_2844
64   67    1
SMALL
USER_CHARGES


@<TRIPOS>ATOM
      1 C1          0.7041   49.2471   23.9972 C.3       1 UNK         0.0000 
      2 C2          0.6179   50.0900   22.7369 C.ar      1 UNK         0.0000 
      3 C3         -0.5134   49.9971   21.9281 C.ar      1 UNK         0.0000 
      4 C4         -0.6264   50.7820   20.7844 C.ar      1 UNK         0.0000 
      5 C5          0.3961   51.6774   20.4255 C.ar      1 UNK         0.0000 
      6 C6          1.5450   51.7585   21.2335 C.ar      1 UNK         0.0000 
      7 C7          1.6499   50.9624   22.3858 C.ar      1 UNK         0.0000 
      8 N8          2.5337   52.6857   20.8552 N.am      1 UNK         0.0000 
      9 C9          3.8660   52.6580   21.0637 C.2       1 UNK         0.0000 
     10 O10         4.4638   51.7710   21.6750 O.2       1 UNK         0.0000 
     11 C11         4.6110   53.8271   20.4637 C.ar      1 UNK         0.0000 
     12 C12         4.2998   54.2347   19.1591 C.ar      1 UNK         0.0000 
     13 C13         4.9146   55.3605   18.5700 C.ar      1 UNK         0.0000 
     14 C14         4.5488   55.8264   17.2809 C.ar      1 UNK         0.0000 
     15 C15         5.1571   56.9586   16.7453 C.ar      1 UNK         0.0000 
     16 C16         6.1401   57.6351   17.4599 C.ar      1 UNK         0.0000 
     17 C17         6.5351   57.1883   18.7177 C.ar      1 UNK         0.0000 
     18 C18         5.9229   56.0487   19.3012 C.ar      1 UNK         0.0000 
     19 C19         6.2696   55.5900   20.5907 C.ar      1 UNK         0.0000 
     20 C20         5.6066   54.5044   21.1924 C.ar      1 UNK         0.0000 
     21 O21         5.8564   54.0861   22.4928 O.3       1 UNK         0.0000 
     22 C22         6.9345   54.6163   23.2723 C.3       1 UNK         0.0000 
     23 C23         6.4811   54.8671   24.7156 C.2       1 UNK         0.0000 
     24 O24         7.1036   55.6942   25.3835 O.2       1 UNK         0.0000 
     25 N25         5.4262   54.1596   25.1763 N.am      1 UNK         0.0000 
     26 C26         4.8911   54.1304   26.4808 C.ar      1 UNK         0.0000 
     27 C27         5.5935   54.5444   27.6259 C.ar      1 UNK         0.0000 
     28 C28         4.9939   54.4957   28.8784 C.ar      1 UNK         0.0000 
     29 C29         3.7138   53.9735   29.0187 C.ar      1 UNK         0.0000 
     30 C30         3.0149   53.4932   27.8997 C.ar      1 UNK         0.0000 
     31 C31         3.5984   53.6152   26.6313 C.ar      1 UNK         0.0000 
     32 N32         1.7456   52.8927   27.9758 N.am      1 UNK         0.0000 
     33 C33         1.1956   52.2660   29.0371 C.2       1 UNK         0.0000 
     34 O34         1.7462   52.1106   30.1269 O.2       1 UNK         0.0000 
     35 C35        -0.2013   51.6946   28.8250 C.3       1 UNK         0.0000 
     36 O36         0.3319   52.4967   19.3086 O.3       1 UNK         0.0000 
     37 C37        -0.7595   52.3665   18.4013 C.3       1 UNK         0.0000 
     38 H38         1.6762   49.3318   24.4821 H         1 UNK         0.0000 
     39 H39        -0.0649   49.5458   24.7086 H         1 UNK         0.0000 
     40 H40         0.5412   48.1964   23.7622 H         1 UNK         0.0000 
     41 H41        -1.3137   49.3201   22.1900 H         1 UNK         0.0000 
     42 H42        -1.5221   50.6872   20.1891 H         1 UNK         0.0000 
     43 H43         2.5169   51.0349   23.0251 H         1 UNK         0.0000 
     44 H44         2.1834   53.4580   20.3015 H         1 UNK         0.0000 
     45 H45         3.5477   53.7108   18.5877 H         1 UNK         0.0000 
     46 H46         3.7830   55.3080   16.7225 H         1 UNK         0.0000 
     47 H47         4.8604   57.3225   15.7722 H         1 UNK         0.0000 
     48 H48         6.5932   58.5203   17.0383 H         1 UNK         0.0000 
     49 H49         7.3018   57.7213   19.2598 H         1 UNK         0.0000 
     50 H50         7.0427   56.1436   21.0929 H         1 UNK         0.0000 
     51 H51         7.3758   55.5432   22.9234 H         1 UNK         0.0000 
     52 H52         7.7344   53.8771   23.2912 H         1 UNK         0.0000 
     53 H53         4.9566   53.5891   24.4878 H         1 UNK         0.0000 
     54 H54         6.6018   54.9243   27.5736 H         1 UNK         0.0000 
     55 H55         5.5321   54.8704   29.7382 H         1 UNK         0.0000 
     56 H56         3.2771   53.9453   30.0047 H         1 UNK         0.0000 
     57 H57         3.0624   53.2682   25.7577 H         1 UNK         0.0000 
     58 H58         1.2268   52.8526   27.1126 H         1 UNK         0.0000 
     59 H59        -0.8832   52.4618   28.4563 H         1 UNK         0.0000 
     60 H60        -0.6044   51.3069   29.7602 H         1 UNK         0.0000 
     61 H61        -0.1730   50.8735   28.1094 H         1 UNK         0.0000 
     62 H62        -0.6191   53.0562   17.5700 H         1 UNK         0.0000 
     63 H63        -0.8120   51.3577   17.9885 H         1 UNK         0.0000 
     64 H64        -1.7093   52.6103   18.8779 H         1 UNK         0.0000 
@<TRIPOS>BOND
     1    1    2 1    
     2    1   38 1    
     3    1   39 1    
     4    1   40 1    
     5    2    7 ar   
     6    2    3 ar   
     7    3    4 ar   
     8    3   41 1    
     9    4    5 ar   
    10    4   42 1    
    11    5    6 ar   
    12    5   36 1    
    13    6    7 ar   
    14    6    8 1    
    15    7   43 1    
    16    8    9 am   BACKBONE|DICT|INTERRES
    17    8   44 1    
    18    9   10 2    
    19    9   11 1    
    20   11   20 ar   
    21   11   12 ar   
    22   12   13 ar   
    23   12   45 1    
    24   13   18 ar   
    25   13   14 ar   
    26   14   15 ar   
    27   14   46 1    
    28   15   16 ar   
    29   15   47 1    
    30   16   17 ar   
    31   16   48 1    
    32   17   18 ar   
    33   17   49 1    
    34   18   19 ar   
    35   19   20 ar   
    36   19   50 1    
    37   20   21 1    
    38   21   22 1    
    39   22   23 1    
    40   22   51 1    
    41   22   52 1    
    42   23   24 2    
    43   23   25 am   BACKBONE|DICT|INTERRES
    44   25   26 1    
    45   25   53 1    
    46   26   31 ar   
    47   26   27 ar   
    48   27   28 ar   
    49   27   54 1    
    50   28   29 ar   
    51   28   55 1    
    52   29   30 ar   
    53   29   56 1    
    54   30   31 ar   
    55   30   32 1    
    56   31   57 1    
    57   32   33 am   BACKBONE|DICT|INTERRES
    58   32   58 1    
    59   33   34 2    
    60   33   35 1    
    61   35   59 1    
    62   35   60 1    
    63   35   61 1    
    64   36   37 1    
    65   37   62 1    
    66   37   63 1    
    67   37   64 1    
@<TRIPOS>SUBSTRUCTURE
     1 UNK         1 GROUP             0       ****    0 ROOT    
