ZINC63376103_5472
                    3D
 Schrodinger Suite 2024-2.
 65 70  0  0  1  0            999 V2000
    4.1423   54.3951   29.5662 C   0  0  0  0  0  0
    3.1081   53.4431   29.7792 O   0  0  0  0  0  0
    2.3407   53.0555   28.6978 C   0  0  0  0  0  0
    2.3823   53.6754   27.4440 C   0  0  0  0  0  0
    1.6019   53.1959   26.4000 C   0  0  0  0  0  0
    0.7708   52.0805   26.5652 C   0  0  0  0  0  0
    0.7081   51.4904   27.8389 C   0  0  0  0  0  0
    1.4802   51.9782   28.8883 C   0  0  0  0  0  0
   -0.0503   51.5408   25.3641 C   0  0  2  0  0  0
   -0.7383   52.3349   25.0633 H   0  0  0  0  0  0
   -0.8938   50.2637   25.7141 C   0  0  2  0  0  0
   -0.3111   49.5101   26.2510 H   0  0  0  0  0  0
   -1.4652   49.6605   24.4526 C   0  0  0  0  0  0
   -2.8048   49.6670   24.5185 C   0  0  0  0  0  0
   -3.8359   49.2499   23.5582 C   0  0  0  0  0  0
   -5.1427   49.3276   23.8807 C   0  0  0  0  0  0
   -5.4946   49.8269   25.2048 C   0  0  0  0  0  0
   -4.5501   50.2199   26.1010 C   0  0  0  0  0  0
   -3.1910   50.1597   25.7678 C   0  0  0  0  0  0
   -2.1376   50.4958   26.4808 N   0  3  0  0  0  0
   -0.4681   49.2861   23.3697 C   0  0  0  0  0  0
    0.9398   49.8867   23.6824 C   0  0  2  0  0  0
    1.4966   49.2951   24.4108 H   0  0  0  0  0  0
    0.8060   51.2426   24.1711 N   0  0  0  0  0  0
    1.2118   52.1374   23.2438 C   0  0  0  0  0  0
    0.9951   53.3499   23.2500 O   0  0  0  0  0  0
    1.9009   51.4346   22.2996 N   0  0  0  0  0  0
    1.8158   50.0964   22.4791 C   0  0  0  0  0  0
    2.3047   49.1926   21.8032 O   0  0  0  0  0  0
    2.6815   52.0469   21.2834 C   0  0  0  0  0  0
    3.7714   52.8338   21.6976 C   0  0  0  0  0  0
    4.6035   53.4558   20.7706 C   0  0  0  0  0  0
    4.3646   53.2971   19.4111 C   0  0  0  0  0  0
    3.2897   52.5226   18.9783 C   0  0  0  0  0  0
    2.4294   51.8904   19.8926 C   0  0  0  0  0  0
    1.2530   51.1026   19.3591 C   0  0  0  0  0  0
    0.1358   51.2073   19.8728 O   0  0  0  0  0  0
    1.5168   50.2920   18.3186 N   0  0  0  0  0  0
    0.5444   49.4161   17.6626 C   0  0  0  0  0  0
    0.6278   47.9470   18.0532 C   0  0  0  0  0  0
    1.5045   47.3939   18.9125 C   0  0  0  0  0  0
    3.7433   55.3749   29.3016 H   0  0  0  0  0  0
    4.7043   54.5007   30.4868 H   0  0  0  0  0  0
    4.8427   54.0716   28.7949 H   0  0  0  0  0  0
    3.0181   54.5268   27.2572 H   0  0  0  0  0  0
    1.6709   53.7200   25.4631 H   0  0  0  0  0  0
    0.0757   50.6429   28.0501 H   0  0  0  0  0  0
    1.4226   51.5048   29.8572 H   0  0  0  0  0  0
   -3.5753   48.8776   22.5765 H   0  0  0  0  0  0
   -5.9116   49.0274   23.1819 H   0  0  0  0  0  0
   -6.5369   49.8785   25.4836 H   0  0  0  0  0  0
   -4.8677   50.5734   27.0722 H   0  0  0  0  0  0
   -0.3746   48.2023   23.2972 H   0  0  0  0  0  0
   -0.8367   49.6192   22.3966 H   0  0  0  0  0  0
    3.9797   52.9693   22.7502 H   0  0  0  0  0  0
    5.4333   54.0598   21.1077 H   0  0  0  0  0  0
    5.0117   53.7719   18.6880 H   0  0  0  0  0  0
    3.1334   52.4255   17.9122 H   0  0  0  0  0  0
    2.4727   50.2219   17.9859 H   0  0  0  0  0  0
   -0.4803   49.7577   17.8282 H   0  0  0  0  0  0
    0.6880   49.4940   16.5846 H   0  0  0  0  0  0
   -0.0984   47.3059   17.5755 H   0  0  0  0  0  0
    1.4892   46.3357   19.1229 H   0  0  0  0  0  0
    2.2544   47.9880   19.4162 H   0  0  0  0  0  0
   -2.1561   50.8290   27.4408 H   0  0  0  0  0  0
  1  2  1  0  0  0
  1 42  1  0  0  0
  1 43  1  0  0  0
  1 44  1  0  0  0
  2  3  1  0  0  0
  3  8  2  0  0  0
  3  4  1  0  0  0
  4  5  2  0  0  0
  4 45  1  0  0  0
  5  6  1  0  0  0
  5 46  1  0  0  0
  6  7  2  0  0  0
  6  9  1  0  0  0
  7  8  1  0  0  0
  7 47  1  0  0  0
  8 48  1  0  0  0
  9 10  1  0  0  0
  9 24  1  0  0  0
  9 11  1  0  0  0
 11 12  1  0  0  0
 11 20  1  0  0  0
 11 13  1  0  0  0
 13 14  2  0  0  0
 13 21  1  0  0  0
 14 19  1  0  0  0
 14 15  1  0  0  0
 15 16  2  0  0  0
 15 49  1  0  0  0
 16 17  1  0  0  0
 16 50  1  0  0  0
 17 18  2  0  0  0
 17 51  1  0  0  0
 18 19  1  0  0  0
 18 52  1  0  0  0
 19 20  2  0  0  0
 20 65  1  0  0  0
 21 22  1  0  0  0
 21 53  1  0  0  0
 21 54  1  0  0  0
 22 23  1  0  0  0
 22 28  1  0  0  0
 22 24  1  0  0  0
 24 25  1  0  0  0
 25 26  2  0  0  0
 25 27  1  0  0  0
 27 28  1  0  0  0
 27 30  1  0  0  0
 28 29  2  0  0  0
 30 35  2  0  0  0
 30 31  1  0  0  0
 31 32  2  0  0  0
 31 55  1  0  0  0
 32 33  1  0  0  0
 32 56  1  0  0  0
 33 34  2  0  0  0
 33 57  1  0  0  0
 34 35  1  0  0  0
 34 58  1  0  0  0
 35 36  1  0  0  0
 36 37  2  0  0  0
 36 38  1  0  0  0
 38 39  1  0  0  0
 38 59  1  0  0  0
 39 40  1  0  0  0
 39 60  1  0  0  0
 39 61  1  0  0  0
 40 41  2  0  0  0
 40 62  1  0  0  0
 41 63  1  0  0  0
 41 64  1  0  0  0
M  CHG  1  20   1
M  END
> <i_i_glide_confnum>
101

> <i_i_glide_lignum>
5473

> <i_i_glide_posenum>
399

> <i_i_glide_rotatable_bonds>
7

> <i_m_Source_File_Index>
3133

> <b_m_subgroup_collapsed>
0

> <r_i_docking_score>
-3.93632

> <r_i_glide_ecoul>
-2.65376

> <r_i_glide_eff_state_penalty>
0

> <r_i_glide_einternal>
11.2407

> <r_i_glide_emodel>
-50.0495

> <r_i_glide_energy>
-43.8926

> <r_i_glide_erotb>
0.476696

> <r_i_glide_esite>
-0.167666

> <r_i_glide_evdw>
-41.2389

> <r_i_glide_gscore>
-3.93632

> <r_i_glide_hbond>
-0.135755

> <r_i_glide_ligand_efficiency>
-0.103587

> <r_i_glide_ligand_efficiency_ln>
-0.848786

> <r_i_glide_ligand_efficiency_sa>
-0.348258

> <r_i_glide_lipo>
-1.09445

> <r_i_glide_metal>
0

> <r_i_glide_rewards>
-0.555135

> <s_i_glide_gridfile>
wee1_glide-grid

> <s_m_Source_File>
wee1_decoys_glide_SP.sdf

> <s_m_Source_Path>
/Users/zhangxujun/Desktop

> <s_m_entry_id>
3408

> <s_m_entry_name>
wee1_decoys_glide_SP.3133

> <s_m_subgroup_title>
wee1_decoys_glide_SP

> <s_m_subgroupid>
wee1_decoys_glide_SP


$$$$
