@<TRIPOS>MOLECULE
ZINC38685688_848
58   61    1
SMALL
USER_CHARGES


@<TRIPOS>ATOM
      1 C1          5.8760   58.5046   14.6481 C.3       1 UNK         0.0000 
      2 C2          6.3795   59.2408   15.8991 C.3       1 UNK         0.0000 
      3 O3          7.2505   58.4178   16.6811 O.3       1 UNK         0.0000 
      4 C4          6.7443   57.3886   17.4526 C.ar      1 UNK         0.0000 
      5 C5          7.6813   56.5339   18.0322 C.ar      1 UNK         0.0000 
      6 C6          7.2722   55.4593   18.8152 C.ar      1 UNK         0.0000 
      7 C7          5.9125   55.2382   19.0584 C.ar      1 UNK         0.0000 
      8 C8          4.9704   56.0974   18.4817 C.ar      1 UNK         0.0000 
      9 C9          5.3800   57.1643   17.6868 C.ar      1 UNK         0.0000 
     10 C10         5.4782   54.0182   19.8898 C.3       1 UNK         0.0000 
     11 H11         6.2414   53.2699   19.6745 H         1 UNK         0.0000 
     12 C12         5.5044   54.2231   21.4218 C.ar      1 UNK         0.0000 
     13 C13         6.5442   54.8978   22.0815 C.ar      1 UNK         0.0000 
     14 C14         6.6115   54.9562   23.4744 C.ar      1 UNK         0.0000 
     15 C15         5.6144   54.3823   24.2625 C.ar      1 UNK         0.0000 
     16 C16         4.5459   53.7435   23.6171 C.ar      1 UNK         0.0000 
     17 C17         4.5051   53.6485   22.2276 C.ar      1 UNK         0.0000 
     18 O18         3.4587   52.9137   21.7097 O.3       1 UNK         0.0000 
     19 C19         3.3354   52.7966   20.3670 C.2       1 UNK         0.0000 
     20 C20         4.1848   53.3156   19.4587 C.2       1 UNK         0.0000 
     21 C21         3.9059   53.1623   18.0646 C.1       1 UNK         0.0000 
     22 N22         3.6402   53.0886   16.9413 N.1       1 UNK         0.0000 
     23 N23         2.1879   52.0968   20.1120 N.pl3     1 UNK         0.0000 
     24 O24         5.7748   54.4118   25.6393 O.3       1 UNK         0.0000 
     25 C25         4.7280   54.6080   26.4914 C.2       1 UNK         0.0000 
     26 O26         3.5744   54.8957   26.1673 O.2       1 UNK         0.0000 
     27 C27         5.1441   54.4770   27.9712 C.3       1 UNK         0.0000 
     28 O28         4.0758   54.7534   28.8958 O.3       1 UNK         0.0000 
     29 C29         2.9871   53.9044   28.9900 C.ar      1 UNK         0.0000 
     30 C30         1.8323   54.4165   29.5826 C.ar      1 UNK         0.0000 
     31 C31         0.6754   53.6426   29.6629 C.ar      1 UNK         0.0000 
     32 C32         0.6742   52.3405   29.1578 C.ar      1 UNK         0.0000 
     33 C33         1.8331   51.8112   28.5940 C.ar      1 UNK         0.0000 
     34 C34         2.9870   52.5848   28.5198 C.ar      1 UNK         0.0000 
     35 C35        -0.5960   51.5056   29.1833 C.3       1 UNK         0.0000 
     36 H36         5.2492   59.1601   14.0448 H         1 UNK         0.0000 
     37 H37         5.2823   57.6269   14.9015 H         1 UNK         0.0000 
     38 H38         6.7109   58.1746   14.0290 H         1 UNK         0.0000 
     39 H39         6.9503   60.1154   15.5902 H         1 UNK         0.0000 
     40 H40         5.5462   59.6288   16.4828 H         1 UNK         0.0000 
     41 H41         8.7359   56.6967   17.8597 H         1 UNK         0.0000 
     42 H42         8.0177   54.7966   19.2320 H         1 UNK         0.0000 
     43 H43         3.9143   55.9343   18.6412 H         1 UNK         0.0000 
     44 H44         4.6234   57.8064   17.2622 H         1 UNK         0.0000 
     45 H45         7.3486   55.3430   21.5170 H         1 UNK         0.0000 
     46 H46         7.4547   55.4431   23.9416 H         1 UNK         0.0000 
     47 H47         3.7607   53.2776   24.1937 H         1 UNK         0.0000 
     48 H48         1.9715   51.7998   19.1730 H         1 UNK         0.0000 
     49 H49         1.4597   52.0453   20.8063 H         1 UNK         0.0000 
     50 H50         5.5717   53.4933   28.1626 H         1 UNK         0.0000 
     51 H51         5.9293   55.2037   28.1657 H         1 UNK         0.0000 
     52 H52         1.8259   55.4317   29.9525 H         1 UNK         0.0000 
     53 H53        -0.2193   54.0587   30.1010 H         1 UNK         0.0000 
     54 H54         1.8393   50.8045   28.2010 H         1 UNK         0.0000 
     55 H55         3.8686   52.1521   28.0751 H         1 UNK         0.0000 
     56 H56        -1.4928   52.1188   29.1370 H         1 UNK         0.0000 
     57 H57        -0.6387   50.8462   28.3163 H         1 UNK         0.0000 
     58 H58        -0.6545   50.8972   30.0821 H         1 UNK         0.0000 
@<TRIPOS>BOND
     1    1    2 1    
     2    1   36 1    
     3    1   37 1    
     4    1   38 1    
     5    2    3 1    
     6    2   39 1    
     7    2   40 1    
     8    3    4 1    
     9    4    9 ar   
    10    4    5 ar   
    11    5    6 ar   
    12    5   41 1    
    13    6    7 ar   
    14    6   42 1    
    15    7    8 ar   
    16    7   10 1    
    17    8    9 ar   
    18    8   43 1    
    19    9   44 1    
    20   10   11 1    
    21   10   20 1    
    22   10   12 1    
    23   12   17 ar   
    24   12   13 ar   
    25   13   14 ar   
    26   13   45 1    
    27   14   15 ar   
    28   14   46 1    
    29   15   16 ar   
    30   15   24 1    
    31   16   17 ar   
    32   16   47 1    
    33   17   18 1    
    34   18   19 1    
    35   19   20 2    
    36   19   23 1    
    37   20   21 1    
    38   21   22 3    
    39   23   48 1    
    40   23   49 1    
    41   24   25 1    
    42   25   26 2    
    43   25   27 1    
    44   27   28 1    
    45   27   50 1    
    46   27   51 1    
    47   28   29 1    
    48   29   34 ar   
    49   29   30 ar   
    50   30   31 ar   
    51   30   52 1    
    52   31   32 ar   
    53   31   53 1    
    54   32   33 ar   
    55   32   35 1    
    56   33   34 ar   
    57   33   54 1    
    58   34   55 1    
    59   35   56 1    
    60   35   57 1    
    61   35   58 1    
@<TRIPOS>SUBSTRUCTURE
     1 UNK         1 GROUP             0       ****    0 ROOT    
