@<TRIPOS>MOLECULE
ZINC20534240_5489
51   54    1
SMALL
USER_CHARGES


@<TRIPOS>ATOM
      1 C1          1.1186   54.7070   29.9520 C.ar      1 UNK         0.0000 
      2 C2          1.9529   55.0932   28.9077 C.ar      1 UNK         0.0000 
      3 C3          1.9823   54.3681   27.7182 C.ar      1 UNK         0.0000 
      4 C4          1.1417   53.2389   27.5448 C.ar      1 UNK         0.0000 
      5 C5          1.1195   52.4968   26.3345 C.ar      1 UNK         0.0000 
      6 C6          0.3050   51.3690   26.2075 C.ar      1 UNK         0.0000 
      7 C7         -0.5116   50.9829   27.2679 C.ar      1 UNK         0.0000 
      8 C8         -0.5261   51.6971   28.4618 C.ar      1 UNK         0.0000 
      9 C9          0.2957   52.8371   28.6242 C.ar      1 UNK         0.0000 
     10 C10         0.3054   53.5835   29.8285 C.ar      1 UNK         0.0000 
     11 S11         0.3547   50.3679   24.7121 S.o2      1 UNK         0.0000 
     12 O12         0.2613   48.9661   25.1308 O.2       1 UNK         0.0000 
     13 O13         1.5024   50.8296   23.9246 O.2       1 UNK         0.0000 
     14 N14        -1.1013   50.7375   23.7810 N.pl3     1 UNK         0.0000 
     15 C15        -2.4300   50.2804   24.2962 C.3       1 UNK         0.0000 
     16 C16        -3.3492   51.4730   23.9993 C.3       1 UNK         0.0000 
     17 C17        -2.4346   52.6438   23.6937 C.3       1 UNK         0.0000 
     18 C18        -1.1991   52.0219   23.0332 C.3       1 UNK         0.0000 
     19 H19        -0.3333   52.6651   23.1885 H         1 UNK         0.0000 
     20 C20        -1.3650   51.6989   21.5108 C.2       1 UNK         0.0000 
     21 O21        -2.4839   51.6439   20.9947 O.2       1 UNK         0.0000 
     22 O22        -0.2325   51.4527   20.7651 O.3       1 UNK         0.0000 
     23 N23         0.9395   52.0941   21.2429 N.2       1 UNK         0.0000 
     24 C24         1.9569   51.9338   20.4815 C.2       1 UNK         0.0000 
     25 C25         3.2041   52.6941   20.8042 C.ar      1 UNK         0.0000 
     26 C26         3.3886   53.2744   22.0770 C.ar      1 UNK         0.0000 
     27 C27         4.5098   54.0469   22.3808 C.ar      1 UNK         0.0000 
     28 C28         5.4800   54.2733   21.4078 C.ar      1 UNK         0.0000 
     29 C29         5.3283   53.7167   20.1419 C.ar      1 UNK         0.0000 
     30 C30         4.2199   52.9181   19.8516 C.ar      1 UNK         0.0000 
     31 Br31        6.6369   54.0569   18.8022 Br        1 UNK         0.0000 
     32 N32         2.0686   51.1456   19.3478 N.pl3     1 UNK         0.0000 
     33 H33         1.1061   55.2817   30.8660 H         1 UNK         0.0000 
     34 H34         2.5804   55.9649   29.0180 H         1 UNK         0.0000 
     35 H35         2.6396   54.6704   26.9156 H         1 UNK         0.0000 
     36 H36         1.7680   52.7970   25.5237 H         1 UNK         0.0000 
     37 H37        -1.1227   50.0983   27.1865 H         1 UNK         0.0000 
     38 H38        -1.1566   51.3686   29.2745 H         1 UNK         0.0000 
     39 H39        -0.3290   53.2784   30.6491 H         1 UNK         0.0000 
     40 H40        -2.4424   50.1498   25.3792 H         1 UNK         0.0000 
     41 H41        -2.8285   49.4375   23.7247 H         1 UNK         0.0000 
     42 H42        -4.0237   51.6922   24.8291 H         1 UNK         0.0000 
     43 H43        -3.9833   51.2603   23.1361 H         1 UNK         0.0000 
     44 H44        -2.1381   53.1296   24.6244 H         1 UNK         0.0000 
     45 H45        -2.9127   53.4115   23.0835 H         1 UNK         0.0000 
     46 H46         2.6492   53.1380   22.8539 H         1 UNK         0.0000 
     47 H47         4.6162   54.4802   23.3656 H         1 UNK         0.0000 
     48 H48         6.3395   54.8836   21.6353 H         1 UNK         0.0000 
     49 H49         4.1532   52.5130   18.8519 H         1 UNK         0.0000 
     50 H50         1.2730   50.5997   19.0534 H         1 UNK         0.0000 
     51 H51         2.9639   50.9669   18.9087 H         1 UNK         0.0000 
@<TRIPOS>BOND
     1    1   10 ar   
     2    1    2 ar   
     3    1   33 1    
     4    2    3 ar   
     5    2   34 1    
     6    3    4 ar   
     7    3   35 1    
     8    4    9 ar   
     9    4    5 ar   
    10    5    6 ar   
    11    5   36 1    
    12    6    7 ar   
    13    6   11 1    
    14    7    8 ar   
    15    7   37 1    
    16    8    9 ar   
    17    8   38 1    
    18    9   10 ar   
    19   10   39 1    
    20   11   12 2    
    21   11   13 2    
    22   11   14 1    
    23   14   18 1    
    24   14   15 1    
    25   15   16 1    
    26   15   40 1    
    27   15   41 1    
    28   16   17 1    
    29   16   42 1    
    30   16   43 1    
    31   17   18 1    
    32   17   44 1    
    33   17   45 1    
    34   18   19 1    
    35   18   20 1    
    36   20   21 2    
    37   20   22 1    
    38   22   23 1    
    39   23   24 2    
    40   24   25 1    
    41   24   32 1    
    42   25   30 ar   
    43   25   26 ar   
    44   26   27 ar   
    45   26   46 1    
    46   27   28 ar   
    47   27   47 1    
    48   28   29 ar   
    49   28   48 1    
    50   29   30 ar   
    51   29   31 1    
    52   30   49 1    
    53   32   50 1    
    54   32   51 1    
@<TRIPOS>SUBSTRUCTURE
     1 UNK         1 GROUP             0       ****    0 ROOT    
