@<TRIPOS>MOLECULE
ZINC33422175_2273
41   43    1
SMALL
USER_CHARGES


@<TRIPOS>ATOM
      1 C1          0.3607   52.4969   30.2590 C.ar      1 UNK         0.0000 
      2 C2          1.4737   53.1365   29.7109 C.ar      1 UNK         0.0000 
      3 C3          1.7337   53.0567   28.3379 C.ar      1 UNK         0.0000 
      4 C4          0.8489   52.3445   27.5208 C.ar      1 UNK         0.0000 
      5 C5         -0.2658   51.6951   28.0649 C.ar      1 UNK         0.0000 
      6 C6         -0.4956   51.7605   29.4406 C.ar      1 UNK         0.0000 
      7 N7         -1.1143   50.8967   27.2838 N.am      1 UNK         0.0000 
      8 C8         -1.5825   51.1859   26.0494 C.2       1 UNK         0.0000 
      9 O9         -1.3346   52.2398   25.4562 O.2       1 UNK         0.0000 
     10 C10        -2.4397   50.1016   25.3655 C.3       1 UNK         0.0000 
     11 F11        -3.1018   50.6166   24.3254 F         1 UNK         0.0000 
     12 F12        -3.3203   49.5899   26.2294 F         1 UNK         0.0000 
     13 F13        -1.6443   49.1261   24.9218 F         1 UNK         0.0000 
     14 C14         2.9515   53.6698   27.7329 C.2       1 UNK         0.0000 
     15 N15         4.0156   54.1612   28.3232 N.2       1 UNK         0.0000 
     16 N16         4.9041   54.4968   27.3013 N.2       1 UNK         0.0000 
     17 C17         4.2971   54.2043   26.1751 C.2       1 UNK         0.0000 
     18 O18         3.0614   53.6885   26.3822 O.3       1 UNK         0.0000 
     19 C19         4.7992   54.3134   24.7744 C.ar      1 UNK         0.0000 
     20 C20         6.0700   54.8272   24.4988 C.ar      1 UNK         0.0000 
     21 C21         6.5293   54.8967   23.1844 C.ar      1 UNK         0.0000 
     22 C22         5.7330   54.4411   22.1352 C.ar      1 UNK         0.0000 
     23 C23         4.4740   53.8912   22.3916 C.ar      1 UNK         0.0000 
     24 C24         4.0013   53.8665   23.7125 C.ar      1 UNK         0.0000 
     25 N25         3.7532   53.3964   21.2869 N.am      1 UNK         0.0000 
     26 C26         2.7634   52.4698   21.2690 C.2       1 UNK         0.0000 
     27 O27         2.3337   51.8980   22.2747 O.2       1 UNK         0.0000 
     28 C28         2.1648   52.0959   19.8969 C.3       1 UNK         0.0000 
     29 F29         2.3370   50.7889   19.6824 F         1 UNK         0.0000 
     30 F30         0.8535   52.3534   19.9020 F         1 UNK         0.0000 
     31 F31         2.7429   52.7825   18.9062 F         1 UNK         0.0000 
     32 H32         0.1718   52.5426   31.3230 H         1 UNK         0.0000 
     33 H33         2.1442   53.6809   30.3571 H         1 UNK         0.0000 
     34 H34         1.0489   52.2588   26.4626 H         1 UNK         0.0000 
     35 H35        -1.3305   51.2358   29.8844 H         1 UNK         0.0000 
     36 H36        -1.3794   49.9957   27.6930 H         1 UNK         0.0000 
     37 H37         6.7028   55.1752   25.3018 H         1 UNK         0.0000 
     38 H38         7.5042   55.3078   22.9775 H         1 UNK         0.0000 
     39 H39         6.1138   54.4970   21.1258 H         1 UNK         0.0000 
     40 H40         3.0181   53.4822   23.9313 H         1 UNK         0.0000 
     41 H41         4.0546   53.7341   20.3837 H         1 UNK         0.0000 
@<TRIPOS>BOND
     1    1    6 ar   
     2    1    2 ar   
     3    1   32 1    
     4    2    3 ar   
     5    2   33 1    
     6    3    4 ar   
     7    3   14 1    
     8    4    5 ar   
     9    4   34 1    
    10    5    6 ar   
    11    5    7 1    
    12    6   35 1    
    13    7    8 am   BACKBONE|DICT|INTERRES
    14    7   36 1    
    15    8    9 2    
    16    8   10 1    
    17   10   11 1    
    18   10   12 1    
    19   10   13 1    
    20   14   18 1    
    21   14   15 2    
    22   15   16 1    
    23   16   17 2    
    24   17   18 1    
    25   17   19 1    
    26   19   24 ar   
    27   19   20 ar   
    28   20   21 ar   
    29   20   37 1    
    30   21   22 ar   
    31   21   38 1    
    32   22   23 ar   
    33   22   39 1    
    34   23   24 ar   
    35   23   25 1    
    36   24   40 1    
    37   25   26 am   BACKBONE|DICT|INTERRES
    38   25   41 1    
    39   26   27 2    
    40   26   28 1    
    41   28   29 1    
    42   28   30 1    
    43   28   31 1    
@<TRIPOS>SUBSTRUCTURE
     1 UNK         1 GROUP             0       ****    0 ROOT    
