ZINC44944179_5358
                    3D
 Schrodinger Suite 2024-2.
 76 80  0  0  1  0            999 V2000
    5.6664   54.3200   28.1243 C   0  0  0  0  0  0
    6.2838   54.4833   26.8851 C   0  0  0  0  0  0
    5.5156   54.4567   25.7262 C   0  0  0  0  0  0
    4.1335   54.2484   25.8056 C   0  0  0  0  0  0
    3.5222   54.0966   27.0526 C   0  0  0  0  0  0
    4.2902   54.1306   28.2145 C   0  0  0  0  0  0
    3.2860   54.1895   24.5372 C   0  0  0  0  0  0
    4.0339   53.5975   23.4779 O   0  0  0  0  0  0
    3.5261   53.7698   22.1552 C   0  0  2  0  0  0
    3.3693   54.8391   21.9953 H   0  0  0  0  0  0
    2.1758   53.0243   21.9547 C   0  0  0  0  0  0
    2.3089   51.4929   21.9592 C   0  0  0  0  0  0
    3.3527   51.0323   20.9301 C   0  0  0  0  0  0
    4.7050   51.7296   21.1536 C   0  0  0  0  0  0
    4.6355   53.2743   21.1776 C   0  0  1  0  0  0
    5.6005   53.6194   21.5593 H   0  0  0  0  0  0
    4.4622   53.7603   19.8086 N   0  0  0  0  0  0
    4.9990   54.8967   19.3302 C   0  0  0  0  0  0
    5.6632   55.6610   20.0354 O   0  0  0  0  0  0
    4.7221   55.2300   17.8437 C   0  0  1  0  0  0
    3.6920   54.8850   17.7234 H   0  0  0  0  0  0
    4.7222   56.7580   17.5504 C   0  0  0  0  0  0
    4.7089   57.0235   16.0505 C   0  0  0  0  0  0
    4.8810   56.0795   15.1043 C   0  0  0  0  0  0
    5.1874   54.6068   15.3760 C   0  0  0  0  0  0
    5.5566   54.3270   16.8635 C   0  0  1  0  0  0
    5.3193   53.2933   17.1128 H   0  0  0  0  0  0
    7.1045   54.4857   17.0291 C   0  0  0  0  0  0
    7.5471   55.5953   17.3392 O   0  0  0  0  0  0
    7.9179   53.3956   16.9707 N   0  0  0  0  0  0
    7.5293   52.0978   16.3718 C   0  0  0  0  0  0
    8.5030   51.7614   15.2102 C   0  0  0  0  0  0
    9.9088   51.8703   15.6485 N   0  0  0  0  0  0
   10.2159   53.2178   16.1600 C   0  0  0  0  0  0
    9.3301   53.5265   17.3722 C   0  0  0  0  0  0
   10.8711   50.8213   15.5674 C   0  0  0  0  0  0
   10.8409   49.8549   14.5492 C   0  0  0  0  0  0
   11.8520   48.8939   14.4816 C   0  0  0  0  0  0
   12.8666   48.8840   15.4420 C   0  0  0  0  0  0
   12.8613   49.8545   16.4468 C   0  0  0  0  0  0
   11.8836   50.7793   16.4618 N   0  3  0  0  0  0
    6.2678   54.3459   29.0215 H   0  0  0  0  0  0
    7.3522   54.6180   26.8314 H   0  0  0  0  0  0
    5.9957   54.5777   24.7642 H   0  0  0  0  0  0
    2.4535   53.9437   27.1256 H   0  0  0  0  0  0
    3.8218   54.0110   29.1790 H   0  0  0  0  0  0
    2.9717   55.2041   24.2855 H   0  0  0  0  0  0
    2.3902   53.5948   24.7233 H   0  0  0  0  0  0
    1.4140   53.3724   22.6523 H   0  0  0  0  0  0
    1.7969   53.2960   20.9704 H   0  0  0  0  0  0
    2.5884   51.1461   22.9553 H   0  0  0  0  0  0
    1.3412   51.0357   21.7396 H   0  0  0  0  0  0
    3.4895   49.9533   20.9919 H   0  0  0  0  0  0
    2.9928   51.2375   19.9207 H   0  0  0  0  0  0
    5.4009   51.4134   20.3782 H   0  0  0  0  0  0
    5.1459   51.3768   22.0811 H   0  0  0  0  0  0
    3.8470   53.2220   19.2153 H   0  0  0  0  0  0
    5.6351   57.2254   17.9200 H   0  0  0  0  0  0
    3.9061   57.2635   18.0719 H   0  0  0  0  0  0
    4.5260   58.0351   15.7187 H   0  0  0  0  0  0
    4.8231   56.4014   14.0747 H   0  0  0  0  0  0
    5.9262   54.2039   14.6804 H   0  0  0  0  0  0
    4.2729   54.0629   15.1405 H   0  0  0  0  0  0
    6.5137   52.0955   15.9738 H   0  0  0  0  0  0
    7.6076   51.3445   17.1580 H   0  0  0  0  0  0
    8.3510   52.4162   14.3523 H   0  0  0  0  0  0
    8.3120   50.7433   14.8757 H   0  0  0  0  0  0
   11.2720   53.3176   16.4070 H   0  0  0  0  0  0
   10.0266   53.9288   15.3533 H   0  0  0  0  0  0
    9.5021   52.7531   18.1172 H   0  0  0  0  0  0
    9.5979   54.4757   17.8480 H   0  0  0  0  0  0
   10.0732   49.8649   13.7868 H   0  0  0  0  0  0
   11.8587   48.1650   13.6821 H   0  0  0  0  0  0
   13.6483   48.1383   15.3919 H   0  0  0  0  0  0
   13.6060   49.9278   17.2282 H   0  0  0  0  0  0
   11.8859   51.4704   17.1996 H   0  0  0  0  0  0
  1  6  2  0  0  0
  1  2  1  0  0  0
  1 42  1  0  0  0
  2  3  2  0  0  0
  2 43  1  0  0  0
  3  4  1  0  0  0
  3 44  1  0  0  0
  4  5  2  0  0  0
  4  7  1  0  0  0
  5  6  1  0  0  0
  5 45  1  0  0  0
  6 46  1  0  0  0
  7  8  1  0  0  0
  7 47  1  0  0  0
  7 48  1  0  0  0
  8  9  1  0  0  0
  9 10  1  0  0  0
  9 15  1  0  0  0
  9 11  1  0  0  0
 11 12  1  0  0  0
 11 49  1  0  0  0
 11 50  1  0  0  0
 12 13  1  0  0  0
 12 51  1  0  0  0
 12 52  1  0  0  0
 13 14  1  0  0  0
 13 53  1  0  0  0
 13 54  1  0  0  0
 14 15  1  0  0  0
 14 55  1  0  0  0
 14 56  1  0  0  0
 15 16  1  0  0  0
 15 17  1  0  0  0
 17 18  1  0  0  0
 17 57  1  0  0  0
 18 19  2  0  0  0
 18 20  1  0  0  0
 20 21  1  0  0  0
 20 26  1  0  0  0
 20 22  1  0  0  0
 22 23  1  0  0  0
 22 58  1  0  0  0
 22 59  1  0  0  0
 23 24  2  0  0  0
 23 60  1  0  0  0
 24 25  1  0  0  0
 24 61  1  0  0  0
 25 26  1  0  0  0
 25 62  1  0  0  0
 25 63  1  0  0  0
 26 27  1  0  0  0
 26 28  1  0  0  0
 28 29  2  0  0  0
 28 30  1  0  0  0
 30 35  1  0  0  0
 30 31  1  0  0  0
 31 32  1  0  0  0
 31 64  1  0  0  0
 31 65  1  0  0  0
 32 33  1  0  0  0
 32 66  1  0  0  0
 32 67  1  0  0  0
 33 34  1  0  0  0
 33 36  1  0  0  0
 34 35  1  0  0  0
 34 68  1  0  0  0
 34 69  1  0  0  0
 35 70  1  0  0  0
 35 71  1  0  0  0
 36 41  2  0  0  0
 36 37  1  0  0  0
 37 38  2  0  0  0
 37 72  1  0  0  0
 38 39  1  0  0  0
 38 73  1  0  0  0
 39 40  2  0  0  0
 39 74  1  0  0  0
 40 41  1  0  0  0
 40 75  1  0  0  0
 41 76  1  0  0  0
M  CHG  1  41   1
M  END
> <i_i_glide_confnum>
680

> <i_i_glide_lignum>
5359

> <i_i_glide_posenum>
289

> <i_i_glide_rotatable_bonds>
9

> <i_m_Source_File_Index>
6049

> <b_m_subgroup_collapsed>
0

> <r_i_docking_score>
-5.19558

> <r_i_glide_ecoul>
-4.71188

> <r_i_glide_eff_state_penalty>
0

> <r_i_glide_einternal>
10.0613

> <r_i_glide_emodel>
-63.3832

> <r_i_glide_energy>
-49.9798

> <r_i_glide_erotb>
0.725246

> <r_i_glide_esite>
-0.00190968

> <r_i_glide_evdw>
-45.268

> <r_i_glide_gscore>
-5.19558

> <r_i_glide_hbond>
0

> <r_i_glide_ligand_efficiency>
-0.140421

> <r_i_glide_ligand_efficiency_ln>
-1.1268

> <r_i_glide_ligand_efficiency_sa>
-0.467915

> <r_i_glide_lipo>
-2.72109

> <r_i_glide_metal>
0

> <r_i_glide_rewards>
-0.22765

> <s_i_glide_gridfile>
wee1_glide-grid

> <s_m_Source_File>
wee1_decoys_glide_SP.sdf

> <s_m_Source_Path>
/Users/zhangxujun/Desktop

> <s_m_entry_id>
6324

> <s_m_entry_name>
wee1_decoys_glide_SP.6049

> <s_m_subgroup_title>
wee1_decoys_glide_SP

> <s_m_subgroupid>
wee1_decoys_glide_SP


$$$$
