@<TRIPOS>MOLECULE
ZINC44785210_1689
48   49    1
SMALL
USER_CHARGES


@<TRIPOS>ATOM
      1 C1          2.1608   53.1786   22.8850 C.3       1 UNK         0.0000 
      2 C2          1.7011   52.3789   24.1104 C.3       1 UNK         0.0000 
      3 H3          2.5768   51.8704   24.5041 H         1 UNK         0.0000 
      4 C4          1.1046   53.2965   25.2017 C.3       1 UNK         0.0000 
      5 N5          0.4621   52.4966   26.2755 N.am      1 UNK         0.0000 
      6 C6         -0.5781   51.5847   25.7123 C.3       1 UNK         0.0000 
      7 H7         -1.0024   50.9503   26.4930 H         1 UNK         0.0000 
      8 C8          0.1510   50.6480   24.7165 C.3       1 UNK         0.0000 
      9 O9          0.7581   51.4037   23.6720 O.3       1 UNK         0.0000 
     10 C10        -1.8206   52.2800   25.1222 C.3       1 UNK         0.0000 
     11 C11         0.9203   52.2664   27.5585 C.2       1 UNK         0.0000 
     12 O12         0.5575   51.2289   28.1161 O.2       1 UNK         0.0000 
     13 C13         1.8701   53.1825   28.4561 C.3       1 UNK         0.0000 
     14 C14         3.0431   52.2595   28.9393 C.3       1 UNK         0.0000 
     15 C15         4.3044   52.9159   29.5313 C.3       1 UNK         0.0000 
     16 C16         5.4006   53.2296   28.4817 C.3       1 UNK         0.0000 
     17 C17         5.0834   54.3525   27.4950 C.3       1 UNK         0.0000 
     18 C18         3.7167   54.2486   26.8020 C.3       1 UNK         0.0000 
     19 C19         2.5001   54.4409   27.7500 C.3       1 UNK         0.0000 
     20 C20         1.0205   53.6338   29.7299 C.2       1 UNK         0.0000 
     21 N21         0.6864   52.7672   30.6173 N.2       1 UNK         0.0000 
     22 O22        -0.0947   53.2970   31.6810 O.3       1 UNK         0.0000 
     23 N23         0.7075   54.9770   29.7856 N.pl3     1 UNK         0.0000 
     24 H24         2.9006   53.9326   23.1550 H         1 UNK         0.0000 
     25 H25         2.6163   52.5234   22.1420 H         1 UNK         0.0000 
     26 H26         1.3253   53.6882   22.4040 H         1 UNK         0.0000 
     27 H27         0.3044   53.8507   24.7162 H         1 UNK         0.0000 
     28 H28         1.7422   54.1116   25.4841 H         1 UNK         0.0000 
     29 H29        -0.5391   49.9189   24.2916 H         1 UNK         0.0000 
     30 H30         0.9169   50.0754   25.2435 H         1 UNK         0.0000 
     31 H31        -2.5436   51.5378   24.7837 H         1 UNK         0.0000 
     32 H32        -2.3157   52.9043   25.8653 H         1 UNK         0.0000 
     33 H33        -1.5814   52.8863   24.2496 H         1 UNK         0.0000 
     34 H34         3.3871   51.6971   28.0806 H         1 UNK         0.0000 
     35 H35         2.6883   51.4891   29.6264 H         1 UNK         0.0000 
     36 H36         4.7108   52.2117   30.2569 H         1 UNK         0.0000 
     37 H37         4.0534   53.8073   30.1067 H         1 UNK         0.0000 
     38 H38         5.6273   52.3270   27.9200 H         1 UNK         0.0000 
     39 H39         6.3339   53.4851   28.9828 H         1 UNK         0.0000 
     40 H40         5.8672   54.3837   26.7368 H         1 UNK         0.0000 
     41 H41         5.1545   55.2969   28.0270 H         1 UNK         0.0000 
     42 H42         3.6553   53.2992   26.2690 H         1 UNK         0.0000 
     43 H43         3.6850   55.0243   26.0353 H         1 UNK         0.0000 
     44 H44         2.8563   55.1487   28.5011 H         1 UNK         0.0000 
     45 H45         1.6934   54.9914   27.2818 H         1 UNK         0.0000 
     46 H46        -0.4409   52.5092   32.1399 H         1 UNK         0.0000 
     47 H47         0.1982   55.3074   30.5919 H         1 UNK         0.0000 
     48 H48         1.0668   55.6360   29.1128 H         1 UNK         0.0000 
@<TRIPOS>BOND
     1    1    2 1    
     2    1   24 1    
     3    1   25 1    
     4    1   26 1    
     5    2    3 1    
     6    2    9 1    
     7    2    4 1    
     8    4    5 1    
     9    4   27 1    
    10    4   28 1    
    11    5    6 1    
    12    5   11 am   BACKBONE|DICT|INTERRES
    13    6    7 1    
    14    6    8 1    
    15    6   10 1    
    16    8    9 1    
    17    8   29 1    
    18    8   30 1    
    19   10   31 1    
    20   10   32 1    
    21   10   33 1    
    22   11   12 2    
    23   11   13 1    
    24   13   19 1    
    25   13   14 1    
    26   13   20 1    
    27   14   15 1    
    28   14   34 1    
    29   14   35 1    
    30   15   16 1    
    31   15   36 1    
    32   15   37 1    
    33   16   17 1    
    34   16   38 1    
    35   16   39 1    
    36   17   18 1    
    37   17   40 1    
    38   17   41 1    
    39   18   19 1    
    40   18   42 1    
    41   18   43 1    
    42   19   44 1    
    43   19   45 1    
    44   20   21 2    
    45   20   23 1    
    46   21   22 1    
    47   22   46 1    
    48   23   47 1    
    49   23   48 1    
@<TRIPOS>SUBSTRUCTURE
     1 UNK         1 GROUP             0       ****    0 ROOT    
