ZINC63146597_1872
                    3D
 Schrodinger Suite 2024-2.
 43 45  0  0  1  0            999 V2000
   -0.7933   51.5284   22.8101 C   0  0  0  0  0  0
   -0.9601   51.2591   24.3162 C   0  0  2  0  0  0
   -0.8807   52.5603   25.1417 C   0  0  0  0  0  0
   -1.1254   52.2796   26.6415 C   0  0  0  0  0  0
   -0.1049   51.2628   27.2263 C   0  0  1  0  0  0
   -0.1149   49.9764   26.3521 C   0  0  0  0  0  0
    0.0926   50.2641   24.8466 C   0  0  0  0  0  0
    1.3410   51.8194   27.3986 C   0  0  0  0  0  0
    1.4613   53.0468   28.1978 N   0  0  0  0  0  0
    2.3961   54.0632   28.1097 C   0  0  0  0  0  0
    2.1757   54.9388   29.0650 N   0  0  0  0  0  0
    1.0987   54.4510   29.7967 N   0  0  0  0  0  0
    0.6673   53.2566   29.2567 N   0  0  0  0  0  0
    3.5180   54.1767   27.1121 C   0  0  0  0  0  0
    3.2126   54.1004   25.7469 C   0  0  0  0  0  0
    4.2104   54.2536   24.7859 C   0  0  0  0  0  0
    5.5288   54.4816   25.1761 C   0  0  0  0  0  0
    5.8525   54.5511   26.5289 C   0  0  0  0  0  0
    4.8553   54.4016   27.4949 C   0  0  0  0  0  0
    5.2228   54.4967   28.8388 N   0  0  0  0  0  0
    6.5174   54.6354   24.2071 N   0  0  0  0  0  0
    0.1744   51.9805   22.5895 H   0  0  0  0  0  0
   -0.8761   50.6078   22.2292 H   0  0  0  0  0  0
   -1.5662   52.2045   22.4424 H   0  0  0  0  0  0
   -1.9476   50.8195   24.4835 H   0  0  0  0  0  0
    0.0852   53.0461   24.9876 H   0  0  0  0  0  0
   -1.6138   53.2770   24.7674 H   0  0  0  0  0  0
   -1.1020   53.2163   27.2000 H   0  0  0  0  0  0
   -2.1382   51.8924   26.7714 H   0  0  0  0  0  0
   -0.4848   50.9589   28.2025 H   0  0  0  0  0  0
   -1.0716   49.4657   26.4794 H   0  0  0  0  0  0
    0.6393   49.2712   26.6998 H   0  0  0  0  0  0
    1.0964   50.6481   24.6584 H   0  0  0  0  0  0
    0.0428   49.3354   24.2770 H   0  0  0  0  0  0
    1.9682   51.0728   27.8847 H   0  0  0  0  0  0
    1.7843   52.0137   26.4273 H   0  0  0  0  0  0
    2.1922   53.9602   25.4192 H   0  0  0  0  0  0
    3.9536   54.2057   23.7381 H   0  0  0  0  0  0
    6.8725   54.7208   26.8314 H   0  0  0  0  0  0
    4.4802   54.5449   29.5180 H   0  0  0  0  0  0
    6.1362   54.8680   29.0607 H   0  0  0  0  0  0
    6.2772   54.4967   23.2361 H   0  0  0  0  0  0
    7.4858   54.7424   24.4718 H   0  0  0  0  0  0
  1  2  1  0  0  0
  1 22  1  0  0  0
  1 23  1  0  0  0
  1 24  1  0  0  0
  2  7  1  0  0  0
  2  3  1  0  0  0
  2 25  1  0  0  0
  3  4  1  0  0  0
  3 26  1  0  0  0
  3 27  1  0  0  0
  4  5  1  0  0  0
  4 28  1  0  0  0
  4 29  1  0  0  0
  5  6  1  0  0  0
  5  8  1  0  0  0
  5 30  1  0  0  0
  6  7  1  0  0  0
  6 31  1  0  0  0
  6 32  1  0  0  0
  7 33  1  0  0  0
  7 34  1  0  0  0
  8  9  1  0  0  0
  8 35  1  0  0  0
  8 36  1  0  0  0
  9 13  1  0  0  0
  9 10  1  0  0  0
 10 11  2  0  0  0
 10 14  1  0  0  0
 11 12  1  0  0  0
 12 13  2  0  0  0
 14 19  2  0  0  0
 14 15  1  0  0  0
 15 16  2  0  0  0
 15 37  1  0  0  0
 16 17  1  0  0  0
 16 38  1  0  0  0
 17 18  2  0  0  0
 17 21  1  0  0  0
 18 19  1  0  0  0
 18 39  1  0  0  0
 19 20  1  0  0  0
 20 40  1  0  0  0
 20 41  1  0  0  0
 21 42  1  0  0  0
 21 43  1  0  0  0
M  END
> <i_i_glide_confnum>
25

> <i_i_glide_lignum>
1873

> <i_i_glide_posenum>
44

> <i_i_glide_rotatable_bonds>
3

> <i_m_Source_File_Index>
4127

> <b_m_subgroup_collapsed>
0

> <r_i_docking_score>
-5.22775

> <r_i_glide_ecoul>
-2.09996

> <r_i_glide_eff_state_penalty>
0

> <r_i_glide_einternal>
0.568135

> <r_i_glide_emodel>
-47.2127

> <r_i_glide_energy>
-35.8365

> <r_i_glide_erotb>
0.664266

> <r_i_glide_esite>
0

> <r_i_glide_evdw>
-33.7365

> <r_i_glide_gscore>
-5.22775

> <r_i_glide_hbond>
-0.264333

> <r_i_glide_ligand_efficiency>
-0.248941

> <r_i_glide_ligand_efficiency_ln>
-1.29255

> <r_i_glide_ligand_efficiency_sa>
-0.686808

> <r_i_glide_lipo>
-1.66525

> <r_i_glide_metal>
0

> <r_i_glide_rewards>
-1.96061

> <s_i_glide_gridfile>
wee1_glide-grid

> <s_m_Source_File>
wee1_decoys_glide_SP.sdf

> <s_m_Source_Path>
/Users/zhangxujun/Desktop

> <s_m_entry_id>
4402

> <s_m_entry_name>
wee1_decoys_glide_SP.4127

> <s_m_subgroup_title>
wee1_decoys_glide_SP

> <s_m_subgroupid>
wee1_decoys_glide_SP


$$$$
