@<TRIPOS>MOLECULE
ZINC35686400_4947
71   74    1
SMALL
USER_CHARGES


@<TRIPOS>ATOM
      1 C1          5.0008   51.2356   13.6908 C.3       1 UNK         0.0000 
      2 C2          3.4978   51.6127   13.5535 C.3       1 UNK         0.0000 
      3 C3          3.4154   52.5663   12.3324 C.3       1 UNK         0.0000 
      4 C4          2.7595   50.2807   13.2641 C.3       1 UNK         0.0000 
      5 C5          2.9095   52.2988   14.8328 C.ar      1 UNK         0.0000 
      6 C6          3.7265   52.5250   15.9523 C.ar      1 UNK         0.0000 
      7 C7          3.2419   53.1132   17.1185 C.ar      1 UNK         0.0000 
      8 C8          1.8988   53.4862   17.1719 C.ar      1 UNK         0.0000 
      9 C9          1.0288   53.3133   16.0849 C.ar      1 UNK         0.0000 
     10 C10         1.5541   52.7116   14.9155 C.ar      1 UNK         0.0000 
     11 O11         0.7407   52.5299   13.8276 O.3       1 UNK         0.0000 
     12 C12        -0.4574   53.7967   16.1825 C.3       1 UNK         0.0000 
     13 C13        -1.4407   52.6169   15.9638 C.3       1 UNK         0.0000 
     14 C14        -0.7310   54.9178   15.1485 C.3       1 UNK         0.0000 
     15 C15        -0.8206   54.3964   17.5700 C.3       1 UNK         0.0000 
     16 C16         4.1544   53.3644   18.2381 C.2       1 UNK         0.0000 
     17 N17         3.7884   53.3543   19.4597 N.2       1 UNK         0.0000 
     18 N18         4.6471   53.7809   20.5198 N.pl3     1 UNK         0.0000 
     19 C19         5.8376   54.5699   20.2630 C.3       1 UNK         0.0000 
     20 C20         6.3029   54.9866   21.6425 C.2       1 UNK         0.0000 
     21 O21         7.2678   55.6963   21.9175 O.2       1 UNK         0.0000 
     22 C22         5.3201   54.4169   22.5772 C.2       1 UNK         0.0000 
     23 C23         4.3591   53.7693   21.8818 C.2       1 UNK         0.0000 
     24 N24         3.2280   53.1086   22.2839 N.pl3     1 UNK         0.0000 
     25 C25         5.3909   54.5360   24.0557 C.2       1 UNK         0.0000 
     26 N26         4.4603   54.0967   24.8776 N.2       1 UNK         0.0000 
     27 C27         4.7410   54.2536   26.1645 C.2       1 UNK         0.0000 
     28 C28         5.9538   54.8969   26.4015 C.2       1 UNK         0.0000 
     29 S29         6.7045   55.2962   24.8963 S.3       1 UNK         0.0000 
     30 C30         3.8055   53.7528   27.2224 C.ar      1 UNK         0.0000 
     31 C31         4.2874   53.4929   28.5139 C.ar      1 UNK         0.0000 
     32 C32         3.4294   53.0238   29.5045 C.ar      1 UNK         0.0000 
     33 C33         2.0815   52.8069   29.2313 C.ar      1 UNK         0.0000 
     34 C34         1.5947   53.0607   27.9368 C.ar      1 UNK         0.0000 
     35 C35         2.4494   53.5286   26.9452 C.ar      1 UNK         0.0000 
     36 O36         1.3088   52.3459   30.2775 O.3       1 UNK         0.0000 
     37 C37        -0.0715   52.0729   30.0510 C.3       1 UNK         0.0000 
     38 H38         5.3908   50.7798   12.7795 H         1 UNK         0.0000 
     39 H39         5.1674   50.5075   14.4864 H         1 UNK         0.0000 
     40 H40         5.6289   52.1054   13.8916 H         1 UNK         0.0000 
     41 H41         2.3999   52.7990   12.0210 H         1 UNK         0.0000 
     42 H42         3.9131   53.5148   12.5429 H         1 UNK         0.0000 
     43 H43         3.9035   52.1364   11.4563 H         1 UNK         0.0000 
     44 H44         1.7132   50.4078   12.9965 H         1 UNK         0.0000 
     45 H45         3.2195   49.7373   12.4367 H         1 UNK         0.0000 
     46 H46         2.7914   49.6231   14.1364 H         1 UNK         0.0000 
     47 H47         4.7647   52.2265   15.9464 H         1 UNK         0.0000 
     48 H48         1.5541   53.9496   18.0818 H         1 UNK         0.0000 
     49 H49         1.2252   52.1192   13.1104 H         1 UNK         0.0000 
     50 H50        -1.2278   51.7933   16.6461 H         1 UNK         0.0000 
     51 H51        -2.4757   52.9193   16.1293 H         1 UNK         0.0000 
     52 H52        -1.4048   52.2187   14.9519 H         1 UNK         0.0000 
     53 H53        -0.0454   55.7567   15.2803 H         1 UNK         0.0000 
     54 H54        -0.6312   54.5776   14.1197 H         1 UNK         0.0000 
     55 H55        -1.7436   55.3113   15.2412 H         1 UNK         0.0000 
     56 H56        -0.2168   55.2743   17.8097 H         1 UNK         0.0000 
     57 H57        -1.8612   54.7205   17.6126 H         1 UNK         0.0000 
     58 H58        -0.6850   53.6650   18.3679 H         1 UNK         0.0000 
     59 H59         5.1810   53.5704   17.9468 H         1 UNK         0.0000 
     60 H60         6.6020   54.0007   19.7309 H         1 UNK         0.0000 
     61 H61         5.5832   55.4573   19.6812 H         1 UNK         0.0000 
     62 H62         2.9510   53.0757   23.2541 H         1 UNK         0.0000 
     63 H63         2.6109   52.7091   21.5907 H         1 UNK         0.0000 
     64 H64         6.4102   55.1571   27.3466 H         1 UNK         0.0000 
     65 H65         5.3310   53.6372   28.7522 H         1 UNK         0.0000 
     66 H66         3.8158   52.8237   30.4915 H         1 UNK         0.0000 
     67 H67         0.5567   52.9032   27.6875 H         1 UNK         0.0000 
     68 H68         2.0536   53.7188   25.9568 H         1 UNK         0.0000 
     69 H69        -0.5162   51.6975   30.9715 H         1 UNK         0.0000 
     70 H70        -0.6148   52.9725   29.7582 H         1 UNK         0.0000 
     71 H71        -0.2113   51.3033   29.2876 H         1 UNK         0.0000 
@<TRIPOS>BOND
     1    1    2 1    
     2    1   38 1    
     3    1   39 1    
     4    1   40 1    
     5    2    3 1    
     6    2    4 1    
     7    2    5 1    
     8    3   41 1    
     9    3   42 1    
    10    3   43 1    
    11    4   44 1    
    12    4   45 1    
    13    4   46 1    
    14    5   10 ar   
    15    5    6 ar   
    16    6    7 ar   
    17    6   47 1    
    18    7    8 ar   
    19    7   16 1    
    20    8    9 ar   
    21    8   48 1    
    22    9   10 ar   
    23    9   12 1    
    24   10   11 1    
    25   11   49 1    
    26   12   13 1    
    27   12   14 1    
    28   12   15 1    
    29   13   50 1    
    30   13   51 1    
    31   13   52 1    
    32   14   53 1    
    33   14   54 1    
    34   14   55 1    
    35   15   56 1    
    36   15   57 1    
    37   15   58 1    
    38   16   17 2    
    39   16   59 1    
    40   17   18 1    
    41   18   23 1    
    42   18   19 1    
    43   19   20 1    
    44   19   60 1    
    45   19   61 1    
    46   20   21 2    
    47   20   22 1    
    48   22   23 2    
    49   22   25 1    
    50   23   24 1    
    51   24   62 1    
    52   24   63 1    
    53   25   29 1    
    54   25   26 2    
    55   26   27 1    
    56   27   28 2    
    57   27   30 1    
    58   28   29 1    
    59   28   64 1    
    60   30   35 ar   
    61   30   31 ar   
    62   31   32 ar   
    63   31   65 1    
    64   32   33 ar   
    65   32   66 1    
    66   33   34 ar   
    67   33   36 1    
    68   34   35 ar   
    69   34   67 1    
    70   35   68 1    
    71   36   37 1    
    72   37   69 1    
    73   37   70 1    
    74   37   71 1    
@<TRIPOS>SUBSTRUCTURE
     1 UNK         1 GROUP             0       ****    0 ROOT    
