@<TRIPOS>MOLECULE
ZINC36218732_5404
65   69    1
SMALL
USER_CHARGES


@<TRIPOS>ATOM
      1 C1          5.2969   54.4951   23.5103 C.3       1 UNK         0.0000 
      2 C2          5.3911   54.4024   25.0223 C.ar      1 UNK         0.0000 
      3 C3          6.6173   54.5938   25.6589 C.ar      1 UNK         0.0000 
      4 C4          6.7044   54.4968   27.0463 C.ar      1 UNK         0.0000 
      5 C5          5.5699   54.2097   27.8015 C.ar      1 UNK         0.0000 
      6 C6          4.3276   54.0085   27.1838 C.ar      1 UNK         0.0000 
      7 C7          4.2510   54.1205   25.7818 C.ar      1 UNK         0.0000 
      8 C8          3.1168   53.6754   28.0276 C.2       1 UNK         0.0000 
      9 O9          3.0906   53.9864   29.2218 O.2       1 UNK         0.0000 
     10 N10         2.1277   53.0126   27.3867 N.am      1 UNK         0.0000 
     11 C11         0.9237   52.5048   27.9043 C.ar      1 UNK         0.0000 
     12 C12         0.7224   52.2020   29.2598 C.ar      1 UNK         0.0000 
     13 C13        -0.5029   51.6967   29.6875 C.ar      1 UNK         0.0000 
     14 C14        -1.5318   51.4853   28.7740 C.ar      1 UNK         0.0000 
     15 C15        -1.3572   51.7990   27.4254 C.ar      1 UNK         0.0000 
     16 C16        -0.1137   52.2791   26.9912 C.ar      1 UNK         0.0000 
     17 C17        -2.5489   51.6913   26.4771 C.3       1 UNK         0.0000 
     18 H18        -3.4459   51.7573   27.0985 H         1 UNK         0.0000 
     19 C19        -2.5802   50.4539   25.5778 C.3       1 UNK         0.0000 
     20 H20        -1.6984   49.8296   25.7278 H         1 UNK         0.0000 
     21 N21        -2.6337   51.0486   24.2463 N.am      1 UNK         0.0000 
     22 C22        -2.6610   52.4386   24.2917 C.2       1 UNK         0.0000 
     23 O23        -2.6996   53.2660   23.3836 O.2       1 UNK         0.0000 
     24 O24        -2.6333   52.7865   25.5873 O.3       1 UNK         0.0000 
     25 C25        -2.5112   50.3107   22.9891 C.3       1 UNK         0.0000 
     26 C26        -1.0846   50.2383   22.4724 C.ar      1 UNK         0.0000 
     27 C27        -0.7415   50.8889   21.2842 C.ar      1 UNK         0.0000 
     28 C28         0.5674   50.8238   20.8104 C.ar      1 UNK         0.0000 
     29 C29         1.5240   50.1069   21.5271 C.ar      1 UNK         0.0000 
     30 C30         1.1799   49.4552   22.7085 C.ar      1 UNK         0.0000 
     31 C31        -0.1242   49.5158   23.1822 C.ar      1 UNK         0.0000 
     32 C32        -3.8366   49.6107   25.8978 C.2       1 UNK         0.0000 
     33 O33        -4.8958   49.8225   25.3022 O.2       1 UNK         0.0000 
     34 N34        -3.6956   48.7003   26.8817 N.am      1 UNK         0.0000 
     35 C35        -4.7010   47.9101   27.4587 C.ar      1 UNK         0.0000 
     36 C36        -4.5843   47.6431   28.8263 C.ar      1 UNK         0.0000 
     37 C37        -5.5631   46.8967   29.4835 C.ar      1 UNK         0.0000 
     38 C38        -6.6454   46.3839   28.7659 C.ar      1 UNK         0.0000 
     39 C39        -6.7506   46.6199   27.3953 C.ar      1 UNK         0.0000 
     40 C40        -5.7850   47.3815   26.7397 C.ar      1 UNK         0.0000 
     41 F41        -7.7938   46.1073   26.7009 F         1 UNK         0.0000 
     42 H42         6.0569   55.1672   23.1088 H         1 UNK         0.0000 
     43 H43         5.4270   53.5103   23.0586 H         1 UNK         0.0000 
     44 H44         4.3295   54.8934   23.2018 H         1 UNK         0.0000 
     45 H45         7.4995   54.8083   25.0728 H         1 UNK         0.0000 
     46 H46         7.6496   54.6434   27.5514 H         1 UNK         0.0000 
     47 H47         5.6698   54.1417   28.8759 H         1 UNK         0.0000 
     48 H48         3.3124   53.9858   25.2637 H         1 UNK         0.0000 
     49 H49         2.2589   52.8669   26.3986 H         1 UNK         0.0000 
     50 H50         1.5013   52.3347   29.9941 H         1 UNK         0.0000 
     51 H51        -0.6633   51.4607   30.7312 H         1 UNK         0.0000 
     52 H52        -2.4753   51.0932   29.1319 H         1 UNK         0.0000 
     53 H53         0.0244   52.5152   25.9455 H         1 UNK         0.0000 
     54 H54        -3.1473   50.7764   22.2349 H         1 UNK         0.0000 
     55 H55        -2.8890   49.2967   23.1206 H         1 UNK         0.0000 
     56 H56        -1.4822   51.4480   20.7313 H         1 UNK         0.0000 
     57 H57         0.8425   51.3265   19.8951 H         1 UNK         0.0000 
     58 H58         2.5399   50.0531   21.1612 H         1 UNK         0.0000 
     59 H59         1.9159   48.8976   23.2617 H         1 UNK         0.0000 
     60 H60        -0.3812   49.0008   24.0965 H         1 UNK         0.0000 
     61 H61        -2.8020   48.6570   27.3809 H         1 UNK         0.0000 
     62 H62        -3.7433   48.0360   29.3870 H         1 UNK         0.0000 
     63 H63        -5.4806   46.7236   30.5473 H         1 UNK         0.0000 
     64 H64        -7.4072   45.8069   29.2685 H         1 UNK         0.0000 
     65 H65        -5.8888   47.5524   25.6784 H         1 UNK         0.0000 
@<TRIPOS>BOND
     1    1    2 1    
     2    1   42 1    
     3    1   43 1    
     4    1   44 1    
     5    2    7 ar   
     6    2    3 ar   
     7    3    4 ar   
     8    3   45 1    
     9    4    5 ar   
    10    4   46 1    
    11    5    6 ar   
    12    5   47 1    
    13    6    7 ar   
    14    6    8 1    
    15    7   48 1    
    16    8    9 2    
    17    8   10 am   BACKBONE|DICT|INTERRES
    18   10   11 1    
    19   10   49 1    
    20   11   16 ar   
    21   11   12 ar   
    22   12   13 ar   
    23   12   50 1    
    24   13   14 ar   
    25   13   51 1    
    26   14   15 ar   
    27   14   52 1    
    28   15   16 ar   
    29   15   17 1    
    30   16   53 1    
    31   17   18 1    
    32   17   24 1    
    33   17   19 1    
    34   19   20 1    
    35   19   21 1    
    36   19   32 1    
    37   21   22 am   BACKBONE|DICT|INTERRES
    38   21   25 1    
    39   22   23 2    
    40   22   24 1    
    41   25   26 1    
    42   25   54 1    
    43   25   55 1    
    44   26   31 ar   
    45   26   27 ar   
    46   27   28 ar   
    47   27   56 1    
    48   28   29 ar   
    49   28   57 1    
    50   29   30 ar   
    51   29   58 1    
    52   30   31 ar   
    53   30   59 1    
    54   31   60 1    
    55   32   33 2    
    56   32   34 am   BACKBONE|DICT|INTERRES
    57   34   35 1    
    58   34   61 1    
    59   35   40 ar   
    60   35   36 ar   
    61   36   37 ar   
    62   36   62 1    
    63   37   38 ar   
    64   37   63 1    
    65   38   39 ar   
    66   38   64 1    
    67   39   40 ar   
    68   39   41 1    
    69   40   65 1    
@<TRIPOS>SUBSTRUCTURE
     1 UNK         1 GROUP             0       ****    0 ROOT    
