ZINC08979930_666
                    3D
 Schrodinger Suite 2024-2.
 56 59  0  0  1  0            999 V2000
    5.3344   54.7952   17.5486 C   0  0  0  0  0  0
    6.0596   55.0277   18.8606 C   0  0  0  0  0  0
    7.3433   55.5784   18.8728 C   0  0  0  0  0  0
    7.9993   55.7979   20.0827 C   0  0  0  0  0  0
    7.3749   55.4733   21.2865 C   0  0  0  0  0  0
    6.0939   54.8963   21.2847 C   0  0  0  0  0  0
    5.4388   54.6947   20.0665 C   0  0  0  0  0  0
    5.4047   54.4967   22.4446 N   0  0  0  0  0  0
    5.9028   54.2760   23.6766 C   0  0  0  0  0  0
    7.0979   54.1329   23.9316 O   0  0  0  0  0  0
    4.9087   54.2709   24.5866 N   0  0  0  0  0  0
    5.0290   54.2792   25.9710 C   0  0  0  0  0  0
    3.9731   54.1405   26.7320 N   0  0  0  0  0  0
    4.2721   54.0666   28.0217 C   0  0  0  0  0  0
    5.6106   54.3491   28.3128 C   0  0  0  0  0  0
    6.5216   54.4976   26.8466 S   0  0  0  0  0  0
    3.2334   53.8725   29.0238 C   0  0  0  0  0  0
    3.3341   54.4959   30.0816 O   0  0  0  0  0  0
    2.1973   53.0089   28.7939 N   0  0  0  0  0  0
    2.1457   52.0128   27.7177 C   0  0  0  0  0  0
    0.7873   52.0975   27.0051 C   0  0  0  0  0  0
   -0.3820   52.0165   27.8905 N   0  0  0  0  0  0
   -0.2460   52.8699   29.0858 C   0  0  0  0  0  0
    1.1285   52.8550   29.7934 C   0  0  0  0  0  0
   -1.6467   51.7140   27.3853 C   0  0  0  0  0  0
   -2.6730   51.2964   28.2422 C   0  0  0  0  0  0
   -3.9440   50.9969   27.7534 C   0  0  0  0  0  0
   -4.2168   51.1269   26.3943 C   0  0  0  0  0  0
   -3.2147   51.5477   25.5132 C   0  0  0  0  0  0
   -1.9402   51.8298   26.0171 C   0  0  0  0  0  0
   -3.4797   51.7105   24.0197 C   0  0  0  0  0  0
   -3.2968   52.9874   23.6816 F   0  0  0  0  0  0
   -4.7213   51.3562   23.6831 F   0  0  0  0  0  0
   -2.6286   50.9587   23.3209 F   0  0  0  0  0  0
    5.7827   55.3607   16.7312 H   0  0  0  0  0  0
    5.3372   53.7349   17.2945 H   0  0  0  0  0  0
    4.2961   55.1175   17.6300 H   0  0  0  0  0  0
    7.8364   55.8356   17.9464 H   0  0  0  0  0  0
    8.9946   56.2199   20.0888 H   0  0  0  0  0  0
    7.9050   55.6638   22.2074 H   0  0  0  0  0  0
    4.4487   54.2610   20.0466 H   0  0  0  0  0  0
    4.4127   54.3719   22.3191 H   0  0  0  0  0  0
    3.9641   54.3063   24.2372 H   0  0  0  0  0  0
    6.0966   54.4455   29.2722 H   0  0  0  0  0  0
    2.2452   51.0192   28.1554 H   0  0  0  0  0  0
    2.9480   52.0967   26.9974 H   0  0  0  0  0  0
    0.7403   51.3135   26.2487 H   0  0  0  0  0  0
    0.7328   53.0678   26.5099 H   0  0  0  0  0  0
   -0.3958   53.8879   28.7226 H   0  0  0  0  0  0
   -1.0160   52.6509   29.8240 H   0  0  0  0  0  0
    1.1438   53.6215   30.5692 H   0  0  0  0  0  0
    1.2484   51.8911   30.2895 H   0  0  0  0  0  0
   -2.4809   51.1491   29.2947 H   0  0  0  0  0  0
   -4.7108   50.6503   28.4308 H   0  0  0  0  0  0
   -5.2081   50.8912   26.0331 H   0  0  0  0  0  0
   -1.1793   52.1603   25.3261 H   0  0  0  0  0  0
  1  2  1  0  0  0
  1 35  1  0  0  0
  1 36  1  0  0  0
  1 37  1  0  0  0
  2  7  2  0  0  0
  2  3  1  0  0  0
  3  4  2  0  0  0
  3 38  1  0  0  0
  4  5  1  0  0  0
  4 39  1  0  0  0
  5  6  2  0  0  0
  5 40  1  0  0  0
  6  7  1  0  0  0
  6  8  1  0  0  0
  7 41  1  0  0  0
  8  9  1  0  0  0
  8 42  1  0  0  0
  9 10  2  0  0  0
  9 11  1  0  0  0
 11 12  1  0  0  0
 11 43  1  0  0  0
 12 16  1  0  0  0
 12 13  2  0  0  0
 13 14  1  0  0  0
 14 15  2  0  0  0
 14 17  1  0  0  0
 15 16  1  0  0  0
 15 44  1  0  0  0
 17 18  2  0  0  0
 17 19  1  0  0  0
 19 24  1  0  0  0
 19 20  1  0  0  0
 20 21  1  0  0  0
 20 45  1  0  0  0
 20 46  1  0  0  0
 21 22  1  0  0  0
 21 47  1  0  0  0
 21 48  1  0  0  0
 22 23  1  0  0  0
 22 25  1  0  0  0
 23 24  1  0  0  0
 23 49  1  0  0  0
 23 50  1  0  0  0
 24 51  1  0  0  0
 24 52  1  0  0  0
 25 30  2  0  0  0
 25 26  1  0  0  0
 26 27  2  0  0  0
 26 53  1  0  0  0
 27 28  1  0  0  0
 27 54  1  0  0  0
 28 29  2  0  0  0
 28 55  1  0  0  0
 29 30  1  0  0  0
 29 31  1  0  0  0
 30 56  1  0  0  0
 31 32  1  0  0  0
 31 33  1  0  0  0
 31 34  1  0  0  0
M  END
> <i_i_glide_confnum>
501

> <i_i_glide_lignum>
667

> <i_i_glide_posenum>
253

> <i_i_glide_rotatable_bonds>
8

> <i_m_Source_File_Index>
4120

> <b_m_subgroup_collapsed>
0

> <r_i_docking_score>
-6.42811

> <r_i_glide_ecoul>
-6.03539

> <r_i_glide_eff_state_penalty>
0

> <r_i_glide_einternal>
4.41903

> <r_i_glide_emodel>
-71.9429

> <r_i_glide_energy>
-53.8269

> <r_i_glide_erotb>
0.594298

> <r_i_glide_esite>
-0.02526

> <r_i_glide_evdw>
-47.7915

> <r_i_glide_gscore>
-6.42811

> <r_i_glide_hbond>
-0.32

> <r_i_glide_ligand_efficiency>
-0.189062

> <r_i_glide_ligand_efficiency_ln>
-1.42015

> <r_i_glide_ligand_efficiency_sa>
-0.612488

> <r_i_glide_lipo>
-2.26662

> <r_i_glide_metal>
0

> <r_i_glide_rewards>
-1.11564

> <s_i_glide_gridfile>
wee1_glide-grid

> <s_m_Source_File>
wee1_decoys_glide_SP.sdf

> <s_m_Source_Path>
/Users/zhangxujun/Desktop

> <s_m_entry_id>
4395

> <s_m_entry_name>
wee1_decoys_glide_SP.4120

> <s_m_subgroup_title>
wee1_decoys_glide_SP

> <s_m_subgroupid>
wee1_decoys_glide_SP


$$$$
