@<TRIPOS>MOLECULE
ZINC13499749_3213
60   64    1
SMALL
USER_CHARGES


@<TRIPOS>ATOM
      1 C1          5.0799   55.3260   19.0313 C.3       1 UNK         0.0000 
      2 C2          5.6624   54.1454   19.8243 C.3       1 UNK         0.0000 
      3 C3          4.9662   53.9225   21.1645 C.ar      1 UNK         0.0000 
      4 N4          5.6399   54.3857   22.2581 N.2       1 UNK         0.0000 
      5 C5          5.0432   54.2470   23.4470 C.ar      1 UNK         0.0000 
      6 C6          3.7550   53.7004   23.6541 C.ar      1 UNK         0.0000 
      7 C7          3.3223   53.6976   25.0144 C.2       1 UNK         0.0000 
      8 C8          4.3427   54.1797   25.8409 C.2       1 UNK         0.0000 
      9 S9          5.7636   54.7383   24.9635 S.3       1 UNK         0.0000 
     10 C10         4.2441   54.2632   27.3610 C.3       1 UNK         0.0000 
     11 C11         3.1428   53.2891   27.8483 C.3       1 UNK         0.0000 
     12 H12         3.4973   52.2695   27.7054 H         1 UNK         0.0000 
     13 C13         1.8429   53.5259   27.0485 C.3       1 UNK         0.0000 
     14 C14         1.9880   53.1731   25.5505 C.3       1 UNK         0.0000 
     15 C15         2.9073   53.4676   29.3606 C.3       1 UNK         0.0000 
     16 C16         3.1035   53.2154   22.4890 C.ar      1 UNK         0.0000 
     17 N17         3.7253   53.3095   21.2412 N.pl3     1 UNK         0.0000 
     18 C18         2.8317   52.6992   20.3678 C.ar      1 UNK         0.0000 
     19 N19         1.7670   52.2960   21.0414 N.2       1 UNK         0.0000 
     20 N20         1.9027   52.6100   22.3831 N.2       1 UNK         0.0000 
     21 S21         3.0740   52.4866   18.6269 S.3       1 UNK         0.0000 
     22 C22         1.4692   51.8178   18.0398 C.3       1 UNK         0.0000 
     23 C23         0.6348   52.8244   17.2350 C.2       1 UNK         0.0000 
     24 O24         0.0375   52.4429   16.2248 O.2       1 UNK         0.0000 
     25 N25         0.6405   54.0964   17.6812 N.am      1 UNK         0.0000 
     26 N26        -0.0056   55.1311   16.9934 N.am      1 UNK         0.0000 
     27 C27        -1.3396   55.3172   17.0951 C.2       1 UNK         0.0000 
     28 O28        -2.1093   54.5513   17.6823 O.2       1 UNK         0.0000 
     29 C29        -1.8752   56.5646   16.4309 C.ar      1 UNK         0.0000 
     30 C30        -1.0804   57.7135   16.2974 C.ar      1 UNK         0.0000 
     31 C31        -1.5999   58.8604   15.7005 C.ar      1 UNK         0.0000 
     32 C32        -2.9146   58.8715   15.2378 C.ar      1 UNK         0.0000 
     33 C33        -3.7152   57.7401   15.3776 C.ar      1 UNK         0.0000 
     34 C34        -3.1970   56.5912   15.9702 C.ar      1 UNK         0.0000 
     35 C35        -3.4852   60.1304   14.6089 C.3       1 UNK         0.0000 
     36 H36         5.5588   55.4108   18.0550 H         1 UNK         0.0000 
     37 H37         4.0075   55.2208   18.8624 H         1 UNK         0.0000 
     38 H38         5.2419   56.2671   19.5557 H         1 UNK         0.0000 
     39 H39         6.7196   54.3528   19.9923 H         1 UNK         0.0000 
     40 H40         5.6451   53.2264   19.2396 H         1 UNK         0.0000 
     41 H41         5.2019   54.0216   27.8267 H         1 UNK         0.0000 
     42 H42         3.9959   55.2807   27.6584 H         1 UNK         0.0000 
     43 H43         1.0362   52.9246   27.4701 H         1 UNK         0.0000 
     44 H44         1.5022   54.5485   27.1930 H         1 UNK         0.0000 
     45 H45         1.1515   53.5958   24.9955 H         1 UNK         0.0000 
     46 H46         1.9273   52.0965   25.4088 H         1 UNK         0.0000 
     47 H47         2.5543   54.4735   29.5998 H         1 UNK         0.0000 
     48 H48         2.1601   52.7621   29.7277 H         1 UNK         0.0000 
     49 H49         3.8246   53.2948   29.9249 H         1 UNK         0.0000 
     50 H50         0.8638   51.4048   18.8440 H         1 UNK         0.0000 
     51 H51         1.7053   50.9768   17.3875 H         1 UNK         0.0000 
     52 H52         1.0760   54.3996   18.5462 H         1 UNK         0.0000 
     53 H53         0.5618   55.5224   16.2570 H         1 UNK         0.0000 
     54 H54        -0.0625   57.7447   16.6614 H         1 UNK         0.0000 
     55 H55        -0.9753   59.7368   15.6079 H         1 UNK         0.0000 
     56 H56        -4.7345   57.7431   15.0262 H         1 UNK         0.0000 
     57 H57        -3.8354   55.7239   16.0721 H         1 UNK         0.0000 
     58 H58        -3.0056   61.0228   15.0105 H         1 UNK         0.0000 
     59 H59        -3.3478   60.1129   13.5280 H         1 UNK         0.0000 
     60 H60        -4.5492   60.2234   14.8237 H         1 UNK         0.0000 
@<TRIPOS>BOND
     1    1    2 1    
     2    1   36 1    
     3    1   37 1    
     4    1   38 1    
     5    2    3 1    
     6    2   39 1    
     7    2   40 1    
     8    3   17 ar   
     9    3    4 ar   
    10    4    5 ar   
    11    5    9 1    
    12    5    6 ar   
    13    6    7 1    
    14    6   16 ar   
    15    7   14 1    
    16    7    8 2    
    17    8    9 1    
    18    8   10 1    
    19   10   11 1    
    20   10   41 1    
    21   10   42 1    
    22   11   12 1    
    23   11   13 1    
    24   11   15 1    
    25   13   14 1    
    26   13   43 1    
    27   13   44 1    
    28   14   45 1    
    29   14   46 1    
    30   15   47 1    
    31   15   48 1    
    32   15   49 1    
    33   16   20 ar   
    34   16   17 ar   
    35   17   18 ar   
    36   18   19 ar   
    37   18   21 1    
    38   19   20 ar   
    39   21   22 1    
    40   22   23 1    
    41   22   50 1    
    42   22   51 1    
    43   23   24 2    
    44   23   25 am   BACKBONE|DICT|INTERRES
    45   25   26 1    
    46   25   52 1    
    47   26   27 am   BACKBONE|DICT|INTERRES
    48   26   53 1    
    49   27   28 2    
    50   27   29 1    
    51   29   34 ar   
    52   29   30 ar   
    53   30   31 ar   
    54   30   54 1    
    55   31   32 ar   
    56   31   55 1    
    57   32   33 ar   
    58   32   35 1    
    59   33   34 ar   
    60   33   56 1    
    61   34   57 1    
    62   35   58 1    
    63   35   59 1    
    64   35   60 1    
@<TRIPOS>SUBSTRUCTURE
     1 UNK         1 GROUP             0       ****    0 ROOT    
