@<TRIPOS>MOLECULE
ZINC39354725_5346
62   66    1
SMALL
USER_CHARGES


@<TRIPOS>ATOM
      1 C1          0.2603   48.9158   23.2295 C.ar      1 UNK         0.0000 
      2 C2         -1.1227   48.8549   23.1174 C.ar      1 UNK         0.0000 
      3 C3         -1.7555   49.4694   22.0414 C.ar      1 UNK         0.0000 
      4 C4         -1.0202   50.1625   21.0647 C.ar      1 UNK         0.0000 
      5 C5          0.3878   50.2477   21.1961 C.ar      1 UNK         0.0000 
      6 C6          1.0065   49.6000   22.2751 C.ar      1 UNK         0.0000 
      7 C7          1.2834   50.9933   20.1907 C.3       1 UNK         0.0000 
      8 N8          2.0501   52.0969   20.7868 N.am      1 UNK         0.0000 
      9 C9          3.2784   51.9711   21.3236 C.2       1 UNK         0.0000 
     10 O10         3.9070   50.9190   21.2811 O.2       1 UNK         0.0000 
     11 C11         3.9243   53.1743   22.0390 C.3       1 UNK         0.0000 
     12 H12         4.9787   53.2949   21.7890 H         1 UNK         0.0000 
     13 C13         3.1014   54.4230   22.2689 C.3       1 UNK         0.0000 
     14 C14         3.4603   53.5563   23.4481 C.3       1 UNK         0.0000 
     15 C15         4.5263   54.0736   24.4482 C.3       1 UNK         0.0000 
     16 C16         3.9325   54.7301   25.7138 C.3       1 UNK         0.0000 
     17 N17         2.7889   53.8728   26.3137 N.4       1 UNK         0.0000 
     18 C18         1.7089   53.5614   25.2443 C.3       1 UNK         0.0000 
     19 C19         2.3318   52.7484   24.1173 C.3       1 UNK         0.0000 
     20 C20         2.1327   54.5915   27.5373 C.3       1 UNK         0.0000 
     21 C21         2.1221   53.7328   28.8186 C.3       1 UNK         0.0000 
     22 H22         1.4459   54.1845   29.5481 H         1 UNK         0.0000 
     23 C23         3.4466   53.4966   29.4771 C.2       1 UNK         0.0000 
     24 N24         3.6573   52.2741   29.6930 N.2       1 UNK         0.0000 
     25 N25         2.7045   51.5699   29.2310 N.2       1 UNK         0.0000 
     26 C26         1.8012   52.2625   28.6787 C.2       1 UNK         0.0000 
     27 C27         0.6315   51.7522   27.9318 C.ar      1 UNK         0.0000 
     28 C28         0.7052   50.5458   27.2276 C.ar      1 UNK         0.0000 
     29 C29        -0.3511   50.1105   26.4375 C.ar      1 UNK         0.0000 
     30 C30        -1.4910   50.8931   26.3213 C.ar      1 UNK         0.0000 
     31 C31        -1.5839   52.0962   27.0072 C.ar      1 UNK         0.0000 
     32 C32        -0.5350   52.5127   27.8296 C.ar      1 UNK         0.0000 
     33 F33        -2.5112   50.4882   25.5334 F         1 UNK         0.0000 
     34 C34        -1.7747   50.7890   19.8837 C.3       1 UNK         0.0000 
     35 F35        -1.5790   52.1056   19.8756 F         1 UNK         0.0000 
     36 F36        -1.3368   50.2734   18.7346 F         1 UNK         0.0000 
     37 F37        -3.0933   50.5854   19.9402 F         1 UNK         0.0000 
     38 H38         0.7598   48.4279   24.0541 H         1 UNK         0.0000 
     39 H39        -1.7043   48.3248   23.8589 H         1 UNK         0.0000 
     40 H40        -2.8317   49.3952   21.9749 H         1 UNK         0.0000 
     41 H41         2.0806   49.6144   22.3839 H         1 UNK         0.0000 
     42 H42         1.9557   50.2579   19.7419 H         1 UNK         0.0000 
     43 H43         0.7246   51.4031   19.3538 H         1 UNK         0.0000 
     44 H44         1.6132   53.0077   20.7984 H         1 UNK         0.0000 
     45 H45         3.6145   55.3537   22.0820 H         1 UNK         0.0000 
     46 H46         2.0326   54.4959   22.0816 H         1 UNK         0.0000 
     47 H47         5.1972   53.2825   24.7551 H         1 UNK         0.0000 
     48 H48         5.1779   54.7943   23.9541 H         1 UNK         0.0000 
     49 H49         3.5046   55.6966   25.4892 H         1 UNK         0.0000 
     50 H50         4.6949   54.8334   26.4892 H         1 UNK         0.0000 
     51 H51         1.2870   54.4962   24.8792 H         1 UNK         0.0000 
     52 H52         0.9213   52.9778   25.7033 H         1 UNK         0.0000 
     53 H53         1.5383   52.4939   23.4151 H         1 UNK         0.0000 
     54 H54         2.7043   51.7963   24.4814 H         1 UNK         0.0000 
     55 H55         2.6670   55.5301   27.7058 H         1 UNK         0.0000 
     56 H56         1.1069   54.8643   27.2812 H         1 UNK         0.0000 
     57 H57         4.1506   54.2718   29.7704 H         1 UNK         0.0000 
     58 H58         1.5857   49.9251   27.2818 H         1 UNK         0.0000 
     59 H59        -0.2957   49.1554   25.9429 H         1 UNK         0.0000 
     60 H60        -2.4699   52.6997   26.8849 H         1 UNK         0.0000 
     61 H61        -0.6158   53.4562   28.3487 H         1 UNK         0.0000 
     62 H62         3.1773   52.9942   26.6357 H         1 UNK         0.0000 
@<TRIPOS>BOND
     1    1    6 ar   
     2    1    2 ar   
     3    1   38 1    
     4    2    3 ar   
     5    2   39 1    
     6    3    4 ar   
     7    3   40 1    
     8    4    5 ar   
     9    4   34 1    
    10    5    6 ar   
    11    5    7 1    
    12    6   41 1    
    13    7    8 1    
    14    7   42 1    
    15    7   43 1    
    16    8    9 am   BACKBONE|DICT|INTERRES
    17    8   44 1    
    18    9   10 2    
    19    9   11 1    
    20   11   12 1    
    21   11   14 1    
    22   11   13 1    
    23   13   14 1    
    24   13   45 1    
    25   13   46 1    
    26   14   19 1    
    27   14   15 1    
    28   15   16 1    
    29   15   47 1    
    30   15   48 1    
    31   16   17 1    
    32   16   49 1    
    33   16   50 1    
    34   17   18 1    
    35   17   20 1    
    36   17   62 1    
    37   18   19 1    
    38   18   51 1    
    39   18   52 1    
    40   19   53 1    
    41   19   54 1    
    42   20   21 1    
    43   20   55 1    
    44   20   56 1    
    45   21   22 1    
    46   21   26 1    
    47   21   23 1    
    48   23   24 2    
    49   23   57 1    
    50   24   25 1    
    51   25   26 2    
    52   26   27 1    
    53   27   32 ar   
    54   27   28 ar   
    55   28   29 ar   
    56   28   58 1    
    57   29   30 ar   
    58   29   59 1    
    59   30   31 ar   
    60   30   33 1    
    61   31   32 ar   
    62   31   60 1    
    63   32   61 1    
    64   34   35 1    
    65   34   36 1    
    66   34   37 1    
@<TRIPOS>SUBSTRUCTURE
     1 UNK         1 GROUP             0       ****    0 ROOT    
