@<TRIPOS>MOLECULE
ZINC33063341_4441
50   53    1
SMALL
USER_CHARGES


@<TRIPOS>ATOM
      1 C1          5.8753   54.5306   24.2547 C.ar      1 UNK         0.0000 
      2 C2          6.8758   54.4935   25.2165 C.ar      1 UNK         0.0000 
      3 C3          6.5518   54.3919   26.5698 C.ar      1 UNK         0.0000 
      4 C4          5.2105   54.3516   26.9646 C.ar      1 UNK         0.0000 
      5 C5          4.2092   54.4298   25.9806 C.ar      1 UNK         0.0000 
      6 C6          4.5384   54.4967   24.6322 C.ar      1 UNK         0.0000 
      7 C7          4.8693   54.1826   28.4543 C.3       1 UNK         0.0000 
      8 N8          3.4614   53.8615   28.6814 N.am      1 UNK         0.0000 
      9 C9          2.9462   52.7843   29.2951 C.2       1 UNK         0.0000 
     10 O10         3.5223   52.1229   30.1590 O.2       1 UNK         0.0000 
     11 C11         1.5921   52.3958   28.7690 C.ar      1 UNK         0.0000 
     12 C12         1.3976   52.3116   27.3852 C.ar      1 UNK         0.0000 
     13 C13         0.1591   51.9737   26.8655 C.ar      1 UNK         0.0000 
     14 C14        -0.9103   51.7094   27.7223 C.ar      1 UNK         0.0000 
     15 C15        -0.7124   51.7455   29.1089 C.ar      1 UNK         0.0000 
     16 C16         0.5327   52.0968   29.6323 C.ar      1 UNK         0.0000 
     17 C17        -2.2772   51.4008   27.1225 C.3       1 UNK         0.0000 
     18 H18        -2.9797   51.3715   27.9558 H         1 UNK         0.0000 
     19 N19        -2.2818   50.0967   26.4819 N.pl3     1 UNK         0.0000 
     20 C20        -3.2910   49.7374   25.5713 C.ar      1 UNK         0.0000 
     21 C21        -3.3406   48.4028   25.1680 C.ar      1 UNK         0.0000 
     22 C22        -4.2895   47.9655   24.2378 C.ar      1 UNK         0.0000 
     23 C23        -5.2057   48.8901   23.7178 C.ar      1 UNK         0.0000 
     24 C24        -5.1793   50.2223   24.1328 C.ar      1 UNK         0.0000 
     25 C25        -4.2388   50.6499   25.0732 C.ar      1 UNK         0.0000 
     26 S26        -4.3217   52.3420   25.6368 S.o2      1 UNK         0.0000 
     27 O27        -5.2687   52.4088   26.7549 O.2       1 UNK         0.0000 
     28 O28        -4.5057   53.2287   24.4838 O.2       1 UNK         0.0000 
     29 N29        -2.6994   52.4976   26.2407 N.pl3     1 UNK         0.0000 
     30 C30        -4.3132   46.4963   23.8124 C.3       1 UNK         0.0000 
     31 F31        -4.2211   45.6970   24.8776 F         1 UNK         0.0000 
     32 F32        -5.4297   46.1774   23.1549 F         1 UNK         0.0000 
     33 F33        -3.2705   46.2522   23.0152 F         1 UNK         0.0000 
     34 H34         6.1359   54.5846   23.2084 H         1 UNK         0.0000 
     35 H35         7.9041   54.5141   24.8865 H         1 UNK         0.0000 
     36 H36         7.3405   54.3315   27.3081 H         1 UNK         0.0000 
     37 H37         3.1634   54.4314   26.2416 H         1 UNK         0.0000 
     38 H38         3.7613   54.5338   23.8833 H         1 UNK         0.0000 
     39 H39         5.5127   53.4032   28.8723 H         1 UNK         0.0000 
     40 H40         5.1299   55.0972   28.9921 H         1 UNK         0.0000 
     41 H41         2.8040   54.4767   28.2289 H         1 UNK         0.0000 
     42 H42         2.2098   52.4914   26.6960 H         1 UNK         0.0000 
     43 H43         0.0303   51.9150   25.7942 H         1 UNK         0.0000 
     44 H44        -1.5210   51.5064   29.7838 H         1 UNK         0.0000 
     45 H45         0.6634   52.1275   30.7037 H         1 UNK         0.0000 
     46 H46        -1.8768   49.3747   27.0901 H         1 UNK         0.0000 
     47 H47        -2.6223   47.7021   25.5733 H         1 UNK         0.0000 
     48 H48        -5.9535   48.5821   22.9996 H         1 UNK         0.0000 
     49 H49        -5.9081   50.9181   23.7413 H         1 UNK         0.0000 
     50 H50        -2.0098   52.7888   25.5478 H         1 UNK         0.0000 
@<TRIPOS>BOND
     1    1    6 ar   
     2    1    2 ar   
     3    1   34 1    
     4    2    3 ar   
     5    2   35 1    
     6    3    4 ar   
     7    3   36 1    
     8    4    5 ar   
     9    4    7 1    
    10    5    6 ar   
    11    5   37 1    
    12    6   38 1    
    13    7    8 1    
    14    7   39 1    
    15    7   40 1    
    16    8    9 am   BACKBONE|DICT|INTERRES
    17    8   41 1    
    18    9   10 2    
    19    9   11 1    
    20   11   16 ar   
    21   11   12 ar   
    22   12   13 ar   
    23   12   42 1    
    24   13   14 ar   
    25   13   43 1    
    26   14   15 ar   
    27   14   17 1    
    28   15   16 ar   
    29   15   44 1    
    30   16   45 1    
    31   17   18 1    
    32   17   29 1    
    33   17   19 1    
    34   19   20 1    
    35   19   46 1    
    36   20   25 ar   
    37   20   21 ar   
    38   21   22 ar   
    39   21   47 1    
    40   22   23 ar   
    41   22   30 1    
    42   23   24 ar   
    43   23   48 1    
    44   24   25 ar   
    45   24   49 1    
    46   25   26 1    
    47   26   27 2    
    48   26   28 2    
    49   26   29 1    
    50   29   50 1    
    51   30   31 1    
    52   30   32 1    
    53   30   33 1    
@<TRIPOS>SUBSTRUCTURE
     1 UNK         1 GROUP             0       ****    0 ROOT    
