ZINC37309192_1630
                    3D
 Schrodinger Suite 2024-2.
 39 40  0  0  1  0            999 V2000
    4.6926   53.5105   17.9296 C   0  0  0  0  0  0
    5.1560   53.5214   19.3978 C   0  0  1  0  0  0
    5.5417   54.9455   19.8651 C   0  0  0  0  0  0
    5.9283   55.0033   21.3620 C   0  0  0  0  0  0
    4.8574   54.3538   22.2715 C   0  0  1  0  0  0
    4.5725   52.9051   21.8115 C   0  0  0  0  0  0
    4.1028   52.8966   20.3419 C   0  0  0  0  0  0
    5.3235   54.4484   23.6232 O   0  0  0  0  0  0
    4.5037   54.2293   24.7241 C   0  0  0  0  0  0
    3.1220   53.9877   24.5995 C   0  0  0  0  0  0
    2.3388   53.6967   25.7156 C   0  0  0  0  0  0
    2.9139   53.6582   26.9817 C   0  0  0  0  0  0
    4.2748   53.9203   27.1273 C   0  0  0  0  0  0
    5.0817   54.2190   26.0168 C   0  0  0  0  0  0
    6.5244   54.5572   26.2567 C   0  0  0  0  0  0
    7.0741   54.0931   27.2804 O   0  0  0  0  0  0
    7.1042   55.3340   25.4668 O   0  5  0  0  0  0
    1.9083   53.2729   28.4132 S   0  0  0  0  0  0
    0.8597   54.2943   28.4807 O   0  0  0  0  0  0
    2.7973   53.0159   29.5520 O   0  0  0  0  0  0
    1.1253   51.7677   28.0174 N   0  0  0  0  0  0
    3.8040   54.1262   17.7851 H   0  0  0  0  0  0
    5.4719   53.8930   17.2688 H   0  0  0  0  0  0
    4.4560   52.4972   17.5999 H   0  0  0  0  0  0
    6.0499   52.9016   19.4789 H   0  0  0  0  0  0
    4.7044   55.6186   19.6821 H   0  0  0  0  0  0
    6.3455   55.3400   19.2421 H   0  0  0  0  0  0
    6.0746   56.0462   21.6420 H   0  0  0  0  0  0
    6.8828   54.4968   21.4982 H   0  0  0  0  0  0
    3.9477   54.9494   22.1705 H   0  0  0  0  0  0
    5.4759   52.2993   21.8911 H   0  0  0  0  0  0
    3.7989   52.4455   22.4237 H   0  0  0  0  0  0
    3.8760   51.8793   20.0185 H   0  0  0  0  0  0
    3.1586   53.4385   20.2481 H   0  0  0  0  0  0
    2.6301   54.0038   23.6395 H   0  0  0  0  0  0
    1.2839   53.4985   25.5944 H   0  0  0  0  0  0
    4.7105   53.9023   28.1191 H   0  0  0  0  0  0
    1.5901   50.9498   28.4153 H   0  0  0  0  0  0
    0.1111   51.7801   28.1791 H   0  0  0  0  0  0
  1  2  1  0  0  0
  1 22  1  0  0  0
  1 23  1  0  0  0
  1 24  1  0  0  0
  2  7  1  0  0  0
  2  3  1  0  0  0
  2 25  1  0  0  0
  3  4  1  0  0  0
  3 26  1  0  0  0
  3 27  1  0  0  0
  4  5  1  0  0  0
  4 28  1  0  0  0
  4 29  1  0  0  0
  5  6  1  0  0  0
  5  8  1  0  0  0
  5 30  1  0  0  0
  6  7  1  0  0  0
  6 31  1  0  0  0
  6 32  1  0  0  0
  7 33  1  0  0  0
  7 34  1  0  0  0
  8  9  1  0  0  0
  9 14  2  0  0  0
  9 10  1  0  0  0
 10 11  2  0  0  0
 10 35  1  0  0  0
 11 12  1  0  0  0
 11 36  1  0  0  0
 12 13  2  0  0  0
 12 18  1  0  0  0
 13 14  1  0  0  0
 13 37  1  0  0  0
 14 15  1  0  0  0
 15 16  2  0  0  0
 15 17  1  0  0  0
 18 19  2  0  0  0
 18 20  2  0  0  0
 18 21  1  0  0  0
 21 38  1  0  0  0
 21 39  1  0  0  0
M  CHG  1  17  -1
M  END
> <i_i_glide_confnum>
3

> <i_i_glide_lignum>
1631

> <i_i_glide_posenum>
381

> <i_i_glide_rotatable_bonds>
4

> <i_m_Source_File_Index>
5470

> <b_m_subgroup_collapsed>
0

> <r_i_docking_score>
-5.25354

> <r_i_glide_ecoul>
-4.74362

> <r_i_glide_eff_state_penalty>
0

> <r_i_glide_einternal>
1.71857

> <r_i_glide_emodel>
-48.6983

> <r_i_glide_energy>
-37.1761

> <r_i_glide_erotb>
0.380416

> <r_i_glide_esite>
0

> <r_i_glide_evdw>
-32.4325

> <r_i_glide_gscore>
-5.25354

> <r_i_glide_hbond>
-0.16

> <r_i_glide_ligand_efficiency>
-0.250169

> <r_i_glide_ligand_efficiency_ln>
-1.29893

> <r_i_glide_ligand_efficiency_sa>
-0.690196

> <r_i_glide_lipo>
-1.9189

> <r_i_glide_metal>
0

> <r_i_glide_rewards>
-1.22189

> <s_i_glide_gridfile>
wee1_glide-grid

> <s_m_Source_File>
wee1_decoys_glide_SP.sdf

> <s_m_Source_Path>
/Users/zhangxujun/Desktop

> <s_m_entry_id>
5745

> <s_m_entry_name>
wee1_decoys_glide_SP.5470

> <s_m_subgroup_title>
wee1_decoys_glide_SP

> <s_m_subgroupid>
wee1_decoys_glide_SP


$$$$
