@<TRIPOS>MOLECULE
ZINC14078445_4785
24   25    1
SMALL
USER_CHARGES


@<TRIPOS>ATOM
      1 C1          3.6294   54.0356   24.2200 C.ar      1 UNK         0.0000 
      2 C2          3.3351   54.0967   25.5825 C.ar      1 UNK         0.0000 
      3 C3          4.3492   54.3316   26.5189 C.ar      1 UNK         0.0000 
      4 C4          5.6702   54.4967   26.0679 C.ar      1 UNK         0.0000 
      5 C5          5.9607   54.4269   24.7046 C.ar      1 UNK         0.0000 
      6 C6          4.9439   54.1876   23.7831 C.ar      1 UNK         0.0000 
      7 F7          5.2331   54.1094   22.4653 F         1 UNK         0.0000 
      8 Br8         7.1044   54.8051   27.2816 Br        1 UNK         0.0000 
      9 C9          3.9958   54.4062   28.0018 C.3       1 UNK         0.0000 
     10 S10         4.5230   52.8967   28.8817 S.3       1 UNK         0.0000 
     11 C11         3.1720   52.6049   29.9754 C.ar      1 UNK         0.0000 
     12 N12         1.9067   52.8158   29.6299 N.2       1 UNK         0.0000 
     13 C13         1.2532   52.4967   30.7134 C.ar      1 UNK         0.0000 
     14 N14         2.1268   52.0967   31.6771 N.pl3     1 UNK         0.0000 
     15 H15         1.8946   51.8104   32.6201 H         1 UNK         0.0000 
     16 N16         3.3691   52.1236   31.1897 N.2       1 UNK         0.0000 
     17 N17        -0.0956   52.4968   30.8817 N.pl3     1 UNK         0.0000 
     18 H18         2.8436   53.8550   23.5012 H         1 UNK         0.0000 
     19 H19         2.3135   53.9611   25.9073 H         1 UNK         0.0000 
     20 H20         6.9768   54.5465   24.3578 H         1 UNK         0.0000 
     21 H21         2.9311   54.6017   28.1227 H         1 UNK         0.0000 
     22 H22         4.5120   55.2568   28.4468 H         1 UNK         0.0000 
     23 H23        -0.7116   52.7150   30.1148 H         1 UNK         0.0000 
     24 H24        -0.5516   52.1627   31.7383 H         1 UNK         0.0000 
@<TRIPOS>BOND
     1    1    6 ar   
     2    1    2 ar   
     3    1   18 1    
     4    2    3 ar   
     5    2   19 1    
     6    3    4 ar   
     7    3    9 1    
     8    4    5 ar   
     9    4    8 1    
    10    5    6 ar   
    11    5   20 1    
    12    6    7 1    
    13    9   10 1    
    14    9   21 1    
    15    9   22 1    
    16   10   11 1    
    17   11   16 ar   
    18   11   12 ar   
    19   12   13 ar   
    20   13   14 ar   
    21   13   17 1    
    22   14   15 1    
    23   14   16 ar   
    24   17   23 1    
    25   17   24 1    
@<TRIPOS>SUBSTRUCTURE
     1 UNK         1 GROUP             0       ****    0 ROOT    
