@<TRIPOS>MOLECULE
ZINC32832440_2768
52   55    1
SMALL
USER_CHARGES


@<TRIPOS>ATOM
      1 C1          6.1054   55.0886   19.9859 C.3       1 UNK         0.0000 
      2 C2          5.9042   54.8936   21.4770 C.ar      1 UNK         0.0000 
      3 C3          4.7401   54.2853   21.9466 C.ar      1 UNK         0.0000 
      4 C4          4.5581   54.0967   23.3150 C.ar      1 UNK         0.0000 
      5 C5          5.5419   54.4969   24.2311 C.ar      1 UNK         0.0000 
      6 C6          6.7043   55.1011   23.7437 C.ar      1 UNK         0.0000 
      7 C7          6.8891   55.2958   22.3771 C.ar      1 UNK         0.0000 
      8 C8          5.3361   54.2974   25.7064 C.2       1 UNK         0.0000 
      9 N9          4.2028   53.9013   26.2289 N.2       1 UNK         0.0000 
     10 C10         4.2406   53.7426   27.5475 C.2       1 UNK         0.0000 
     11 C11         5.4623   54.0950   28.1268 C.2       1 UNK         0.0000 
     12 S12         6.5981   54.5242   26.8827 S.3       1 UNK         0.0000 
     13 C13         3.0591   53.2836   28.2648 C.2       1 UNK         0.0000 
     14 O14         2.9683   53.4205   29.4870 O.2       1 UNK         0.0000 
     15 N15         2.1306   52.7032   27.4682 N.am      1 UNK         0.0000 
     16 C16         0.8455   52.2173   27.7383 C.ar      1 UNK         0.0000 
     17 C17         0.2835   52.1024   29.0152 C.ar      1 UNK         0.0000 
     18 C18        -1.0420   51.6967   29.1483 C.ar      1 UNK         0.0000 
     19 C19        -1.8198   51.4309   28.0101 C.ar      1 UNK         0.0000 
     20 C20        -1.2217   51.4526   26.7472 C.ar      1 UNK         0.0000 
     21 C21         0.1035   51.8493   26.6147 C.ar      1 UNK         0.0000 
     22 N22        -3.2174   51.2009   28.1315 N.pl3     1 UNK         0.0000 
     23 C23        -4.2516   51.6964   27.3518 C.ar      1 UNK         0.0000 
     24 C24        -5.4114   51.2249   27.9513 C.ar      1 UNK         0.0000 
     25 C25        -5.0037   50.4933   29.0680 C.ar      1 UNK         0.0000 
     26 N26        -3.6955   50.4966   29.1740 N.2       1 UNK         0.0000 
     27 C27        -5.8395   49.7680   30.0940 C.3       1 UNK         0.0000 
     28 N28        -4.0610   52.5332   26.2604 N.am      1 UNK         0.0000 
     29 C29        -4.9041   53.5188   25.8941 C.2       1 UNK         0.0000 
     30 O30        -5.9441   53.8180   26.4802 O.2       1 UNK         0.0000 
     31 C31        -4.4952   54.3317   24.6737 C.3       1 UNK         0.0000 
     32 H32         5.7727   54.2045   19.4398 H         1 UNK         0.0000 
     33 H33         5.5264   55.9413   19.6300 H         1 UNK         0.0000 
     34 H34         7.1567   55.2371   19.7352 H         1 UNK         0.0000 
     35 H35         3.9724   53.9683   21.2546 H         1 UNK         0.0000 
     36 H36         3.6453   53.6303   23.6553 H         1 UNK         0.0000 
     37 H37         7.4854   55.4275   24.4133 H         1 UNK         0.0000 
     38 H38         7.8031   55.7541   22.0268 H         1 UNK         0.0000 
     39 H39         5.7492   54.0933   29.1683 H         1 UNK         0.0000 
     40 H40         2.3862   52.6584   26.4944 H         1 UNK         0.0000 
     41 H41         0.8404   52.3420   29.9071 H         1 UNK         0.0000 
     42 H42        -1.4680   51.6318   30.1402 H         1 UNK         0.0000 
     43 H43        -1.7789   51.1832   25.8625 H         1 UNK         0.0000 
     44 H44         0.5361   51.8964   25.6254 H         1 UNK         0.0000 
     45 H45        -6.4265   51.4072   27.6307 H         1 UNK         0.0000 
     46 H46        -6.9067   49.8609   29.8921 H         1 UNK         0.0000 
     47 H47        -5.6077   48.7026   30.1166 H         1 UNK         0.0000 
     48 H48        -5.6670   50.1532   31.0995 H         1 UNK         0.0000 
     49 H49        -3.1611   52.4919   25.8093 H         1 UNK         0.0000 
     50 H50        -3.7421   53.8192   24.0753 H         1 UNK         0.0000 
     51 H51        -4.0961   55.2956   24.9858 H         1 UNK         0.0000 
     52 H52        -5.3699   54.5098   24.0496 H         1 UNK         0.0000 
@<TRIPOS>BOND
     1    1    2 1    
     2    1   32 1    
     3    1   33 1    
     4    1   34 1    
     5    2    7 ar   
     6    2    3 ar   
     7    3    4 ar   
     8    3   35 1    
     9    4    5 ar   
    10    4   36 1    
    11    5    6 ar   
    12    5    8 1    
    13    6    7 ar   
    14    6   37 1    
    15    7   38 1    
    16    8   12 1    
    17    8    9 2    
    18    9   10 1    
    19   10   11 2    
    20   10   13 1    
    21   11   12 1    
    22   11   39 1    
    23   13   14 2    
    24   13   15 am   BACKBONE|DICT|INTERRES
    25   15   16 1    
    26   15   40 1    
    27   16   21 ar   
    28   16   17 ar   
    29   17   18 ar   
    30   17   41 1    
    31   18   19 ar   
    32   18   42 1    
    33   19   20 ar   
    34   19   22 1    
    35   20   21 ar   
    36   20   43 1    
    37   21   44 1    
    38   22   26 ar   
    39   22   23 ar   
    40   23   24 ar   
    41   23   28 1    
    42   24   25 ar   
    43   24   45 1    
    44   25   26 ar   
    45   25   27 1    
    46   27   46 1    
    47   27   47 1    
    48   27   48 1    
    49   28   29 am   BACKBONE|DICT|INTERRES
    50   28   49 1    
    51   29   30 2    
    52   29   31 1    
    53   31   50 1    
    54   31   51 1    
    55   31   52 1    
@<TRIPOS>SUBSTRUCTURE
     1 UNK         1 GROUP             0       ****    0 ROOT    
