ZINC09237835_665
                    3D
 Schrodinger Suite 2024-2.
 52 55  0  0  1  0            999 V2000
    3.3882   53.7759   28.7409 C   0  0  0  0  0  0
    4.3724   54.0428   27.6095 C   0  0  0  0  0  0
    5.7131   54.2525   27.9383 C   0  0  0  0  0  0
    6.6598   54.4736   26.9463 C   0  0  0  0  0  0
    6.2753   54.4920   25.6091 C   0  0  0  0  0  0
    4.9363   54.2683   25.2494 C   0  0  0  0  0  0
    3.9718   54.0517   26.2571 C   0  0  0  0  0  0
    2.5050   53.8069   25.8913 C   0  0  0  0  0  0
    4.5271   54.2904   23.8985 N   0  0  0  0  0  0
    5.2268   53.8913   22.8139 C   0  0  0  0  0  0
    6.3020   53.2967   22.8829 O   0  0  0  0  0  0
    4.5957   54.1831   21.4324 C   0  0  2  0  0  0
    3.7950   54.8992   21.5877 H   0  0  0  0  0  0
    4.0308   52.8862   20.7559 C   0  0  2  0  0  0
    4.8608   52.1811   20.6534 H   0  0  0  0  0  0
    3.5414   53.1718   19.4085 N   0  0  0  0  0  0
    4.5105   53.7182   18.5744 N   0  0  0  0  0  0
    4.6043   53.5669   17.2107 C   0  0  0  0  0  0
    5.6266   54.2349   16.7379 N   0  0  0  0  0  0
    6.2358   54.8638   17.8178 N   0  0  0  0  0  0
    5.5572   54.5510   18.8955 C   0  0  0  0  0  0
    5.9034   55.1074   20.5291 S   0  0  0  0  0  0
    3.6476   52.7503   16.3714 C   0  0  0  0  0  0
    2.9440   52.1778   21.5754 C   0  0  0  0  0  0
    2.9705   50.7890   21.7135 C   0  0  0  0  0  0
    2.0420   50.1381   22.5294 C   0  0  0  0  0  0
    1.0388   50.8642   23.1946 C   0  0  0  0  0  0
    0.9745   52.2482   22.9990 C   0  0  0  0  0  0
    1.9142   52.8958   22.1962 C   0  0  0  0  0  0
   -0.3710   53.2874   23.8637 Br  0  0  0  0  0  0
    0.1112   50.3006   24.0507 O   0  0  0  0  0  0
    0.3058   48.9708   24.5225 C   0  0  0  0  0  0
    2.6962   54.6110   28.8497 H   0  0  0  0  0  0
    2.8062   52.8787   28.5288 H   0  0  0  0  0  0
    3.8911   53.6104   29.6947 H   0  0  0  0  0  0
    6.0316   54.2482   28.9701 H   0  0  0  0  0  0
    7.6889   54.6259   27.2294 H   0  0  0  0  0  0
    7.0295   54.6735   24.8567 H   0  0  0  0  0  0
    1.8168   54.0976   26.6848 H   0  0  0  0  0  0
    2.2052   54.4000   25.0259 H   0  0  0  0  0  0
    2.3433   52.7523   25.6587 H   0  0  0  0  0  0
    3.5728   54.5756   23.7480 H   0  0  0  0  0  0
    3.2679   52.2924   18.9898 H   0  0  0  0  0  0
    3.8833   52.8037   15.3075 H   0  0  0  0  0  0
    3.6753   51.6961   16.6492 H   0  0  0  0  0  0
    2.6177   53.0905   16.4867 H   0  0  0  0  0  0
    3.7344   50.2110   21.2157 H   0  0  0  0  0  0
    2.1297   49.0678   22.6468 H   0  0  0  0  0  0
    1.8434   53.9672   22.0813 H   0  0  0  0  0  0
   -0.5027   48.7033   25.2043 H   0  0  0  0  0  0
    1.2368   48.8970   25.0848 H   0  0  0  0  0  0
    0.3098   48.2423   23.7127 H   0  0  0  0  0  0
  1  2  1  0  0  0
  1 33  1  0  0  0
  1 34  1  0  0  0
  1 35  1  0  0  0
  2  7  2  0  0  0
  2  3  1  0  0  0
  3  4  2  0  0  0
  3 36  1  0  0  0
  4  5  1  0  0  0
  4 37  1  0  0  0
  5  6  2  0  0  0
  5 38  1  0  0  0
  6  7  1  0  0  0
  6  9  1  0  0  0
  7  8  1  0  0  0
  8 39  1  0  0  0
  8 40  1  0  0  0
  8 41  1  0  0  0
  9 10  1  0  0  0
  9 42  1  0  0  0
 10 11  2  0  0  0
 10 12  1  0  0  0
 12 13  1  0  0  0
 12 22  1  0  0  0
 12 14  1  0  0  0
 14 15  1  0  0  0
 14 16  1  0  0  0
 14 24  1  0  0  0
 16 17  1  0  0  0
 16 43  1  0  0  0
 17 21  1  0  0  0
 17 18  1  0  0  0
 18 19  2  0  0  0
 18 23  1  0  0  0
 19 20  1  0  0  0
 20 21  2  0  0  0
 21 22  1  0  0  0
 23 44  1  0  0  0
 23 45  1  0  0  0
 23 46  1  0  0  0
 24 29  2  0  0  0
 24 25  1  0  0  0
 25 26  2  0  0  0
 25 47  1  0  0  0
 26 27  1  0  0  0
 26 48  1  0  0  0
 27 28  2  0  0  0
 27 31  1  0  0  0
 28 29  1  0  0  0
 28 30  1  0  0  0
 29 49  1  0  0  0
 31 32  1  0  0  0
 32 50  1  0  0  0
 32 51  1  0  0  0
 32 52  1  0  0  0
M  END
> <i_i_glide_confnum>
2

> <i_i_glide_lignum>
666

> <i_i_glide_posenum>
332

> <i_i_glide_rotatable_bonds>
5

> <i_m_Source_File_Index>
2169

> <b_m_subgroup_collapsed>
0

> <r_i_docking_score>
-5.81056

> <r_i_glide_ecoul>
-2.49893

> <r_i_glide_eff_state_penalty>
0

> <r_i_glide_einternal>
3.25464

> <r_i_glide_emodel>
-61.0733

> <r_i_glide_energy>
-45.9035

> <r_i_glide_erotb>
0.341016

> <r_i_glide_esite>
-0.104338

> <r_i_glide_evdw>
-43.4045

> <r_i_glide_gscore>
-5.81056

> <r_i_glide_hbond>
0

> <r_i_glide_ligand_efficiency>
-0.193685

> <r_i_glide_ligand_efficiency_ln>
-1.32022

> <r_i_glide_ligand_efficiency_sa>
-0.601826

> <r_i_glide_lipo>
-2.97631

> <r_i_glide_metal>
0

> <r_i_glide_rewards>
-0.525862

> <s_i_glide_gridfile>
wee1_glide-grid

> <s_m_Source_File>
wee1_decoys_glide_SP.sdf

> <s_m_Source_Path>
/Users/zhangxujun/Desktop

> <s_m_entry_id>
2444

> <s_m_entry_name>
wee1_decoys_glide_SP.2169

> <s_m_subgroup_title>
wee1_decoys_glide_SP

> <s_m_subgroupid>
wee1_decoys_glide_SP


$$$$
