@<TRIPOS>MOLECULE
ZINC00695909_4112
63   67    1
SMALL
USER_CHARGES


@<TRIPOS>ATOM
      1 C1          2.5170   51.3196   28.8816 C.3       1 UNK         0.0000 
      2 C2          3.3867   52.4966   28.4539 C.ar      1 UNK         0.0000 
      3 C3          4.7046   52.5129   28.9222 C.ar      1 UNK         0.0000 
      4 C4          5.6066   53.4833   28.4950 C.ar      1 UNK         0.0000 
      5 C5          5.1780   54.4967   27.6578 C.ar      1 UNK         0.0000 
      6 C6          3.8610   54.5065   27.2170 C.ar      1 UNK         0.0000 
      7 C7          2.9543   53.4892   27.5469 C.ar      1 UNK         0.0000 
      8 C8          1.5404   53.5292   26.9123 C.3       1 UNK         0.0000 
      9 H9          1.3832   54.6005   26.8814 H         1 UNK         0.0000 
     10 C10         0.3918   53.0468   27.8035 C.2       1 UNK         0.0000 
     11 C11        -0.4803   52.0976   27.4026 C.2       1 UNK         0.0000 
     12 N12        -0.4732   51.5929   26.0915 N.pl3     1 UNK         0.0000 
     13 C13         0.4111   52.0916   25.1166 C.2       1 UNK         0.0000 
     14 C14         1.4026   52.9730   25.4540 C.2       1 UNK         0.0000 
     15 C15         2.3081   53.5049   24.3923 C.2       1 UNK         0.0000 
     16 O16         2.8817   54.5825   24.4822 O.2       1 UNK         0.0000 
     17 C17         2.3323   52.8136   23.0251 C.3       1 UNK         0.0000 
     18 C18         1.6881   51.4187   23.0364 C.3       1 UNK         0.0000 
     19 H19         2.3019   50.7398   23.6345 H         1 UNK         0.0000 
     20 C20         0.2877   51.5574   23.6655 C.3       1 UNK         0.0000 
     21 C21         1.6231   50.8328   21.6229 C.ar      1 UNK         0.0000 
     22 C22         1.0343   51.5497   20.5722 C.ar      1 UNK         0.0000 
     23 C23         1.0313   51.0261   19.2823 C.ar      1 UNK         0.0000 
     24 C24         1.6099   49.7827   19.0412 C.ar      1 UNK         0.0000 
     25 C25         2.1800   49.0541   20.0811 C.ar      1 UNK         0.0000 
     26 C26         2.1892   49.5787   21.3706 C.ar      1 UNK         0.0000 
     27 C27        -1.4813   50.6815   25.6877 C.ar      1 UNK         0.0000 
     28 C28        -2.7573   51.1772   25.3962 C.ar      1 UNK         0.0000 
     29 C29        -3.7930   50.3279   24.9830 C.ar      1 UNK         0.0000 
     30 C30        -3.5260   48.9556   24.8760 C.ar      1 UNK         0.0000 
     31 C31        -2.2574   48.4517   25.1597 C.ar      1 UNK         0.0000 
     32 C32        -1.2267   49.3045   25.5607 C.ar      1 UNK         0.0000 
     33 C33         0.1569   48.7199   25.8174 C.3       1 UNK         0.0000 
     34 N34        -5.1362   50.8718   24.6673 N.pl3     1 UNK         0.0000 
     35 O35        -5.3175   52.0819   24.7762 O.co2     1 UNK         0.0000 
     36 O36        -6.0127   50.0934   24.3021 O.co2     1 UNK         0.0000 
     37 N37        -1.3926   51.5390   28.2747 N.pl3     1 UNK         0.0000 
     38 C38         0.3203   53.6063   29.1197 C.1       1 UNK         0.0000 
     39 N39         0.3033   54.0688   30.1802 N.1       1 UNK         0.0000 
     40 H40         1.8071   51.6046   29.6558 H         1 UNK         0.0000 
     41 H41         1.9744   50.9001   28.0348 H         1 UNK         0.0000 
     42 H42         3.1089   50.5065   29.2817 H         1 UNK         0.0000 
     43 H43         5.0530   51.7419   29.5926 H         1 UNK         0.0000 
     44 H44         6.6276   53.4715   28.8480 H         1 UNK         0.0000 
     45 H45         5.8592   55.2809   27.3616 H         1 UNK         0.0000 
     46 H46         3.5552   55.3251   26.5901 H         1 UNK         0.0000 
     47 H47         3.3679   52.7714   22.6878 H         1 UNK         0.0000 
     48 H48         1.7877   53.4640   22.3411 H         1 UNK         0.0000 
     49 H49        -0.0891   50.5396   23.6012 H         1 UNK         0.0000 
     50 H50        -0.3783   52.2093   23.0987 H         1 UNK         0.0000 
     51 H51         0.5963   52.5220   20.7431 H         1 UNK         0.0000 
     52 H52         0.5978   51.5878   18.4682 H         1 UNK         0.0000 
     53 H53         1.6340   49.3851   18.0365 H         1 UNK         0.0000 
     54 H54         2.6401   48.0977   19.8814 H         1 UNK         0.0000 
     55 H55         2.6535   49.0125   22.1660 H         1 UNK         0.0000 
     56 H56        -2.9346   52.2390   25.4952 H         1 UNK         0.0000 
     57 H57        -4.3023   48.2688   24.5696 H         1 UNK         0.0000 
     58 H58        -2.0754   47.3906   25.0734 H         1 UNK         0.0000 
     59 H59         0.2944   47.7857   25.2726 H         1 UNK         0.0000 
     60 H60         0.9546   49.3795   25.4799 H         1 UNK         0.0000 
     61 H61         0.3045   48.5334   26.8815 H         1 UNK         0.0000 
     62 H62        -1.4222   51.8515   29.2343 H         1 UNK         0.0000 
     63 H63        -1.6954   50.5825   28.1248 H         1 UNK         0.0000 
@<TRIPOS>BOND
     1    1    2 1    
     2    1   40 1    
     3    1   41 1    
     4    1   42 1    
     5    2    7 ar   
     6    2    3 ar   
     7    3    4 ar   
     8    3   43 1    
     9    4    5 ar   
    10    4   44 1    
    11    5    6 ar   
    12    5   45 1    
    13    6    7 ar   
    14    6   46 1    
    15    7    8 1    
    16    8    9 1    
    17    8   14 1    
    18    8   10 1    
    19   10   11 2    
    20   10   38 1    
    21   11   12 1    
    22   11   37 1    
    23   12   13 1    
    24   12   27 1    
    25   13   20 1    
    26   13   14 2    
    27   14   15 1    
    28   15   16 2    
    29   15   17 1    
    30   17   18 1    
    31   17   47 1    
    32   17   48 1    
    33   18   19 1    
    34   18   20 1    
    35   18   21 1    
    36   20   49 1    
    37   20   50 1    
    38   21   26 ar   
    39   21   22 ar   
    40   22   23 ar   
    41   22   51 1    
    42   23   24 ar   
    43   23   52 1    
    44   24   25 ar   
    45   24   53 1    
    46   25   26 ar   
    47   25   54 1    
    48   26   55 1    
    49   27   32 ar   
    50   27   28 ar   
    51   28   29 ar   
    52   28   56 1    
    53   29   30 ar   
    54   29   34 1    
    55   30   31 ar   
    56   30   57 1    
    57   31   32 ar   
    58   31   58 1    
    59   32   33 1    
    60   33   59 1    
    61   33   60 1    
    62   33   61 1    
    63   34   35 2    
    64   34   36 1    
    65   37   62 1    
    66   37   63 1    
    67   38   39 3    
@<TRIPOS>SUBSTRUCTURE
     1 UNK         1 GROUP             0       ****    0 ROOT    
