@<TRIPOS>MOLECULE
ZINC40291963_1680
42   43    1
SMALL
USER_CHARGES


@<TRIPOS>ATOM
      1 C1         -1.5135   51.3254   28.4992 C.3       1 UNK         0.0000 
      2 C2         -0.3646   51.9653   27.7143 C.ar      1 UNK         0.0000 
      3 C3         -0.4463   52.0018   26.3112 C.ar      1 UNK         0.0000 
      4 N4          0.5583   52.4726   25.5357 N.ar      1 UNK         0.0000 
      5 N5          1.6804   52.9156   26.1035 N.ar      1 UNK         0.0000 
      6 C6          1.8251   52.9276   27.4590 C.ar      1 UNK         0.0000 
      7 C7          0.8096   52.4754   28.3341 C.ar      1 UNK         0.0000 
      8 C8          1.0173   52.5108   29.8123 C.2       1 UNK         0.0000 
      9 N9          2.1305   52.0967   30.2781 N.2       1 UNK         0.0000 
     10 O10         2.2234   52.0968   31.6817 O.3       1 UNK         0.0000 
     11 N11        -0.0890   53.0122   30.4792 N.pl3     1 UNK         0.0000 
     12 O12         3.0266   53.4025   27.9660 O.3       1 UNK         0.0000 
     13 C13         4.1711   53.5810   27.1272 C.3       1 UNK         0.0000 
     14 H14         4.2244   52.7837   26.3929 H         1 UNK         0.0000 
     15 C15         5.4303   53.4916   28.0090 C.3       1 UNK         0.0000 
     16 C16         6.7063   53.7244   27.1777 C.3       1 UNK         0.0000 
     17 C17         6.6448   55.0469   26.3899 C.3       1 UNK         0.0000 
     18 C18         5.3724   55.2088   25.5328 C.3       1 UNK         0.0000 
     19 H19         5.3346   56.2604   25.2518 H         1 UNK         0.0000 
     20 C20         4.1217   54.9315   26.3946 C.3       1 UNK         0.0000 
     21 C21         5.4078   54.3580   24.2496 C.3       1 UNK         0.0000 
     22 C22        -1.6592   51.5015   25.5368 C.3       1 UNK         0.0000 
     23 H23        -1.9516   50.4967   27.9479 H         1 UNK         0.0000 
     24 H24        -1.1922   50.8959   29.4470 H         1 UNK         0.0000 
     25 H25        -2.3077   52.0428   28.6796 H         1 UNK         0.0000 
     26 H26         1.3607   52.4161   31.9573 H         1 UNK         0.0000 
     27 H27        -0.2437   52.8644   31.4683 H         1 UNK         0.0000 
     28 H28        -0.8928   53.2545   29.9224 H         1 UNK         0.0000 
     29 H29         5.3920   54.2505   28.7927 H         1 UNK         0.0000 
     30 H30         5.4895   52.5109   28.4816 H         1 UNK         0.0000 
     31 H31         7.5705   53.7272   27.8408 H         1 UNK         0.0000 
     32 H32         6.8572   52.9025   26.4819 H         1 UNK         0.0000 
     33 H33         7.5045   55.1374   25.7349 H         1 UNK         0.0000 
     34 H34         6.7044   55.8692   27.1022 H         1 UNK         0.0000 
     35 H35         3.2299   55.0062   25.7746 H         1 UNK         0.0000 
     36 H36         4.0814   55.6964   27.1559 H         1 UNK         0.0000 
     37 H37         5.5018   53.2974   24.4672 H         1 UNK         0.0000 
     38 H38         4.5019   54.4956   23.6584 H         1 UNK         0.0000 
     39 H39         6.2525   54.6365   23.6185 H         1 UNK         0.0000 
     40 H40        -1.6956   50.4115   25.5615 H         1 UNK         0.0000 
     41 H41        -2.5828   51.8872   25.9714 H         1 UNK         0.0000 
     42 H42        -1.6389   51.8117   24.4906 H         1 UNK         0.0000 
@<TRIPOS>BOND
     1    1    2 1    
     2    1   23 1    
     3    1   24 1    
     4    1   25 1    
     5    2    7 ar   
     6    2    3 ar   
     7    3    4 ar   
     8    3   22 1    
     9    4    5 ar   
    10    5    6 ar   
    11    6    7 ar   
    12    6   12 1    
    13    7    8 1    
    14    8    9 2    
    15    8   11 1    
    16    9   10 1    
    17   10   26 1    
    18   11   27 1    
    19   11   28 1    
    20   12   13 1    
    21   13   14 1    
    22   13   20 1    
    23   13   15 1    
    24   15   16 1    
    25   15   29 1    
    26   15   30 1    
    27   16   17 1    
    28   16   31 1    
    29   16   32 1    
    30   17   18 1    
    31   17   33 1    
    32   17   34 1    
    33   18   19 1    
    34   18   20 1    
    35   18   21 1    
    36   20   35 1    
    37   20   36 1    
    38   21   37 1    
    39   21   38 1    
    40   21   39 1    
    41   22   40 1    
    42   22   41 1    
    43   22   42 1    
@<TRIPOS>SUBSTRUCTURE
     1 UNK         1 GROUP             0       ****    0 ROOT    
