ZINC25369725_5895
                    3D
 Schrodinger Suite 2024-2.
 42 44  0  0  1  0            999 V2000
    0.5931   52.8966   31.8501 C   0  0  0  0  0  0
    1.4375   52.9066   30.7167 O   0  0  0  0  0  0
    0.9333   52.4942   29.4924 C   0  0  0  0  0  0
   -0.4019   52.0960   29.2935 C   0  0  0  0  0  0
   -0.8481   51.6974   28.0347 C   0  0  0  0  0  0
    0.0272   51.7080   26.9493 C   0  0  0  0  0  0
    1.3514   52.0966   27.1466 C   0  0  0  0  0  0
    1.8276   52.4672   28.4060 C   0  0  0  0  0  0
    3.1563   52.7546   28.5554 N   0  5  0  0  0  0
    3.5847   54.2494   28.6478 S   0  0  0  0  0  0
    2.4920   55.2188   28.4880 O   0  0  0  0  0  0
    4.5384   54.5237   29.7203 O   0  0  0  0  0  0
    4.4987   54.3338   27.1023 C   0  0  0  0  0  0
    3.7563   54.6087   25.9522 C   0  0  0  0  0  0
    4.3519   54.6586   24.6989 C   0  0  0  0  0  0
    5.7148   54.4409   24.5817 C   0  0  0  0  0  0
    6.4637   54.1576   25.7145 C   0  0  0  0  0  0
    5.8790   54.0953   26.9776 C   0  0  0  0  0  0
    6.9144   53.6958   28.3030 Cl  0  0  0  0  0  0
    6.5525   54.5053   22.8810 Br  0  0  0  0  0  0
   -0.5012   51.1537   25.3265 S   0  0  0  0  0  0
   -1.9389   50.8737   25.3977 O   0  0  0  0  0  0
    0.4491   50.1197   24.9049 O   0  0  0  0  0  0
   -0.3201   52.5345   24.2453 N   0  0  0  0  0  0
    0.9863   53.1531   23.9487 C   0  0  0  0  0  0
    2.0638   52.2910   23.3198 C   0  0  0  0  0  0
    1.3425   53.2954   22.4829 C   0  0  0  0  0  0
    1.1042   53.2966   32.7218 H   0  0  0  0  0  0
   -0.3022   53.5014   31.6995 H   0  0  0  0  0  0
    0.3052   51.8723   32.0859 H   0  0  0  0  0  0
   -1.1046   52.0657   30.1121 H   0  0  0  0  0  0
   -1.8698   51.3649   27.9139 H   0  0  0  0  0  0
    2.0337   52.0968   26.3107 H   0  0  0  0  0  0
    2.7012   54.7756   26.0378 H   0  0  0  0  0  0
    3.7608   54.8827   23.8228 H   0  0  0  0  0  0
    7.5043   53.9603   25.5950 H   0  0  0  0  0  0
   -1.1507   53.1117   24.0972 H   0  0  0  0  0  0
    1.2724   53.9587   24.6221 H   0  0  0  0  0  0
    1.8800   51.2318   23.1387 H   0  0  0  0  0  0
    3.1037   52.4966   23.5732 H   0  0  0  0  0  0
    1.8783   54.1871   22.1577 H   0  0  0  0  0  0
    0.6471   52.9348   21.7241 H   0  0  0  0  0  0
  1  2  1  0  0  0
  1 28  1  0  0  0
  1 29  1  0  0  0
  1 30  1  0  0  0
  2  3  1  0  0  0
  3  8  2  0  0  0
  3  4  1  0  0  0
  4  5  2  0  0  0
  4 31  1  0  0  0
  5  6  1  0  0  0
  5 32  1  0  0  0
  6  7  2  0  0  0
  6 21  1  0  0  0
  7  8  1  0  0  0
  7 33  1  0  0  0
  8  9  1  0  0  0
  9 10  1  0  0  0
 10 11  2  0  0  0
 10 12  2  0  0  0
 10 13  1  0  0  0
 13 18  2  0  0  0
 13 14  1  0  0  0
 14 15  2  0  0  0
 14 34  1  0  0  0
 15 16  1  0  0  0
 15 35  1  0  0  0
 16 17  2  0  0  0
 16 20  1  0  0  0
 17 18  1  0  0  0
 17 36  1  0  0  0
 18 19  1  0  0  0
 21 22  2  0  0  0
 21 23  2  0  0  0
 21 24  1  0  0  0
 24 25  1  0  0  0
 24 37  1  0  0  0
 25 27  1  0  0  0
 25 26  1  0  0  0
 25 38  1  0  0  0
 26 27  1  0  0  0
 26 39  1  0  0  0
 26 40  1  0  0  0
 27 41  1  0  0  0
 27 42  1  0  0  0
M  CHG  1   9  -1
M  END
> <i_i_glide_confnum>
68

> <i_i_glide_lignum>
5896

> <i_i_glide_posenum>
163

> <i_i_glide_rotatable_bonds>
7

> <i_m_Source_File_Index>
3816

> <b_m_subgroup_collapsed>
0

> <r_i_docking_score>
-4.38657

> <r_i_glide_ecoul>
-1.03413

> <r_i_glide_eff_state_penalty>
0

> <r_i_glide_einternal>
14.0243

> <r_i_glide_emodel>
-49.8594

> <r_i_glide_energy>
-44.7394

> <r_i_glide_erotb>
0.499498

> <r_i_glide_esite>
-0.0506203

> <r_i_glide_evdw>
-43.7053

> <r_i_glide_gscore>
-4.38657

> <r_i_glide_hbond>
0

> <r_i_glide_ligand_efficiency>
-0.162466

> <r_i_glide_ligand_efficiency_ln>
-1.02112

> <r_i_glide_ligand_efficiency_sa>
-0.487397

> <r_i_glide_lipo>
-2.89982

> <r_i_glide_metal>
0

> <r_i_glide_rewards>
0.404755

> <s_i_glide_gridfile>
wee1_glide-grid

> <s_m_Source_File>
wee1_decoys_glide_SP.sdf

> <s_m_Source_Path>
/Users/zhangxujun/Desktop

> <s_m_entry_id>
4091

> <s_m_entry_name>
wee1_decoys_glide_SP.3816

> <s_m_subgroup_title>
wee1_decoys_glide_SP

> <s_m_subgroupid>
wee1_decoys_glide_SP


$$$$
