@<TRIPOS>MOLECULE
ZINC08591648_3053
58   62    1
SMALL
USER_CHARGES


@<TRIPOS>ATOM
      1 C1         -1.0609   53.8557   16.7866 C.3       1 UNK         0.0000 
      2 C2         -2.1526   52.9318   17.3198 C.ar      1 UNK         0.0000 
      3 C3         -3.3965   52.9184   16.6817 C.ar      1 UNK         0.0000 
      4 C4         -4.4225   52.0966   17.1458 C.ar      1 UNK         0.0000 
      5 C5         -4.2146   51.2838   18.2581 C.ar      1 UNK         0.0000 
      6 C6         -2.9772   51.2798   18.8973 C.ar      1 UNK         0.0000 
      7 C7         -1.9346   52.1026   18.4387 C.ar      1 UNK         0.0000 
      8 N8         -0.6527   52.0970   19.0211 N.am      1 UNK         0.0000 
      9 C9         -0.2872   51.8075   20.2866 C.2       1 UNK         0.0000 
     10 O10        -1.1093   51.5852   21.1767 O.2       1 UNK         0.0000 
     11 C11         1.1483   51.8921   20.5467 C.2       1 UNK         0.0000 
     12 C12         2.1137   51.4508   19.6779 C.2       1 UNK         0.0000 
     13 N13         3.4706   51.5559   19.9475 N.pl3     1 UNK         0.0000 
     14 C14         3.8991   52.2185   21.0735 C.ar      1 UNK         0.0000 
     15 N15         5.1044   52.5731   21.4226 N.2       1 UNK         0.0000 
     16 C16         4.8904   53.3430   22.4820 C.ar      1 UNK         0.0000 
     17 N17         3.6253   53.4967   22.8246 N.2       1 UNK         0.0000 
     18 N18         2.9759   52.7533   21.9301 N.pl3     1 UNK         0.0000 
     19 C19         1.5231   52.5678   21.8992 C.3       1 UNK         0.0000 
     20 H20         1.1054   53.5748   21.9296 H         1 UNK         0.0000 
     21 C21         1.0170   51.8879   23.1804 C.ar      1 UNK         0.0000 
     22 C22         0.3680   52.6265   24.1816 C.ar      1 UNK         0.0000 
     23 C23        -0.1035   51.9553   25.3091 C.ar      1 UNK         0.0000 
     24 C24         0.0676   50.5734   25.4109 C.ar      1 UNK         0.0000 
     25 C25         0.7286   49.9078   24.3758 C.ar      1 UNK         0.0000 
     26 N26         1.2144   50.5421   23.2788 N.ar      1 UNK         0.0000 
     27 S27         6.2397   54.0937   23.3558 S.3       1 UNK         0.0000 
     28 C28         5.3704   55.0719   24.6238 C.3       1 UNK         0.0000 
     29 C29         5.2712   54.3912   25.9786 C.ar      1 UNK         0.0000 
     30 C30         6.4127   54.2583   26.7746 C.ar      1 UNK         0.0000 
     31 C31         6.3167   53.6969   28.0470 C.ar      1 UNK         0.0000 
     32 C32         5.0813   53.2663   28.5290 C.ar      1 UNK         0.0000 
     33 C33         3.9399   53.3933   27.7408 C.ar      1 UNK         0.0000 
     34 C34         4.0299   53.9553   26.4694 C.ar      1 UNK         0.0000 
     35 F35         2.9041   54.0959   25.7316 F         1 UNK         0.0000 
     36 C36         1.8757   50.7577   18.3370 C.3       1 UNK         0.0000 
     37 H37        -0.1925   53.2779   16.4660 H         1 UNK         0.0000 
     38 H38        -1.3990   54.4569   15.9421 H         1 UNK         0.0000 
     39 H39        -0.7292   54.5361   17.5727 H         1 UNK         0.0000 
     40 H40        -3.5761   53.5436   15.8185 H         1 UNK         0.0000 
     41 H41        -5.3824   52.0961   16.6504 H         1 UNK         0.0000 
     42 H42        -5.0088   50.6450   18.6161 H         1 UNK         0.0000 
     43 H43        -2.8368   50.6068   19.7300 H         1 UNK         0.0000 
     44 H44         0.0888   52.4226   18.4209 H         1 UNK         0.0000 
     45 H45         4.1385   51.2745   19.2268 H         1 UNK         0.0000 
     46 H46         0.2337   53.6957   24.0911 H         1 UNK         0.0000 
     47 H47        -0.6058   52.4982   26.0949 H         1 UNK         0.0000 
     48 H48        -0.2924   50.0308   26.2742 H         1 UNK         0.0000 
     49 H49         0.8974   48.8436   24.4231 H         1 UNK         0.0000 
     50 H50         5.8836   56.0270   24.7313 H         1 UNK         0.0000 
     51 H51         4.3711   55.2969   24.2793 H         1 UNK         0.0000 
     52 H52         7.3731   54.5848   26.4056 H         1 UNK         0.0000 
     53 H53         7.2022   53.5988   28.6604 H         1 UNK         0.0000 
     54 H54         5.0085   52.8195   29.5080 H         1 UNK         0.0000 
     55 H55         2.9832   53.0542   28.1093 H         1 UNK         0.0000 
     56 H56         1.2905   49.8460   18.4706 H         1 UNK         0.0000 
     57 H57         1.3619   51.4125   17.6387 H         1 UNK         0.0000 
     58 H58         2.8017   50.4928   17.8304 H         1 UNK         0.0000 
@<TRIPOS>BOND
     1    1    2 1    
     2    1   37 1    
     3    1   38 1    
     4    1   39 1    
     5    2    7 ar   
     6    2    3 ar   
     7    3    4 ar   
     8    3   40 1    
     9    4    5 ar   
    10    4   41 1    
    11    5    6 ar   
    12    5   42 1    
    13    6    7 ar   
    14    6   43 1    
    15    7    8 1    
    16    8    9 am   BACKBONE|DICT|INTERRES
    17    8   44 1    
    18    9   10 2    
    19    9   11 1    
    20   11   19 1    
    21   11   12 2    
    22   12   13 1    
    23   12   36 1    
    24   13   14 1    
    25   13   45 1    
    26   14   18 ar   
    27   14   15 ar   
    28   15   16 ar   
    29   16   17 ar   
    30   16   27 1    
    31   17   18 ar   
    32   18   19 1    
    33   19   20 1    
    34   19   21 1    
    35   21   26 ar   
    36   21   22 ar   
    37   22   23 ar   
    38   22   46 1    
    39   23   24 ar   
    40   23   47 1    
    41   24   25 ar   
    42   24   48 1    
    43   25   26 ar   
    44   25   49 1    
    45   27   28 1    
    46   28   29 1    
    47   28   50 1    
    48   28   51 1    
    49   29   34 ar   
    50   29   30 ar   
    51   30   31 ar   
    52   30   52 1    
    53   31   32 ar   
    54   31   53 1    
    55   32   33 ar   
    56   32   54 1    
    57   33   34 ar   
    58   33   55 1    
    59   34   35 1    
    60   36   56 1    
    61   36   57 1    
    62   36   58 1    
@<TRIPOS>SUBSTRUCTURE
     1 UNK         1 GROUP             0       ****    0 ROOT    
