@<TRIPOS>MOLECULE
ZINC30822659_3125
61   65    1
SMALL
USER_CHARGES


@<TRIPOS>ATOM
      1 C1          0.8595   48.9659   26.3022 C.3       1 UNK         0.0000 
      2 C2          0.5231   49.2878   24.8349 C.3       1 UNK         0.0000 
      3 C3         -0.2529   48.1061   24.2279 C.3       1 UNK         0.0000 
      4 C4         -0.1546   50.6628   24.4457 C.3       1 UNK         0.0000 
      5 H5         -1.2343   50.5518   24.5460 H         1 UNK         0.0000 
      6 C6          0.2124   51.8560   25.3820 C.2       1 UNK         0.0000 
      7 O7          0.6388   52.8972   24.8815 O.2       1 UNK         0.0000 
      8 N8         -0.0327   51.6906   26.7039 N.am      1 UNK         0.0000 
      9 C9          0.2764   52.5353   27.7831 C.ar      1 UNK         0.0000 
     10 C10        -0.2810   52.1934   29.0305 C.ar      1 UNK         0.0000 
     11 C11        -0.0852   53.0098   30.1562 C.ar      1 UNK         0.0000 
     12 C12         0.6579   54.1720   29.9856 C.ar      1 UNK         0.0000 
     13 C13         1.2417   54.4861   28.7924 C.ar      1 UNK         0.0000 
     14 C14         1.1048   53.6744   27.6812 C.ar      1 UNK         0.0000 
     15 O15         1.9280   55.6535   28.9135 O.3       1 UNK         0.0000 
     16 C16         1.4928   56.1969   30.1267 C.3       1 UNK         0.0000 
     17 O17         0.9435   55.1502   30.8814 O.3       1 UNK         0.0000 
     18 N18         0.0474   50.9928   23.0119 N.am      1 UNK         0.0000 
     19 C19         1.2255   51.0808   22.3539 C.2       1 UNK         0.0000 
     20 O20         2.3044   50.8264   22.8816 O.2       1 UNK         0.0000 
     21 C21         1.1845   51.5279   20.9044 C.ar      1 UNK         0.0000 
     22 C22         0.0802   51.1772   20.1090 C.ar      1 UNK         0.0000 
     23 N23        -0.0264   51.4589   18.7895 N.ar      1 UNK         0.0000 
     24 C24         1.0102   52.0927   18.1953 C.ar      1 UNK         0.0000 
     25 C25         2.1540   52.4832   18.8874 C.ar      1 UNK         0.0000 
     26 C26         2.2514   52.2306   20.2654 C.ar      1 UNK         0.0000 
     27 C27         3.4992   52.7357   20.9667 C.2       1 UNK         0.0000 
     28 O28         4.6124   52.4654   20.5143 O.2       1 UNK         0.0000 
     29 N29         3.2794   53.4770   22.0783 N.am      1 UNK         0.0000 
     30 C30         4.2285   53.9342   23.0066 C.ar      1 UNK         0.0000 
     31 C31         5.5681   54.2205   22.6695 C.ar      1 UNK         0.0000 
     32 C32         6.4844   54.6293   23.6457 C.ar      1 UNK         0.0000 
     33 C33         6.0300   54.7445   24.9541 C.ar      1 UNK         0.0000 
     34 C34         4.7287   54.4927   25.2843 C.ar      1 UNK         0.0000 
     35 C35         3.7959   54.0979   24.3323 C.ar      1 UNK         0.0000 
     36 O36         4.5545   54.6994   26.6155 O.3       1 UNK         0.0000 
     37 C37         5.8525   54.7985   27.1363 C.3       1 UNK         0.0000 
     38 O38         6.7064   55.1241   26.0707 O.3       1 UNK         0.0000 
     39 H39        -0.0390   48.7611   26.8797 H         1 UNK         0.0000 
     40 H40         1.5041   48.0991   26.3239 H         1 UNK         0.0000 
     41 H41         1.4507   49.7169   26.8207 H         1 UNK         0.0000 
     42 H42         1.5050   49.2454   24.3802 H         1 UNK         0.0000 
     43 H43        -1.2724   48.0693   24.6121 H         1 UNK         0.0000 
     44 H44        -0.3040   48.1758   23.1424 H         1 UNK         0.0000 
     45 H45         0.2264   47.1606   24.4814 H         1 UNK         0.0000 
     46 H46        -0.4497   50.8068   26.9668 H         1 UNK         0.0000 
     47 H47        -0.8840   51.3001   29.1352 H         1 UNK         0.0000 
     48 H48        -0.4986   52.7453   31.1156 H         1 UNK         0.0000 
     49 H49         1.6012   53.9511   26.7667 H         1 UNK         0.0000 
     50 H50         2.3042   56.7048   30.6492 H         1 UNK         0.0000 
     51 H51         0.7112   56.9282   29.9302 H         1 UNK         0.0000 
     52 H52        -0.7908   51.2660   22.5260 H         1 UNK         0.0000 
     53 H53        -0.7513   50.6181   20.5066 H         1 UNK         0.0000 
     54 H54         0.9165   52.2864   17.1362 H         1 UNK         0.0000 
     55 H55         2.9507   52.9865   18.3569 H         1 UNK         0.0000 
     56 H56         2.3163   53.5770   22.3594 H         1 UNK         0.0000 
     57 H57         5.9051   54.1412   21.6470 H         1 UNK         0.0000 
     58 H58         7.5039   54.8325   23.3670 H         1 UNK         0.0000 
     59 H59         2.7748   53.9067   24.6120 H         1 UNK         0.0000 
     60 H60         6.1482   53.8326   27.5527 H         1 UNK         0.0000 
     61 H61         5.9106   55.5356   27.9366 H         1 UNK         0.0000 
@<TRIPOS>BOND
     1    1    2 1    
     2    1   39 1    
     3    1   40 1    
     4    1   41 1    
     5    2    3 1    
     6    2    4 1    
     7    2   42 1    
     8    3   43 1    
     9    3   44 1    
    10    3   45 1    
    11    4    5 1    
    12    4    6 1    
    13    4   18 1    
    14    6    7 2    
    15    6    8 am   BACKBONE|DICT|INTERRES
    16    8    9 1    
    17    8   46 1    
    18    9   14 ar   
    19    9   10 ar   
    20   10   11 ar   
    21   10   47 1    
    22   11   12 ar   
    23   11   48 1    
    24   12   17 1    
    25   12   13 ar   
    26   13   14 ar   
    27   13   15 1    
    28   14   49 1    
    29   15   16 1    
    30   16   17 1    
    31   16   50 1    
    32   16   51 1    
    33   18   19 am   BACKBONE|DICT|INTERRES
    34   18   52 1    
    35   19   20 2    
    36   19   21 1    
    37   21   26 ar   
    38   21   22 ar   
    39   22   23 ar   
    40   22   53 1    
    41   23   24 ar   
    42   24   25 ar   
    43   24   54 1    
    44   25   26 ar   
    45   25   55 1    
    46   26   27 1    
    47   27   28 2    
    48   27   29 am   BACKBONE|DICT|INTERRES
    49   29   30 1    
    50   29   56 1    
    51   30   35 ar   
    52   30   31 ar   
    53   31   32 ar   
    54   31   57 1    
    55   32   33 ar   
    56   32   58 1    
    57   33   38 1    
    58   33   34 ar   
    59   34   35 ar   
    60   34   36 1    
    61   35   59 1    
    62   36   37 1    
    63   37   38 1    
    64   37   60 1    
    65   37   61 1    
@<TRIPOS>SUBSTRUCTURE
     1 UNK         1 GROUP             0       ****    0 ROOT    
