@<TRIPOS>MOLECULE
ZINC32535255_5591
58   61    1
SMALL
USER_CHARGES


@<TRIPOS>ATOM
      1 C1         -7.0026   45.4907   20.5506 C.3       1 UNK         0.0000 
      2 C2         -5.5023   45.1588   20.5588 C.3       1 UNK         0.0000 
      3 O3         -4.8459   45.7255   21.6891 O.3       1 UNK         0.0000 
      4 C4         -4.8978   45.1389   22.9120 C.2       1 UNK         0.0000 
      5 O5         -5.4596   44.0699   23.1533 O.2       1 UNK         0.0000 
      6 C6         -4.1802   45.9131   23.9283 C.2       1 UNK         0.0000 
      7 C7         -4.1121   45.7445   25.3242 C.2       1 UNK         0.0000 
      8 N8         -3.3356   46.5995   25.9653 N.2       1 UNK         0.0000 
      9 C9         -2.7693   47.4677   25.1703 C.2       1 UNK         0.0000 
     10 S10        -3.1832   47.2843   23.4909 S.3       1 UNK         0.0000 
     11 N11        -1.9037   48.4201   25.6817 N.am      1 UNK         0.0000 
     12 C12        -1.2276   49.3871   25.0259 C.2       1 UNK         0.0000 
     13 O13        -1.2974   49.5937   23.8128 O.2       1 UNK         0.0000 
     14 C14        -0.3092   50.2451   25.9211 C.3       1 UNK         0.0000 
     15 H15        -0.9042   50.5008   26.8000 H         1 UNK         0.0000 
     16 C16         0.8867   49.4037   26.3906 C.3       1 UNK         0.0000 
     17 S17         0.1820   51.8357   25.1556 S.3       1 UNK         0.0000 
     18 C18         0.9739   52.6541   26.5143 C.ar      1 UNK         0.0000 
     19 N19         0.4344   52.6173   27.7165 N.2       1 UNK         0.0000 
     20 N20         1.3319   53.0722   28.6507 N.2       1 UNK         0.0000 
     21 C21         2.4365   53.4222   27.9653 C.ar      1 UNK         0.0000 
     22 N22         2.2207   53.3036   26.5752 N.pl3     1 UNK         0.0000 
     23 C23         3.1563   53.7072   25.6466 C.ar      1 UNK         0.0000 
     24 C24         2.9215   53.8991   24.2306 C.ar      1 UNK         0.0000 
     25 C25         3.9981   54.0969   23.3650 C.ar      1 UNK         0.0000 
     26 C26         5.2939   54.2423   23.8382 C.ar      1 UNK         0.0000 
     27 C27         5.5269   54.2422   25.2043 C.ar      1 UNK         0.0000 
     28 C28         4.4774   54.0083   26.1354 C.ar      1 UNK         0.0000 
     29 C29         4.7102   54.0686   27.5426 C.ar      1 UNK         0.0000 
     30 C30         3.6801   53.8334   28.4444 C.ar      1 UNK         0.0000 
     31 C31         6.0927   54.4141   28.0835 C.3       1 UNK         0.0000 
     32 C32         6.4508   54.4769   22.8830 C.3       1 UNK         0.0000 
     33 C33         1.5436   54.0940   23.6180 C.3       1 UNK         0.0000 
     34 C34        -4.7881   44.7156   26.2120 C.3       1 UNK         0.0000 
     35 H35        -7.4822   45.0977   19.6543 H         1 UNK         0.0000 
     36 H36        -7.1658   46.5686   20.5709 H         1 UNK         0.0000 
     37 H37        -7.5104   45.0591   21.4135 H         1 UNK         0.0000 
     38 H38        -5.3435   44.0797   20.5181 H         1 UNK         0.0000 
     39 H39        -5.0392   45.5733   19.6630 H         1 UNK         0.0000 
     40 H40        -1.7397   48.3612   26.6909 H         1 UNK         0.0000 
     41 H41         0.5518   48.4967   26.8816 H         1 UNK         0.0000 
     42 H42         1.5044   49.0932   25.5483 H         1 UNK         0.0000 
     43 H43         1.5042   49.9431   27.1091 H         1 UNK         0.0000 
     44 H44         3.8128   54.2031   22.3049 H         1 UNK         0.0000 
     45 H45         6.5328   54.4161   25.5540 H         1 UNK         0.0000 
     46 H46         3.8557   53.9049   29.5075 H         1 UNK         0.0000 
     47 H47         6.1002   54.4968   29.1709 H         1 UNK         0.0000 
     48 H48         6.8148   53.6453   27.8055 H         1 UNK         0.0000 
     49 H49         6.4331   55.3689   27.6815 H         1 UNK         0.0000 
     50 H50         6.1290   54.5225   21.8419 H         1 UNK         0.0000 
     51 H51         6.9571   55.4122   23.1250 H         1 UNK         0.0000 
     52 H52         7.1874   53.6797   22.9846 H         1 UNK         0.0000 
     53 H53         1.5686   54.8966   22.8806 H         1 UNK         0.0000 
     54 H54         1.2232   53.2024   23.0805 H         1 UNK         0.0000 
     55 H55         0.8013   54.3980   24.3539 H         1 UNK         0.0000 
     56 H56        -5.5460   45.1794   26.8445 H         1 UNK         0.0000 
     57 H57        -5.2928   43.9262   25.6566 H         1 UNK         0.0000 
     58 H58        -4.0833   44.2189   26.8817 H         1 UNK         0.0000 
@<TRIPOS>BOND
     1    1    2 1    
     2    1   35 1    
     3    1   36 1    
     4    1   37 1    
     5    2    3 1    
     6    2   38 1    
     7    2   39 1    
     8    3    4 1    
     9    4    5 2    
    10    4    6 1    
    11    6   10 1    
    12    6    7 2    
    13    7    8 1    
    14    7   34 1    
    15    8    9 2    
    16    9   10 1    
    17    9   11 am   BACKBONE|DICT|INTERRES
    18   11   12 am   BACKBONE|DICT|INTERRES
    19   11   40 1    
    20   12   13 2    
    21   12   14 1    
    22   14   15 1    
    23   14   16 1    
    24   14   17 1    
    25   16   41 1    
    26   16   42 1    
    27   16   43 1    
    28   17   18 1    
    29   18   22 ar   
    30   18   19 ar   
    31   19   20 ar   
    32   20   21 ar   
    33   21   30 ar   
    34   21   22 ar   
    35   22   23 ar   
    36   23   28 ar   
    37   23   24 ar   
    38   24   25 ar   
    39   24   33 1    
    40   25   26 ar   
    41   25   44 1    
    42   26   27 ar   
    43   26   32 1    
    44   27   28 ar   
    45   27   45 1    
    46   28   29 ar   
    47   29   30 ar   
    48   29   31 1    
    49   30   46 1    
    50   31   47 1    
    51   31   48 1    
    52   31   49 1    
    53   32   50 1    
    54   32   51 1    
    55   32   52 1    
    56   33   53 1    
    57   33   54 1    
    58   33   55 1    
    59   34   56 1    
    60   34   57 1    
    61   34   58 1    
@<TRIPOS>SUBSTRUCTURE
     1 UNK         1 GROUP             0       ****    0 ROOT    
