ZINC35593878_5305
                    3D
 Schrodinger Suite 2024-2.
 57 60  0  0  1  0            999 V2000
    7.0028   55.2969   22.1137 C   0  0  0  0  0  0
    7.5107   55.6960   20.8796 C   0  0  0  0  0  0
    6.8677   55.3065   19.7071 C   0  0  0  0  0  0
    5.7198   54.5149   19.7647 C   0  0  0  0  0  0
    5.2039   54.0976   21.0020 C   0  0  0  0  0  0
    5.8601   54.4967   22.1758 C   0  0  0  0  0  0
    4.0661   53.2715   20.9955 N   0  0  0  0  0  0
    3.0130   53.1648   21.8758 C   0  0  0  0  0  0
    1.9950   52.3795   21.6269 N   0  0  0  0  0  0
    1.0240   52.5042   22.5143 C   0  0  0  0  0  0
    1.2852   53.3764   23.5723 C   0  0  0  0  0  0
    2.8463   54.0971   23.3399 S   0  0  0  0  0  0
   -0.1467   51.6807   22.3442 C   0  0  0  0  0  0
   -1.0709   52.0966   21.6393 O   0  0  0  0  0  0
   -0.1449   50.4558   22.9413 N   0  0  0  0  0  0
   -1.2566   49.5121   22.7055 C   0  0  0  0  0  0
   -1.9488   49.2346   24.0547 C   0  0  0  0  0  0
   -0.9492   48.7423   25.1193 C   0  0  0  0  0  0
    0.3032   49.6465   25.2716 C   0  0  1  0  0  0
    1.0455   49.1287   25.8836 H   0  0  0  0  0  0
    0.9090   49.9736   23.8681 C   0  0  0  0  0  0
   -0.1082   50.9174   26.0678 C   0  0  0  0  0  0
   -0.6679   51.8722   25.5299 O   0  0  0  0  0  0
    0.1489   50.8967   27.3854 N   0  0  0  0  0  0
   -0.2115   51.9389   28.3501 C   0  0  0  0  0  0
    0.8517   52.9922   28.6666 C   0  0  0  0  0  0
    0.4968   54.0588   29.4963 C   0  0  0  0  0  0
    1.4118   55.0649   29.7966 C   0  0  0  0  0  0
    2.7043   55.0035   29.2814 C   0  0  0  0  0  0
    3.0929   53.9306   28.4699 C   0  0  0  0  0  0
    2.1572   52.9352   28.1571 C   0  0  0  0  0  0
    4.5183   53.8269   27.9347 C   0  0  0  0  0  0
    5.1045   52.7623   28.4808 F   0  0  0  0  0  0
    4.5029   53.6964   26.6068 F   0  0  0  0  0  0
    5.2605   54.8919   28.2352 F   0  0  0  0  0  0
    5.1223   54.1486   18.6058 F   0  0  0  0  0  0
    7.5046   55.5863   23.0261 H   0  0  0  0  0  0
    8.4156   56.2824   20.8306 H   0  0  0  0  0  0
    7.2621   55.6103   18.7476 H   0  0  0  0  0  0
    5.5219   54.1645   23.1431 H   0  0  0  0  0  0
    3.9318   52.8630   20.0780 H   0  0  0  0  0  0
    0.6687   53.6284   24.4219 H   0  0  0  0  0  0
   -1.9546   49.8475   21.9369 H   0  0  0  0  0  0
   -0.8102   48.5896   22.3276 H   0  0  0  0  0  0
   -2.4621   50.1324   24.3988 H   0  0  0  0  0  0
   -2.7282   48.4870   23.9135 H   0  0  0  0  0  0
   -1.4223   48.5523   26.0816 H   0  0  0  0  0  0
   -0.6016   47.7345   24.8896 H   0  0  0  0  0  0
    1.2992   49.0456   23.4468 H   0  0  0  0  0  0
    1.7842   50.6189   23.9352 H   0  0  0  0  0  0
    0.5114   50.0396   27.7722 H   0  0  0  0  0  0
   -1.1087   52.4615   28.0124 H   0  0  0  0  0  0
   -0.4941   51.4481   29.2833 H   0  0  0  0  0  0
   -0.4971   54.1131   29.9118 H   0  0  0  0  0  0
    1.1191   55.8905   30.4298 H   0  0  0  0  0  0
    3.4018   55.7894   29.5249 H   0  0  0  0  0  0
    2.4566   52.1131   27.5230 H   0  0  0  0  0  0
  1  6  2  0  0  0
  1  2  1  0  0  0
  1 37  1  0  0  0
  2  3  2  0  0  0
  2 38  1  0  0  0
  3  4  1  0  0  0
  3 39  1  0  0  0
  4  5  2  0  0  0
  4 36  1  0  0  0
  5  6  1  0  0  0
  5  7  1  0  0  0
  6 40  1  0  0  0
  7  8  1  0  0  0
  7 41  1  0  0  0
  8 12  1  0  0  0
  8  9  2  0  0  0
  9 10  1  0  0  0
 10 11  2  0  0  0
 10 13  1  0  0  0
 11 12  1  0  0  0
 11 42  1  0  0  0
 13 14  2  0  0  0
 13 15  1  0  0  0
 15 21  1  0  0  0
 15 16  1  0  0  0
 16 17  1  0  0  0
 16 43  1  0  0  0
 16 44  1  0  0  0
 17 18  1  0  0  0
 17 45  1  0  0  0
 17 46  1  0  0  0
 18 19  1  0  0  0
 18 47  1  0  0  0
 18 48  1  0  0  0
 19 20  1  0  0  0
 19 21  1  0  0  0
 19 22  1  0  0  0
 21 49  1  0  0  0
 21 50  1  0  0  0
 22 23  2  0  0  0
 22 24  1  0  0  0
 24 25  1  0  0  0
 24 51  1  0  0  0
 25 26  1  0  0  0
 25 52  1  0  0  0
 25 53  1  0  0  0
 26 31  2  0  0  0
 26 27  1  0  0  0
 27 28  2  0  0  0
 27 54  1  0  0  0
 28 29  1  0  0  0
 28 55  1  0  0  0
 29 30  2  0  0  0
 29 56  1  0  0  0
 30 31  1  0  0  0
 30 32  1  0  0  0
 31 57  1  0  0  0
 32 33  1  0  0  0
 32 34  1  0  0  0
 32 35  1  0  0  0
M  END
> <i_i_glide_confnum>
274

> <i_i_glide_lignum>
5306

> <i_i_glide_posenum>
215

> <i_i_glide_rotatable_bonds>
9

> <i_m_Source_File_Index>
1492

> <b_m_subgroup_collapsed>
0

> <r_i_docking_score>
-6.23942

> <r_i_glide_ecoul>
-3.16033

> <r_i_glide_eff_state_penalty>
0

> <r_i_glide_einternal>
10.6654

> <r_i_glide_emodel>
-70.5323

> <r_i_glide_energy>
-54.5874

> <r_i_glide_erotb>
0.637998

> <r_i_glide_esite>
-0.110222

> <r_i_glide_evdw>
-51.4271

> <r_i_glide_gscore>
-6.23942

> <r_i_glide_hbond>
0

> <r_i_glide_ligand_efficiency>
-0.178269

> <r_i_glide_ligand_efficiency_ln>
-1.36969

> <r_i_glide_ligand_efficiency_sa>
-0.58313

> <r_i_glide_lipo>
-2.85942

> <r_i_glide_metal>
0

> <r_i_glide_rewards>
-0.862378

> <s_i_glide_gridfile>
wee1_glide-grid

> <s_m_Source_File>
wee1_decoys_glide_SP.sdf

> <s_m_Source_Path>
/Users/zhangxujun/Desktop

> <s_m_entry_id>
1767

> <s_m_entry_name>
wee1_decoys_glide_SP.1492

> <s_m_subgroup_title>
wee1_decoys_glide_SP

> <s_m_subgroupid>
wee1_decoys_glide_SP


$$$$
