@<TRIPOS>MOLECULE
ZINC02872517_2648
43   45    1
SMALL
USER_CHARGES


@<TRIPOS>ATOM
      1 C1          6.1000   54.3721   23.1357 C.3       1 UNK         0.0000 
      2 C2          5.9832   54.5376   24.6362 C.2       1 UNK         0.0000 
      3 C3          4.8798   54.3364   25.4852 C.2       1 UNK         0.0000 
      4 C4          5.3955   54.5438   26.7609 C.2       1 UNK         0.0000 
      5 O5          6.7052   54.8710   26.6540 O.3       1 UNK         0.0000 
      6 N6          7.0556   54.8888   25.3073 N.2       1 UNK         0.0000 
      7 C7          4.8436   54.4958   28.1669 C.3       1 UNK         0.0000 
      8 C8          3.5172   54.0876   25.0901 C.2       1 UNK         0.0000 
      9 O9          3.1000   54.4705   23.9979 O.2       1 UNK         0.0000 
     10 N10         2.8065   53.3988   26.0063 N.am      1 UNK         0.0000 
     11 C11         1.4945   52.8965   25.9394 C.ar      1 UNK         0.0000 
     12 C12         0.9822   52.3709   27.1291 C.ar      1 UNK         0.0000 
     13 C13        -0.3177   51.8759   27.1772 C.ar      1 UNK         0.0000 
     14 C14        -1.1111   51.9018   26.0298 C.ar      1 UNK         0.0000 
     15 C15        -0.5945   52.3815   24.8249 C.ar      1 UNK         0.0000 
     16 C16         0.7061   52.8795   24.7771 C.ar      1 UNK         0.0000 
     17 S17        -2.8126   51.3606   26.1305 S.o2      1 UNK         0.0000 
     18 O18        -3.2884   51.6966   27.4760 O.2       1 UNK         0.0000 
     19 O19        -3.5252   51.8590   24.9485 O.2       1 UNK         0.0000 
     20 N20        -2.7699   49.5921   26.0819 N.pl3     1 UNK         0.0000 
     21 C21        -2.5184   48.7978   24.9601 C.ar      1 UNK         0.0000 
     22 C22        -1.9289   47.5583   25.2059 C.ar      1 UNK         0.0000 
     23 C23        -1.7259   46.6645   24.1622 C.ar      1 UNK         0.0000 
     24 C24        -2.0971   47.0141   22.8667 C.ar      1 UNK         0.0000 
     25 C25        -2.6699   48.2571   22.6084 C.ar      1 UNK         0.0000 
     26 C26        -2.8880   49.1489   23.6565 C.ar      1 UNK         0.0000 
     27 Cl27       -1.8614   45.8897   21.5778 Cl        1 UNK         0.0000 
     28 H28         5.3998   53.6291   22.7523 H         1 UNK         0.0000 
     29 H29         5.9050   55.2985   22.6030 H         1 UNK         0.0000 
     30 H30         7.0987   54.0494   22.8389 H         1 UNK         0.0000 
     31 H31         3.8210   54.8713   28.2182 H         1 UNK         0.0000 
     32 H32         5.4355   55.1038   28.8525 H         1 UNK         0.0000 
     33 H33         4.8467   53.4789   28.5604 H         1 UNK         0.0000 
     34 H34         3.2936   53.1891   26.8637 H         1 UNK         0.0000 
     35 H35         1.5792   52.3579   28.0309 H         1 UNK         0.0000 
     36 H36        -0.7120   51.4888   28.1064 H         1 UNK         0.0000 
     37 H37        -1.1998   52.3864   23.9297 H         1 UNK         0.0000 
     38 H38         1.0724   53.2471   23.8324 H         1 UNK         0.0000 
     39 H39        -2.5539   49.1666   26.9815 H         1 UNK         0.0000 
     40 H40        -1.6421   47.2769   26.2127 H         1 UNK         0.0000 
     41 H41        -1.2956   45.6976   24.3645 H         1 UNK         0.0000 
     42 H42        -2.9641   48.5213   21.6038 H         1 UNK         0.0000 
     43 H43        -3.3693   50.0864   23.4357 H         1 UNK         0.0000 
@<TRIPOS>BOND
     1    1    2 1    
     2    1   28 1    
     3    1   29 1    
     4    1   30 1    
     5    2    6 2    
     6    2    3 1    
     7    3    4 2    
     8    3    8 1    
     9    4    5 1    
    10    4    7 1    
    11    5    6 1    
    12    7   31 1    
    13    7   32 1    
    14    7   33 1    
    15    8    9 2    
    16    8   10 am   BACKBONE|DICT|INTERRES
    17   10   11 1    
    18   10   34 1    
    19   11   16 ar   
    20   11   12 ar   
    21   12   13 ar   
    22   12   35 1    
    23   13   14 ar   
    24   13   36 1    
    25   14   15 ar   
    26   14   17 1    
    27   15   16 ar   
    28   15   37 1    
    29   16   38 1    
    30   17   18 2    
    31   17   19 2    
    32   17   20 1    
    33   20   21 1    
    34   20   39 1    
    35   21   26 ar   
    36   21   22 ar   
    37   22   23 ar   
    38   22   40 1    
    39   23   24 ar   
    40   23   41 1    
    41   24   25 ar   
    42   24   27 1    
    43   25   26 ar   
    44   25   42 1    
    45   26   43 1    
@<TRIPOS>SUBSTRUCTURE
     1 UNK         1 GROUP             0       ****    0 ROOT    
