ZINC39676808_131
                    3D
 Schrodinger Suite 2024-2.
 69 72  0  0  1  0            999 V2000
   -1.2209   47.7118   18.4010 C   0  0  0  0  0  0
   -0.6891   48.7214   19.4009 C   0  0  0  0  0  0
   -1.3973   49.8963   19.6506 C   0  0  0  0  0  0
   -0.8995   50.8357   20.5507 C   0  0  0  0  0  0
    0.3159   50.6180   21.2163 C   0  0  0  0  0  0
    1.0317   49.4277   20.9646 C   0  0  0  0  0  0
    0.5227   48.4956   20.0549 C   0  0  0  0  0  0
    2.3471   49.1080   21.6635 C   0  0  0  0  0  0
    0.8190   51.6606   22.1895 C   0  0  0  0  0  0
    1.9226   52.1779   22.0028 O   0  0  0  0  0  0
    0.0246   51.9860   23.2438 N   0  0  0  0  0  0
    0.5353   52.8551   24.3116 C   0  0  0  0  0  0
   -0.2340   52.3650   25.5683 C   0  0  1  0  0  0
   -1.0838   53.0300   25.7196 H   0  0  0  0  0  0
   -0.7588   50.9486   25.2287 C   0  0  0  0  0  0
   -1.0651   51.1315   23.7272 C   0  0  0  0  0  0
    0.3049   49.8318   25.4469 C   0  0  0  0  0  0
   -0.1734   48.4608   24.9588 C   0  0  0  0  0  0
   -1.4986   48.1364   25.6817 N   0  3  0  0  0  0
   -2.5951   49.2156   25.5643 C   0  0  0  0  0  0
   -1.9910   50.5381   26.0717 C   0  0  0  0  0  0
    0.6233   52.4972   26.8614 C   0  0  0  0  0  0
    0.2956   51.8857   27.8772 O   0  0  0  0  0  0
    1.6587   53.3572   26.8533 N   0  0  0  0  0  0
    2.4926   53.7132   28.0037 C   0  0  2  0  0  0
    2.4908   52.8636   28.6927 H   0  0  0  0  0  0
    1.8937   54.9299   28.7368 C   0  0  0  0  0  0
    3.9713   53.9337   27.6610 C   0  0  0  0  0  0
    4.8991   53.9312   28.7059 C   0  0  0  0  0  0
    6.2561   54.0965   28.4520 C   0  0  0  0  0  0
    6.7032   54.2700   27.1466 C   0  0  0  0  0  0
    5.8078   54.2667   26.0784 C   0  0  0  0  0  0
    4.4374   54.0962   26.3448 C   0  0  0  0  0  0
    6.3528   54.4338   24.8208 O   0  0  0  0  0  0
    5.5333   54.2331   23.6740 C   0  0  0  0  0  0
   -1.6493   48.2227   17.5378 H   0  0  0  0  0  0
   -0.4280   47.0655   18.0215 H   0  0  0  0  0  0
   -1.9992   47.0976   18.8525 H   0  0  0  0  0  0
   -2.3306   50.0865   19.1412 H   0  0  0  0  0  0
   -1.4618   51.7421   20.7226 H   0  0  0  0  0  0
    1.0753   47.5898   19.8500 H   0  0  0  0  0  0
    2.7043   48.0985   21.4519 H   0  0  0  0  0  0
    3.1094   49.8159   21.3405 H   0  0  0  0  0  0
    2.2457   49.2046   22.7448 H   0  0  0  0  0  0
    0.2811   53.9032   24.1433 H   0  0  0  0  0  0
    1.5979   52.6354   24.4444 H   0  0  0  0  0  0
   -1.2654   50.2121   23.1791 H   0  0  0  0  0  0
   -1.9823   51.7214   23.6808 H   0  0  0  0  0  0
    1.2045   50.0737   24.8817 H   0  0  0  0  0  0
    0.6222   49.7583   26.4882 H   0  0  0  0  0  0
   -0.3453   48.3926   23.8844 H   0  0  0  0  0  0
    0.5377   47.6967   25.2653 H   0  0  0  0  0  0
   -1.8494   47.2287   25.4169 H   0  0  0  0  0  0
   -2.9236   49.2406   24.5245 H   0  0  0  0  0  0
   -3.4157   48.8760   26.1990 H   0  0  0  0  0  0
   -1.7534   50.4841   27.1366 H   0  0  0  0  0  0
   -2.7631   51.3040   25.9889 H   0  0  0  0  0  0
    1.8000   53.9157   26.0279 H   0  0  0  0  0  0
    2.4482   55.1668   29.6452 H   0  0  0  0  0  0
    1.9015   55.8181   28.1042 H   0  0  0  0  0  0
    0.8596   54.7444   29.0308 H   0  0  0  0  0  0
    4.5700   53.7966   29.7251 H   0  0  0  0  0  0
    6.9639   54.0966   29.2698 H   0  0  0  0  0  0
    7.7576   54.3965   26.9643 H   0  0  0  0  0  0
    3.7340   54.0862   25.5293 H   0  0  0  0  0  0
    6.1177   54.4302   22.7753 H   0  0  0  0  0  0
    5.1790   53.2053   23.6159 H   0  0  0  0  0  0
    4.6699   54.8964   23.6568 H   0  0  0  0  0  0
   -1.2959   48.0815   26.6862 H   0  0  0  0  0  0
  1  2  1  0  0  0
  1 36  1  0  0  0
  1 37  1  0  0  0
  1 38  1  0  0  0
  2  7  2  0  0  0
  2  3  1  0  0  0
  3  4  2  0  0  0
  3 39  1  0  0  0
  4  5  1  0  0  0
  4 40  1  0  0  0
  5  6  2  0  0  0
  5  9  1  0  0  0
  6  7  1  0  0  0
  6  8  1  0  0  0
  7 41  1  0  0  0
  8 42  1  0  0  0
  8 43  1  0  0  0
  8 44  1  0  0  0
  9 10  2  0  0  0
  9 11  1  0  0  0
 11 16  1  0  0  0
 11 12  1  0  0  0
 12 13  1  0  0  0
 12 45  1  0  0  0
 12 46  1  0  0  0
 13 14  1  0  0  0
 13 15  1  0  0  0
 13 22  1  0  0  0
 15 21  1  0  0  0
 15 16  1  0  0  0
 15 17  1  0  0  0
 16 47  1  0  0  0
 16 48  1  0  0  0
 17 18  1  0  0  0
 17 49  1  0  0  0
 17 50  1  0  0  0
 18 19  1  0  0  0
 18 51  1  0  0  0
 18 52  1  0  0  0
 19 20  1  0  0  0
 19 53  1  0  0  0
 19 69  1  0  0  0
 20 21  1  0  0  0
 20 54  1  0  0  0
 20 55  1  0  0  0
 21 56  1  0  0  0
 21 57  1  0  0  0
 22 23  2  0  0  0
 22 24  1  0  0  0
 24 25  1  0  0  0
 24 58  1  0  0  0
 25 26  1  0  0  0
 25 27  1  0  0  0
 25 28  1  0  0  0
 27 59  1  0  0  0
 27 60  1  0  0  0
 27 61  1  0  0  0
 28 33  2  0  0  0
 28 29  1  0  0  0
 29 30  2  0  0  0
 29 62  1  0  0  0
 30 31  1  0  0  0
 30 63  1  0  0  0
 31 32  2  0  0  0
 31 64  1  0  0  0
 32 33  1  0  0  0
 32 34  1  0  0  0
 33 65  1  0  0  0
 34 35  1  0  0  0
 35 66  1  0  0  0
 35 67  1  0  0  0
 35 68  1  0  0  0
M  CHG  1  19   1
M  END
> <i_i_glide_confnum>
208

> <i_i_glide_lignum>
132

> <i_i_glide_posenum>
293

> <i_i_glide_rotatable_bonds>
7

> <i_m_Source_File_Index>
2197

> <b_m_subgroup_collapsed>
0

> <r_i_docking_score>
-5.23575

> <r_i_glide_ecoul>
-2.40705

> <r_i_glide_eff_state_penalty>
0

> <r_i_glide_einternal>
7.89983

> <r_i_glide_emodel>
-53.1417

> <r_i_glide_energy>
-41.9401

> <r_i_glide_erotb>
0.592519

> <r_i_glide_esite>
-0.1

> <r_i_glide_evdw>
-39.5331

> <r_i_glide_gscore>
-5.23575

> <r_i_glide_hbond>
-0.2

> <r_i_glide_ligand_efficiency>
-0.158659

> <r_i_glide_ligand_efficiency_ln>
-1.1644

> <r_i_glide_ligand_efficiency_sa>
-0.508905

> <r_i_glide_lipo>
-2.65015

> <r_i_glide_metal>
0

> <r_i_glide_rewards>
-0.540411

> <s_i_glide_gridfile>
wee1_glide-grid

> <s_m_Source_File>
wee1_decoys_glide_SP.sdf

> <s_m_Source_Path>
/Users/zhangxujun/Desktop

> <s_m_entry_id>
2472

> <s_m_entry_name>
wee1_decoys_glide_SP.2197

> <s_m_subgroup_title>
wee1_decoys_glide_SP

> <s_m_subgroupid>
wee1_decoys_glide_SP


$$$$
