@<TRIPOS>MOLECULE
ZINC39666173_895
73   76    1
SMALL
USER_CHARGES


@<TRIPOS>ATOM
      1 C1          4.0630   53.0166   30.0790 C.3       1 UNK         0.0000 
      2 C2          4.3293   53.5727   28.6925 C.ar      1 UNK         0.0000 
      3 C3          5.6377   53.7704   28.2420 C.ar      1 UNK         0.0000 
      4 C4          5.8676   54.2377   26.9478 C.ar      1 UNK         0.0000 
      5 C5          4.7921   54.4949   26.0989 C.ar      1 UNK         0.0000 
      6 C6          3.4899   54.3271   26.5681 C.ar      1 UNK         0.0000 
      7 C7          3.2553   53.8625   27.8559 C.ar      1 UNK         0.0000 
      8 O8          5.0301   54.8943   24.8014 O.3       1 UNK         0.0000 
      9 C9          4.5758   53.9949   23.7842 C.3       1 UNK         0.0000 
     10 H10         4.3781   53.0192   24.2209 H         1 UNK         0.0000 
     11 C11         5.7313   53.8015   22.7924 C.3       1 UNK         0.0000 
     12 C12         3.2726   54.4954   23.1015 C.3       1 UNK         0.0000 
     13 N13         2.3994   53.4203   22.6047 N.am      1 UNK         0.0000 
     14 C14         1.6781   52.5992   23.3947 C.2       1 UNK         0.0000 
     15 O15         1.6830   52.7161   24.6158 O.2       1 UNK         0.0000 
     16 C16         0.8482   51.4792   22.7178 C.3       1 UNK         0.0000 
     17 H17         1.5838   50.7824   22.3088 H         1 UNK         0.0000 
     18 C18         0.0225   52.0548   21.5641 C.3       1 UNK         0.0000 
     19 N19        -0.9227   50.9710   21.2827 N.am      1 UNK         0.0000 
     20 C20        -1.0379   50.0529   22.4288 C.3       1 UNK         0.0000 
     21 C21        -0.1983   50.6912   23.5675 C.3       1 UNK         0.0000 
     22 C22        -1.1189   51.5874   24.4696 C.3       1 UNK         0.0000 
     23 C23        -2.1910   50.7751   25.2387 C.3       1 UNK         0.0000 
     24 N24        -1.4679   49.7010   26.0808 N.4       1 UNK         0.0000 
     25 C25        -0.5604   48.7802   25.2433 C.3       1 UNK         0.0000 
     26 C26         0.4674   49.6700   24.5240 C.3       1 UNK         0.0000 
     27 C27        -1.5918   50.7492   20.1188 C.2       1 UNK         0.0000 
     28 O28        -2.4575   49.8775   20.0234 O.2       1 UNK         0.0000 
     29 C29        -1.2864   51.5987   18.9036 C.ar      1 UNK         0.0000 
     30 C30         0.0285   51.8087   18.4738 C.ar      1 UNK         0.0000 
     31 C31         0.2967   52.6077   17.3687 C.ar      1 UNK         0.0000 
     32 C32        -0.7458   53.1828   16.6275 C.ar      1 UNK         0.0000 
     33 C33        -2.0739   52.9127   16.9999 C.ar      1 UNK         0.0000 
     34 C34        -2.3312   52.1204   18.1299 C.ar      1 UNK         0.0000 
     35 C35        -3.2310   53.4548   16.1519 C.3       1 UNK         0.0000 
     36 F36        -3.2990   54.7780   16.3023 F         1 UNK         0.0000 
     37 F37        -3.0428   53.1762   14.8604 F         1 UNK         0.0000 
     38 F38        -4.4091   52.9332   16.4959 F         1 UNK         0.0000 
     39 O39        -0.5348   54.0021   15.5326 O.3       1 UNK         0.0000 
     40 C40         0.7941   54.3167   15.1307 C.3       1 UNK         0.0000 
     41 H41         3.0259   52.7013   30.2067 H         1 UNK         0.0000 
     42 H42         4.3022   53.7652   30.8341 H         1 UNK         0.0000 
     43 H43         4.6920   52.1422   30.2579 H         1 UNK         0.0000 
     44 H44         6.4794   53.5542   28.8824 H         1 UNK         0.0000 
     45 H45         6.8773   54.3694   26.5935 H         1 UNK         0.0000 
     46 H46         2.6472   54.5113   25.9264 H         1 UNK         0.0000 
     47 H47         2.2386   53.7136   28.1881 H         1 UNK         0.0000 
     48 H48         5.4527   53.1213   21.9876 H         1 UNK         0.0000 
     49 H49         6.0327   54.7485   22.3439 H         1 UNK         0.0000 
     50 H50         6.6044   53.3817   23.2911 H         1 UNK         0.0000 
     51 H51         2.7082   55.1292   23.7866 H         1 UNK         0.0000 
     52 H52         3.5156   55.1496   22.2643 H         1 UNK         0.0000 
     53 H53         2.3331   53.3257   21.6009 H         1 UNK         0.0000 
     54 H54        -0.5615   52.8962   21.9285 H         1 UNK         0.0000 
     55 H55         0.6730   52.3840   20.7581 H         1 UNK         0.0000 
     56 H56        -0.5358   49.1305   22.1308 H         1 UNK         0.0000 
     57 H57        -2.0515   49.7782   22.7171 H         1 UNK         0.0000 
     58 H58        -0.5539   52.1693   25.1953 H         1 UNK         0.0000 
     59 H59        -1.6305   52.3316   23.8582 H         1 UNK         0.0000 
     60 H60        -2.7453   51.3902   25.9478 H         1 UNK         0.0000 
     61 H61        -2.9043   50.2529   24.6003 H         1 UNK         0.0000 
     62 H62        -0.8931   50.1530   26.7786 H         1 UNK         0.0000 
     63 H63        -0.0979   48.0991   25.9587 H         1 UNK         0.0000 
     64 H64        -1.2027   48.2101   24.5719 H         1 UNK         0.0000 
     65 H65         1.1315   49.0161   23.9581 H         1 UNK         0.0000 
     66 H66         1.1037   50.1755   25.2485 H         1 UNK         0.0000 
     67 H67         0.8624   51.3461   18.9810 H         1 UNK         0.0000 
     68 H68         1.3289   52.7570   17.0951 H         1 UNK         0.0000 
     69 H69        -3.3538   51.9107   18.4133 H         1 UNK         0.0000 
     70 H70         0.7612   54.9770   14.2631 H         1 UNK         0.0000 
     71 H71         1.3376   54.8399   15.9190 H         1 UNK         0.0000 
     72 H72         1.3497   53.4237   14.8409 H         1 UNK         0.0000 
     73 H73        -2.1012   49.1333   26.6379 H         1 UNK         0.0000 
@<TRIPOS>BOND
     1    1    2 1    
     2    1   41 1    
     3    1   42 1    
     4    1   43 1    
     5    2    7 ar   
     6    2    3 ar   
     7    3    4 ar   
     8    3   44 1    
     9    4    5 ar   
    10    4   45 1    
    11    5    6 ar   
    12    5    8 1    
    13    6    7 ar   
    14    6   46 1    
    15    7   47 1    
    16    8    9 1    
    17    9   10 1    
    18    9   11 1    
    19    9   12 1    
    20   11   48 1    
    21   11   49 1    
    22   11   50 1    
    23   12   13 1    
    24   12   51 1    
    25   12   52 1    
    26   13   14 am   BACKBONE|DICT|INTERRES
    27   13   53 1    
    28   14   15 2    
    29   14   16 1    
    30   16   17 1    
    31   16   21 1    
    32   16   18 1    
    33   18   19 1    
    34   18   54 1    
    35   18   55 1    
    36   19   20 1    
    37   19   27 am   BACKBONE|DICT|INTERRES
    38   20   21 1    
    39   20   56 1    
    40   20   57 1    
    41   21   26 1    
    42   21   22 1    
    43   22   23 1    
    44   22   58 1    
    45   22   59 1    
    46   23   24 1    
    47   23   60 1    
    48   23   61 1    
    49   24   25 1    
    50   24   62 1    
    51   24   73 1    
    52   25   26 1    
    53   25   63 1    
    54   25   64 1    
    55   26   65 1    
    56   26   66 1    
    57   27   28 2    
    58   27   29 1    
    59   29   34 ar   
    60   29   30 ar   
    61   30   31 ar   
    62   30   67 1    
    63   31   32 ar   
    64   31   68 1    
    65   32   33 ar   
    66   32   39 1    
    67   33   34 ar   
    68   33   35 1    
    69   34   69 1    
    70   35   36 1    
    71   35   37 1    
    72   35   38 1    
    73   39   40 1    
    74   40   70 1    
    75   40   71 1    
    76   40   72 1    
@<TRIPOS>SUBSTRUCTURE
     1 UNK         1 GROUP             0       ****    0 ROOT    
