ZINC47309293_3588
                    3D
 Schrodinger Suite 2024-2.
 37 39  0  0  1  0            999 V2000
    1.6279   52.2255   21.7922 C   0  0  0  0  0  0
    0.9886   52.7807   23.0769 C   0  0  0  0  0  0
    1.5606   54.1290   23.5803 C   0  0  0  0  0  0
    3.0306   54.0966   23.9630 C   0  0  0  0  0  0
    3.7166   54.2166   25.1739 C   0  0  0  0  0  0
    5.0693   54.1060   24.8010 C   0  0  0  0  0  0
    5.2634   54.0071   23.5102 N   0  0  0  0  0  0
    4.0227   54.0074   23.0163 N   0  0  0  0  0  0
    3.8482   53.9397   22.0232 H   0  0  0  0  0  0
    6.1412   54.1243   25.6610 O   0  0  0  0  0  0
    5.8190   54.1322   26.9832 C   0  0  0  0  0  0
    4.5739   54.2184   27.5109 C   0  0  0  0  0  0
    3.3185   54.4230   26.6450 C   0  0  2  0  0  0
    3.1045   55.4840   26.7244 H   0  0  0  0  0  0
    2.0675   53.7016   27.1810 C   0  0  0  0  0  0
    1.6152   52.5076   26.6103 C   0  0  0  0  0  0
    0.5343   51.8147   27.1544 C   0  0  0  0  0  0
   -0.1165   52.3185   28.2773 C   0  0  0  0  0  0
    0.3035   53.5206   28.8438 C   0  0  0  0  0  0
    1.3798   54.2147   28.2939 C   0  0  0  0  0  0
    1.7439   55.3968   28.8435 F   0  0  0  0  0  0
   -1.5840   51.3712   29.0297 Br  0  0  0  0  0  0
    4.3945   54.1572   28.9253 C   0  0  0  0  0  0
    4.1713   54.0968   30.0585 N   0  0  0  0  0  0
    6.9868   54.0128   27.6819 N   0  0  0  0  0  0
    1.0937   51.3385   21.4515 H   0  0  0  0  0  0
    1.5998   52.9500   20.9794 H   0  0  0  0  0  0
    2.6651   51.9285   21.9496 H   0  0  0  0  0  0
    1.0599   52.0231   23.8571 H   0  0  0  0  0  0
   -0.0812   52.8998   22.8979 H   0  0  0  0  0  0
    0.9693   54.4626   24.4331 H   0  0  0  0  0  0
    1.4006   54.8903   22.8160 H   0  0  0  0  0  0
    2.1357   52.0967   25.7618 H   0  0  0  0  0  0
    0.2099   50.8804   26.7184 H   0  0  0  0  0  0
   -0.2063   53.9179   29.7086 H   0  0  0  0  0  0
    7.0350   54.2605   28.6614 H   0  0  0  0  0  0
    7.7719   53.5232   27.2801 H   0  0  0  0  0  0
  1  2  1  0  0  0
  1 26  1  0  0  0
  1 27  1  0  0  0
  1 28  1  0  0  0
  2  3  1  0  0  0
  2 29  1  0  0  0
  2 30  1  0  0  0
  3  4  1  0  0  0
  3 31  1  0  0  0
  3 32  1  0  0  0
  4  8  1  0  0  0
  4  5  2  0  0  0
  5 13  1  0  0  0
  5  6  1  0  0  0
  6  7  2  0  0  0
  6 10  1  0  0  0
  7  8  1  0  0  0
  8  9  1  0  0  0
 10 11  1  0  0  0
 11 12  2  0  0  0
 11 25  1  0  0  0
 12 13  1  0  0  0
 12 23  1  0  0  0
 13 14  1  0  0  0
 13 15  1  0  0  0
 15 20  2  0  0  0
 15 16  1  0  0  0
 16 17  2  0  0  0
 16 33  1  0  0  0
 17 18  1  0  0  0
 17 34  1  0  0  0
 18 19  2  0  0  0
 18 22  1  0  0  0
 19 20  1  0  0  0
 19 35  1  0  0  0
 20 21  1  0  0  0
 23 24  3  0  0  0
 25 36  1  0  0  0
 25 37  1  0  0  0
M  END
> <i_i_glide_confnum>
5

> <i_i_glide_lignum>
3589

> <i_i_glide_posenum>
149

> <i_i_glide_rotatable_bonds>
4

> <i_m_Source_File_Index>
2933

> <b_m_subgroup_collapsed>
0

> <r_i_docking_score>
-6.77336

> <r_i_glide_ecoul>
-3.94551

> <r_i_glide_eff_state_penalty>
0

> <r_i_glide_einternal>
1.75963

> <r_i_glide_emodel>
-52.055

> <r_i_glide_energy>
-38.3497

> <r_i_glide_erotb>
0.272208

> <r_i_glide_esite>
0

> <r_i_glide_evdw>
-34.4042

> <r_i_glide_gscore>
-6.77336

> <r_i_glide_hbond>
-0.317236

> <r_i_glide_ligand_efficiency>
-0.294494

> <r_i_glide_ligand_efficiency_ln>
-1.63786

> <r_i_glide_ligand_efficiency_sa>
-0.837502

> <r_i_glide_lipo>
-2.67275

> <r_i_glide_metal>
0

> <r_i_glide_rewards>
-1.74355

> <s_i_glide_gridfile>
wee1_glide-grid

> <s_m_Source_File>
wee1_decoys_glide_SP.sdf

> <s_m_Source_Path>
/Users/zhangxujun/Desktop

> <s_m_entry_id>
3208

> <s_m_entry_name>
wee1_decoys_glide_SP.2933

> <s_m_subgroup_title>
wee1_decoys_glide_SP

> <s_m_subgroupid>
wee1_decoys_glide_SP


$$$$
