@<TRIPOS>MOLECULE
ZINC36072040_5965
54   57    1
SMALL
USER_CHARGES


@<TRIPOS>ATOM
      1 C1          2.6684   54.7300   27.9384 C.3       1 UNK         0.0000 
      2 C2          1.7660   53.6964   27.2613 C.2       1 UNK         0.0000 
      3 C3          0.8389   52.8943   27.8740 C.2       1 UNK         0.0000 
      4 C4          0.0948   51.7954   27.0580 C.3       1 UNK         0.0000 
      5 H5          0.3089   50.8416   27.5449 H         1 UNK         0.0000 
      6 N6          0.7045   51.6814   25.7017 N.pl3     1 UNK         0.0000 
      7 C7          0.4519   50.6532   24.8045 C.2       1 UNK         0.0000 
      8 C8          0.9274   50.9423   23.5777 C.2       1 UNK         0.0000 
      9 S9          1.7574   52.4987   23.4889 S.3       1 UNK         0.0000 
     10 C10         1.5164   52.7106   25.2330 C.2       1 UNK         0.0000 
     11 N11         1.9916   53.6837   25.9131 N.2       1 UNK         0.0000 
     12 C12        -0.3293   49.4676   25.1443 C.2       1 UNK         0.0000 
     13 C13        -0.9554   48.6039   24.3249 C.2       1 UNK         0.0000 
     14 O14        -0.9878   48.5185   23.0420 O.co2     1 UNK         0.0000 
     15 N15        -1.7340   47.6177   24.8811 N.pl3     1 UNK         0.0000 
     16 C16        -3.1732   47.5333   24.6447 C.3       1 UNK         0.0000 
     17 C17        -3.8014   46.3139   25.2752 C.2       1 UNK         0.0000 
     18 C18        -3.6102   45.6322   26.4695 C.2       1 UNK         0.0000 
     19 C19        -4.5387   44.5920   26.4938 C.2       1 UNK         0.0000 
     20 C20        -5.2948   44.7126   25.3424 C.2       1 UNK         0.0000 
     21 O21        -4.8447   45.7574   24.6033 O.3       1 UNK         0.0000 
     22 C22        -1.4419   51.8937   27.0084 C.ar      1 UNK         0.0000 
     23 C23        -2.1026   52.4973   25.9306 C.ar      1 UNK         0.0000 
     24 C24        -3.4926   52.5059   25.8684 C.ar      1 UNK         0.0000 
     25 C25        -4.2312   51.9008   26.8816 C.ar      1 UNK         0.0000 
     26 C26        -3.5878   51.2936   27.9579 C.ar      1 UNK         0.0000 
     27 C27        -2.1972   51.2968   28.0216 C.ar      1 UNK         0.0000 
     28 Cl28       -5.9554   51.9130   26.8084 Cl        1 UNK         0.0000 
     29 C29         0.6193   52.8881   29.3073 C.2       1 UNK         0.0000 
     30 O30        -0.4322   53.3394   29.7629 O.2       1 UNK         0.0000 
     31 N31         1.5938   52.3538   30.0958 N.am      1 UNK         0.0000 
     32 C32         1.4625   52.3265   31.5567 C.3       1 UNK         0.0000 
     33 C33         2.8164   51.7161   29.5872 C.3       1 UNK         0.0000 
     34 H34         3.6936   54.3635   27.9570 H         1 UNK         0.0000 
     35 H35         2.6919   55.6775   27.4034 H         1 UNK         0.0000 
     36 H36         2.3702   54.9426   28.9637 H         1 UNK         0.0000 
     37 H37         0.8332   50.3261   22.6960 H         1 UNK         0.0000 
     38 H38        -0.4403   49.2684   26.2011 H         1 UNK         0.0000 
     39 H39        -1.5917   47.6285   25.8822 H         1 UNK         0.0000 
     40 H40        -3.3680   47.5354   23.5704 H         1 UNK         0.0000 
     41 H41        -3.6436   48.4261   25.0617 H         1 UNK         0.0000 
     42 H42        -2.8769   45.8611   27.2317 H         1 UNK         0.0000 
     43 H43        -4.6491   43.8538   27.2761 H         1 UNK         0.0000 
     44 H44        -6.1302   44.1619   24.9351 H         1 UNK         0.0000 
     45 H45        -1.5408   52.9537   25.1299 H         1 UNK         0.0000 
     46 H46        -3.9942   52.9712   25.0334 H         1 UNK         0.0000 
     47 H47        -4.1573   50.8160   28.7415 H         1 UNK         0.0000 
     48 H48        -1.7064   50.8114   28.8532 H         1 UNK         0.0000 
     49 H49         0.5298   52.7648   31.9172 H         1 UNK         0.0000 
     50 H50         1.5068   51.3061   31.9379 H         1 UNK         0.0000 
     51 H51         2.2795   52.8831   32.0080 H         1 UNK         0.0000 
     52 H52         3.4331   52.4245   29.0375 H         1 UNK         0.0000 
     53 H53         3.4400   51.3237   30.3905 H         1 UNK         0.0000 
     54 H54         2.5674   50.8971   28.9102 H         1 UNK         0.0000 
@<TRIPOS>BOND
     1    1    2 1    
     2    1   34 1    
     3    1   35 1    
     4    1   36 1    
     5    2   11 1    
     6    2    3 2    
     7    3    4 1    
     8    3   29 1    
     9    4    5 1    
    10    4    6 1    
    11    4   22 1    
    12    6   10 1    
    13    6    7 1    
    14    7    8 2    
    15    7   12 1    
    16    8    9 1    
    17    8   37 1    
    18    9   10 1    
    19   10   11 2    
    20   12   13 2    
    21   12   38 1    
    22   13   14 1    
    23   13   15 1    
    24   15   16 1    
    25   15   39 1    
    26   16   17 1    
    27   16   40 1    
    28   16   41 1    
    29   17   21 1    
    30   17   18 2    
    31   18   19 1    
    32   18   42 1    
    33   19   20 2    
    34   19   43 1    
    35   20   21 1    
    36   20   44 1    
    37   22   27 ar   
    38   22   23 ar   
    39   23   24 ar   
    40   23   45 1    
    41   24   25 ar   
    42   24   46 1    
    43   25   26 ar   
    44   25   28 1    
    45   26   27 ar   
    46   26   47 1    
    47   27   48 1    
    48   29   30 2    
    49   29   31 am   BACKBONE|DICT|INTERRES
    50   31   32 1    
    51   31   33 1    
    52   32   49 1    
    53   32   50 1    
    54   32   51 1    
    55   33   52 1    
    56   33   53 1    
    57   33   54 1    
@<TRIPOS>SUBSTRUCTURE
     1 UNK         1 GROUP             0       ****    0 ROOT    
