@<TRIPOS>MOLECULE
ZINC14023394_361
67   70    1
SMALL
USER_CHARGES


@<TRIPOS>ATOM
      1 C1          7.9188   52.9022   15.2983 C.3       1 UNK         0.0000 
      2 C2          8.4998   54.2561   15.7483 C.3       1 UNK         0.0000 
      3 C3          7.4414   55.2539   16.2520 C.3       1 UNK         0.0000 
      4 C4          5.2642   54.4144   17.3035 C.3       1 UNK         0.0000 
      5 C5          4.7441   53.5171   18.4486 C.3       1 UNK         0.0000 
      6 C6          5.2764   53.9613   19.8196 C.2       1 UNK         0.0000 
      7 C7          6.3028   54.9123   19.9133 C.2       1 UNK         0.0000 
      8 S8          6.7045   55.2973   21.5464 S.3       1 UNK         0.0000 
      9 C9          5.4919   54.1967   22.1455 C.2       1 UNK         0.0000 
     10 C10         4.8308   53.5164   21.0983 C.2       1 UNK         0.0000 
     11 C11         3.7713   52.5428   21.3322 C.2       1 UNK         0.0000 
     12 O12         3.0625   52.5805   22.3364 O.2       1 UNK         0.0000 
     13 N13         3.6417   51.5590   20.4380 N.am      1 UNK         0.0000 
     14 N14         5.2845   53.9806   23.5091 N.am      1 UNK         0.0000 
     15 C15         5.8882   54.5426   24.5788 C.2       1 UNK         0.0000 
     16 O16         6.6917   55.4748   24.5327 O.2       1 UNK         0.0000 
     17 C17         5.5102   53.9230   25.9381 C.3       1 UNK         0.0000 
     18 H18         5.0771   52.9434   25.7411 H         1 UNK         0.0000 
     19 C19         6.7659   53.7340   26.8299 C.3       1 UNK         0.0000 
     20 C20         6.3629   53.1616   28.2075 C.3       1 UNK         0.0000 
     21 C21         5.1332   53.8345   28.8670 C.3       1 UNK         0.0000 
     22 N22         4.0591   54.0360   27.8702 N.pl3     1 UNK         0.0000 
     23 C23         4.4901   54.8049   26.6780 C.3       1 UNK         0.0000 
     24 S24         2.3781   54.1248   28.4305 S.o2      1 UNK         0.0000 
     25 O25         2.3255   53.6518   29.8211 O.2       1 UNK         0.0000 
     26 O26         1.8498   55.4454   28.0844 O.2       1 UNK         0.0000 
     27 C27         1.5028   52.9243   27.4170 C.ar      1 UNK         0.0000 
     28 C28         0.8294   51.8586   28.0168 C.ar      1 UNK         0.0000 
     29 C29         0.1937   50.9127   27.2174 C.ar      1 UNK         0.0000 
     30 C30         0.2580   51.0047   25.8272 C.ar      1 UNK         0.0000 
     31 C31         0.8957   52.0880   25.2271 C.ar      1 UNK         0.0000 
     32 C32         1.5111   53.0459   26.0239 C.ar      1 UNK         0.0000 
     33 C33        -0.3968   49.9399   24.9675 C.3       1 UNK         0.0000 
     34 C34         6.9760   55.6004   18.7380 C.3       1 UNK         0.0000 
     35 H35         8.7058   52.2539   14.9086 H         1 UNK         0.0000 
     36 H36         7.1792   53.0323   14.5057 H         1 UNK         0.0000 
     37 H37         7.4373   52.3678   16.1162 H         1 UNK         0.0000 
     38 H38         9.2500   54.0921   16.5256 H         1 UNK         0.0000 
     39 H39         9.0359   54.7032   14.9100 H         1 UNK         0.0000 
     40 H40         7.8918   56.2153   16.5101 H         1 UNK         0.0000 
     41 H41         6.6697   55.4437   15.5022 H         1 UNK         0.0000 
     42 H42         4.7764   55.3907   17.2566 H         1 UNK         0.0000 
     43 H43         5.1493   53.8981   16.3479 H         1 UNK         0.0000 
     44 H44         3.6535   53.4985   18.4297 H         1 UNK         0.0000 
     45 H45         5.0757   52.4967   18.2556 H         1 UNK         0.0000 
     46 H46         4.2457   51.4781   19.6259 H         1 UNK         0.0000 
     47 H47         2.9282   50.8601   20.5843 H         1 UNK         0.0000 
     48 H48         4.5676   53.2952   23.7030 H         1 UNK         0.0000 
     49 H49         7.4470   52.9926   26.4020 H         1 UNK         0.0000 
     50 H50         7.2648   54.6843   27.0326 H         1 UNK         0.0000 
     51 H51         6.1548   52.0968   28.0841 H         1 UNK         0.0000 
     52 H52         7.2189   53.2441   28.8772 H         1 UNK         0.0000 
     53 H53         4.7462   53.2408   29.6931 H         1 UNK         0.0000 
     54 H54         5.4564   54.8158   29.2204 H         1 UNK         0.0000 
     55 H55         4.9941   55.6967   27.0464 H         1 UNK         0.0000 
     56 H56         3.6277   55.0908   26.0787 H         1 UNK         0.0000 
     57 H57         0.7926   51.7562   29.0920 H         1 UNK         0.0000 
     58 H58        -0.3396   50.0988   27.6812 H         1 UNK         0.0000 
     59 H59         0.9283   52.1808   24.1510 H         1 UNK         0.0000 
     60 H60         2.0032   53.8756   25.5430 H         1 UNK         0.0000 
     61 H61         0.3669   49.3250   24.4863 H         1 UNK         0.0000 
     62 H62        -1.0552   49.2939   25.5524 H         1 UNK         0.0000 
     63 H63        -0.9992   50.4003   24.1836 H         1 UNK         0.0000 
     64 H64         8.0571   55.6976   18.8618 H         1 UNK         0.0000 
     65 H65         6.5344   56.5714   18.5005 H         1 UNK         0.0000 
     66 N66         6.7736   54.6659   17.5226 N.4       1 UNK         0.0000 
     67 H67         7.2206   53.7744   17.6885 H         1 UNK         0.0000 
@<TRIPOS>BOND
     1    1    2 1    
     2    1   35 1    
     3    1   36 1    
     4    1   37 1    
     5    2    3 1    
     6    2   38 1    
     7    2   39 1    
     8    3   40 1    
     9    3   41 1    
    10    3   66 1    
    11    4    5 1    
    12    4   42 1    
    13    4   43 1    
    14    4   66 1    
    15    5    6 1    
    16    5   44 1    
    17    5   45 1    
    18    6   10 1    
    19    6    7 2    
    20    7    8 1    
    21    7   34 1    
    22    8    9 1    
    23    9   10 2    
    24    9   14 am   BACKBONE|DICT|INTERRES
    25   10   11 1    
    26   11   12 2    
    27   11   13 am   BACKBONE|DICT|INTERRES
    28   13   46 1    
    29   13   47 1    
    30   14   15 am   BACKBONE|DICT|INTERRES
    31   14   48 1    
    32   15   16 2    
    33   15   17 1    
    34   17   18 1    
    35   17   23 1    
    36   17   19 1    
    37   19   20 1    
    38   19   49 1    
    39   19   50 1    
    40   20   21 1    
    41   20   51 1    
    42   20   52 1    
    43   21   22 1    
    44   21   53 1    
    45   21   54 1    
    46   22   23 1    
    47   22   24 1    
    48   23   55 1    
    49   23   56 1    
    50   24   25 2    
    51   24   26 2    
    52   24   27 1    
    53   27   32 ar   
    54   27   28 ar   
    55   28   29 ar   
    56   28   57 1    
    57   29   30 ar   
    58   29   58 1    
    59   30   31 ar   
    60   30   33 1    
    61   31   32 ar   
    62   31   59 1    
    63   32   60 1    
    64   33   61 1    
    65   33   62 1    
    66   33   63 1    
    67   34   64 1    
    68   34   65 1    
    69   34   66 1    
    70   66   67 1    
@<TRIPOS>SUBSTRUCTURE
     1 UNK         1 GROUP             0       ****    0 ROOT    
