@<TRIPOS>MOLECULE
ZINC39640366_2927
66   70    1
SMALL
USER_CHARGES


@<TRIPOS>ATOM
      1 C1          6.1869   55.3519   24.1272 C.3       1 UNK         0.0000 
      2 C2          6.8699   54.2589   24.9495 C.3       1 UNK         0.0000 
      3 O3          6.8697   54.5350   26.3536 O.3       1 UNK         0.0000 
      4 C4          5.8088   54.3626   27.2022 C.2       1 UNK         0.0000 
      5 O5          5.9129   54.4967   28.4168 O.2       1 UNK         0.0000 
      6 N6          4.5787   54.0177   26.5476 N.pl3     1 UNK         0.0000 
      7 C7          3.4013   53.6961   27.0973 C.ar      1 UNK         0.0000 
      8 C8          2.3815   53.3489   26.1962 C.ar      1 UNK         0.0000 
      9 C9          1.1788   52.8891   26.6153 C.ar      1 UNK         0.0000 
     10 C10         0.8601   52.7432   28.0303 C.ar      1 UNK         0.0000 
     11 C11        -0.2604   52.1776   28.5478 C.2       1 UNK         0.0000 
     12 C12        -0.3552   52.0867   30.0048 C.2       1 UNK         0.0000 
     13 C13         0.6578   52.5057   30.7937 C.2       1 UNK         0.0000 
     14 O14         0.7044   52.3726   32.1431 O.3       1 UNK         0.0000 
     15 O15         1.7666   53.1190   30.2888 O.3       1 UNK         0.0000 
     16 C16         1.9129   53.1947   28.9353 C.ar      1 UNK         0.0000 
     17 C17         3.1087   53.6433   28.4828 C.ar      1 UNK         0.0000 
     18 C18        -1.3111   51.5182   27.6633 C.3       1 UNK         0.0000 
     19 O19        -0.6981   50.4968   26.8819 O.3       1 UNK         0.0000 
     20 C20        -1.0425   50.2607   25.6092 C.2       1 UNK         0.0000 
     21 O21        -1.9001   50.8771   24.9697 O.2       1 UNK         0.0000 
     22 C22        -0.1961   49.1242   25.0009 C.3       1 UNK         0.0000 
     23 N23        -0.0077   49.2989   23.5522 N.am      1 UNK         0.0000 
     24 C24         0.8120   50.2030   22.9751 C.2       1 UNK         0.0000 
     25 O25         1.5101   50.9638   23.6515 O.2       1 UNK         0.0000 
     26 C26         0.8622   50.2742   21.4184 C.3       1 UNK         0.0000 
     27 C27         2.1529   49.5445   20.9302 C.3       1 UNK         0.0000 
     28 C28         2.2491   49.6211   19.3813 C.3       1 UNK         0.0000 
     29 C29         2.3157   51.1083   18.9459 C.3       1 UNK         0.0000 
     30 C30         1.0338   51.8488   19.4140 C.3       1 UNK         0.0000 
     31 C31         0.9259   51.7702   20.9595 C.3       1 UNK         0.0000 
     32 C32        -0.2090   51.1766   18.7749 C.3       1 UNK         0.0000 
     33 C33        -0.2799   49.6871   19.2040 C.3       1 UNK         0.0000 
     34 C34         1.0045   48.9541   18.7404 C.3       1 UNK         0.0000 
     35 C35        -0.3838   49.5946   20.7490 C.3       1 UNK         0.0000 
     36 H36         6.4253   55.2390   23.0691 H         1 UNK         0.0000 
     37 H37         5.1032   55.2968   24.2217 H         1 UNK         0.0000 
     38 H38         6.5149   56.3450   24.4359 H         1 UNK         0.0000 
     39 H39         7.9040   54.1753   24.6184 H         1 UNK         0.0000 
     40 H40         6.4112   53.2967   24.7450 H         1 UNK         0.0000 
     41 H41         4.6485   53.9834   25.5373 H         1 UNK         0.0000 
     42 H42         2.5607   53.4234   25.1312 H         1 UNK         0.0000 
     43 H43         0.4490   52.6355   25.8616 H         1 UNK         0.0000 
     44 H44        -1.2014   51.5812   30.4524 H         1 UNK         0.0000 
     45 H45         3.8396   53.9348   29.2157 H         1 UNK         0.0000 
     46 H46        -1.8031   52.2801   27.0575 H         1 UNK         0.0000 
     47 H47        -2.0845   51.0534   28.2755 H         1 UNK         0.0000 
     48 H48        -0.6953   48.1750   25.1969 H         1 UNK         0.0000 
     49 H49         0.7718   49.0564   25.5033 H         1 UNK         0.0000 
     50 H50        -0.5486   48.6983   22.9497 H         1 UNK         0.0000 
     51 H51         2.1608   48.5024   21.2504 H         1 UNK         0.0000 
     52 H52         3.0448   49.9961   21.3692 H         1 UNK         0.0000 
     53 H53         3.1410   49.1014   19.0354 H         1 UNK         0.0000 
     54 H54         2.4242   51.1763   17.8615 H         1 UNK         0.0000 
     55 H55         3.2066   51.5848   19.3596 H         1 UNK         0.0000 
     56 H56         1.0848   52.8940   19.1056 H         1 UNK         0.0000 
     57 H57         1.7852   52.2820   21.3996 H         1 UNK         0.0000 
     58 H58         0.0455   52.3189   21.3002 H         1 UNK         0.0000 
     59 H59        -0.1579   51.2533   17.6880 H         1 UNK         0.0000 
     60 H60        -1.1183   51.6994   19.0729 H         1 UNK         0.0000 
     61 H61        -1.1538   49.2191   18.7467 H         1 UNK         0.0000 
     62 H62         0.9593   47.8978   19.0105 H         1 UNK         0.0000 
     63 H63         1.0854   48.9814   17.6522 H         1 UNK         0.0000 
     64 H64        -1.3093   50.0695   21.0824 H         1 UNK         0.0000 
     65 H65        -0.4579   48.5434   21.0326 H         1 UNK         0.0000 
     66 H66        -0.1769   52.0971   32.4810 H         1 UNK         0.0000 
@<TRIPOS>BOND
     1    1    2 1    
     2    1   36 1    
     3    1   37 1    
     4    1   38 1    
     5    2    3 1    
     6    2   39 1    
     7    2   40 1    
     8    3    4 1    
     9    4    5 2    
    10    4    6 1    
    11    6    7 2    
    12    6   41 1    
    13    7   17 ar   
    14    7    8 ar   
    15    8    9 ar   
    16    8   42 1    
    17    9   10 ar   
    18    9   43 1    
    19   10   16 ar   
    20   10   11 2    
    21   11   12 1    
    22   11   18 1    
    23   12   13 2    
    24   12   44 1    
    25   13   14 1    
    26   13   15 1    
    27   14   66 1    
    28   15   16 1    
    29   16   17 ar   
    30   17   45 1    
    31   18   19 1    
    32   18   46 1    
    33   18   47 1    
    34   19   20 1    
    35   20   21 2    
    36   20   22 1    
    37   22   23 1    
    38   22   48 1    
    39   22   49 1    
    40   23   24 am   BACKBONE|DICT|INTERRES
    41   23   50 1    
    42   24   25 2    
    43   24   26 1    
    44   26   31 1    
    45   26   35 1    
    46   26   27 1    
    47   27   28 1    
    48   27   51 1    
    49   27   52 1    
    50   28   34 1    
    51   28   29 1    
    52   28   53 1    
    53   29   30 1    
    54   29   54 1    
    55   29   55 1    
    56   30   31 1    
    57   30   32 1    
    58   30   56 1    
    59   31   57 1    
    60   31   58 1    
    61   32   33 1    
    62   32   59 1    
    63   32   60 1    
    64   33   34 1    
    65   33   35 1    
    66   33   61 1    
    67   34   62 1    
    68   34   63 1    
    69   35   64 1    
    70   35   65 1    
@<TRIPOS>SUBSTRUCTURE
     1 UNK         1 GROUP             0       ****    0 ROOT    
