@<TRIPOS>MOLECULE
ZINC08695948_3149
78   82    1
SMALL
USER_CHARGES


@<TRIPOS>ATOM
      1 C1          0.5166   43.3635   15.7698 C.3       1 UNK         0.0000 
      2 N2         -0.0389   43.8978   17.0129 N.pl3     1 UNK         0.0000 
      3 C3         -1.3814   43.4379   17.3762 C.3       1 UNK         0.0000 
      4 C4          0.4161   45.1552   17.5050 C.ar      1 UNK         0.0000 
      5 C5          1.4536   45.8561   16.8696 C.ar      1 UNK         0.0000 
      6 C6          1.9070   47.0766   17.3621 C.ar      1 UNK         0.0000 
      7 C7          1.3555   47.6244   18.5169 C.ar      1 UNK         0.0000 
      8 C8          0.3023   46.9476   19.1512 C.ar      1 UNK         0.0000 
      9 C9         -0.1512   45.7303   18.6519 C.ar      1 UNK         0.0000 
     10 N10         1.8943   48.8578   18.9435 N.am      1 UNK         0.0000 
     11 C11         1.6702   49.5246   20.1013 C.2       1 UNK         0.0000 
     12 O12         1.0732   49.0086   21.0481 O.2       1 UNK         0.0000 
     13 C13         2.2856   50.9590   20.2977 C.3       1 UNK         0.0000 
     14 C14         2.7910   51.5303   18.9113 C.3       1 UNK         0.0000 
     15 C15         3.3947   52.9523   19.0049 C.3       1 UNK         0.0000 
     16 S16         4.9273   52.9958   19.9877 S.3       1 UNK         0.0000 
     17 C17         4.3392   52.0783   21.4380 C.3       1 UNK         0.0000 
     18 C18         3.6411   50.7553   21.0365 C.3       1 UNK         0.0000 
     19 N19         1.2621   51.8159   21.0070 N.am      1 UNK         0.0000 
     20 C20         0.3287   52.5192   20.1016 C.3       1 UNK         0.0000 
     21 C21        -1.0624   51.9150   19.8554 C.ar      1 UNK         0.0000 
     22 C22        -1.7437   52.2995   18.6957 C.ar      1 UNK         0.0000 
     23 C23        -3.0085   51.7888   18.4180 C.ar      1 UNK         0.0000 
     24 C24        -3.5926   50.8827   19.2978 C.ar      1 UNK         0.0000 
     25 C25        -2.9221   50.4833   20.4509 C.ar      1 UNK         0.0000 
     26 C26        -1.6584   50.9970   20.7304 C.ar      1 UNK         0.0000 
     27 C27         1.0349   52.0081   22.3549 C.2       1 UNK         0.0000 
     28 O28         0.2790   52.8964   22.7571 O.2       1 UNK         0.0000 
     29 C29         1.6791   51.1150   23.4292 C.3       1 UNK         0.0000 
     30 N30         1.0706   51.3048   24.7595 N.pl3     1 UNK         0.0000 
     31 C31         1.4271   52.4808   25.5386 C.3       1 UNK         0.0000 
     32 C32         0.6894   52.2986   26.8424 C.3       1 UNK         0.0000 
     33 H33        -0.2161   52.9063   26.8692 H         1 UNK         0.0000 
     34 N34         0.2830   50.9108   26.7163 N.pl3     1 UNK         0.0000 
     35 C35         0.2444   50.4478   25.4370 C.2       1 UNK         0.0000 
     36 S36        -0.5595   49.1004   24.8822 S.2       1 UNK         0.0000 
     37 C37         1.5839   52.6666   28.0293 C.ar      1 UNK         0.0000 
     38 C38         2.3054   51.7021   28.7449 C.ar      1 UNK         0.0000 
     39 C39         3.2615   52.0978   29.6784 C.ar      1 UNK         0.0000 
     40 C40         3.4698   53.4523   29.9240 C.ar      1 UNK         0.0000 
     41 C41         2.7047   54.4161   29.2716 C.ar      1 UNK         0.0000 
     42 C42         1.7643   54.0223   28.3238 C.ar      1 UNK         0.0000 
     43 H43         0.2264   43.9900   14.9253 H         1 UNK         0.0000 
     44 H44         1.6059   43.3306   15.7975 H         1 UNK         0.0000 
     45 H45         0.1681   42.3498   15.5779 H         1 UNK         0.0000 
     46 H46        -2.1271   44.1663   17.0549 H         1 UNK         0.0000 
     47 H47        -1.6336   42.4850   16.9084 H         1 UNK         0.0000 
     48 H48        -1.4864   43.3204   18.4552 H         1 UNK         0.0000 
     49 H49         1.9341   45.4794   15.9793 H         1 UNK         0.0000 
     50 H50         2.7035   47.5896   16.8417 H         1 UNK         0.0000 
     51 H51        -0.1950   47.3406   20.0228 H         1 UNK         0.0000 
     52 H52        -0.9560   45.2484   19.1826 H         1 UNK         0.0000 
     53 H53         2.5373   49.2856   18.2893 H         1 UNK         0.0000 
     54 H54         3.5039   50.8791   18.4209 H         1 UNK         0.0000 
     55 H55         1.9806   51.5901   18.1863 H         1 UNK         0.0000 
     56 H56         3.6429   53.3279   18.0123 H         1 UNK         0.0000 
     57 H57         2.7054   53.6645   19.4521 H         1 UNK         0.0000 
     58 H58         5.2039   51.8926   22.0799 H         1 UNK         0.0000 
     59 H59         3.6791   52.7591   21.9732 H         1 UNK         0.0000 
     60 H60         3.5043   50.1966   21.9567 H         1 UNK         0.0000 
     61 H61         4.3052   50.1423   20.4330 H         1 UNK         0.0000 
     62 H62         0.3044   53.5171   20.5140 H         1 UNK         0.0000 
     63 H63         0.7319   52.7405   19.1246 H         1 UNK         0.0000 
     64 H64        -1.2937   52.9967   18.0024 H         1 UNK         0.0000 
     65 H65        -3.5288   52.0922   17.5202 H         1 UNK         0.0000 
     66 H66        -4.5727   50.4829   19.0814 H         1 UNK         0.0000 
     67 H67        -3.3790   49.7761   21.1278 H         1 UNK         0.0000 
     68 H68        -1.1585   50.6667   21.6285 H         1 UNK         0.0000 
     69 H69         2.7043   51.4338   23.5390 H         1 UNK         0.0000 
     70 H70         1.6647   50.0645   23.1495 H         1 UNK         0.0000 
     71 H71         1.1447   53.4116   25.0481 H         1 UNK         0.0000 
     72 H72         2.5084   52.4971   25.6807 H         1 UNK         0.0000 
     73 H73        -0.2259   50.4103   27.4344 H         1 UNK         0.0000 
     74 H74         2.1838   50.6509   28.5267 H         1 UNK         0.0000 
     75 H75         3.8708   51.3619   30.1826 H         1 UNK         0.0000 
     76 H76         4.2449   53.7528   30.6158 H         1 UNK         0.0000 
     77 H77         2.8714   55.4663   29.4637 H         1 UNK         0.0000 
     78 H78         1.2155   54.7769   27.7773 H         1 UNK         0.0000 
@<TRIPOS>BOND
     1    1    2 1    
     2    1   43 1    
     3    1   44 1    
     4    1   45 1    
     5    2    3 1    
     6    2    4 1    
     7    3   46 1    
     8    3   47 1    
     9    3   48 1    
    10    4    9 ar   
    11    4    5 ar   
    12    5    6 ar   
    13    5   49 1    
    14    6    7 ar   
    15    6   50 1    
    16    7    8 ar   
    17    7   10 1    
    18    8    9 ar   
    19    8   51 1    
    20    9   52 1    
    21   10   11 am   BACKBONE|DICT|INTERRES
    22   10   53 1    
    23   11   12 2    
    24   11   13 1    
    25   13   18 1    
    26   13   14 1    
    27   13   19 1    
    28   14   15 1    
    29   14   54 1    
    30   14   55 1    
    31   15   16 1    
    32   15   56 1    
    33   15   57 1    
    34   16   17 1    
    35   17   18 1    
    36   17   58 1    
    37   17   59 1    
    38   18   60 1    
    39   18   61 1    
    40   19   20 1    
    41   19   27 am   BACKBONE|DICT|INTERRES
    42   20   21 1    
    43   20   62 1    
    44   20   63 1    
    45   21   26 ar   
    46   21   22 ar   
    47   22   23 ar   
    48   22   64 1    
    49   23   24 ar   
    50   23   65 1    
    51   24   25 ar   
    52   24   66 1    
    53   25   26 ar   
    54   25   67 1    
    55   26   68 1    
    56   27   28 2    
    57   27   29 1    
    58   29   30 1    
    59   29   69 1    
    60   29   70 1    
    61   30   35 1    
    62   30   31 1    
    63   31   32 1    
    64   31   71 1    
    65   31   72 1    
    66   32   33 1    
    67   32   34 1    
    68   32   37 1    
    69   34   35 1    
    70   34   73 1    
    71   35   36 2    
    72   37   42 ar   
    73   37   38 ar   
    74   38   39 ar   
    75   38   74 1    
    76   39   40 ar   
    77   39   75 1    
    78   40   41 ar   
    79   40   76 1    
    80   41   42 ar   
    81   41   77 1    
    82   42   78 1    
@<TRIPOS>SUBSTRUCTURE
     1 UNK         1 GROUP             0       ****    0 ROOT    
