@<TRIPOS>MOLECULE
ZINC33264252_5852
57   59    1
SMALL
USER_CHARGES


@<TRIPOS>ATOM
      1 C1          3.2800   53.4757   22.3257 C.3       1 UNK         0.0000 
      2 C2          4.6302   54.0962   21.9701 C.ar      1 UNK         0.0000 
      3 C3          4.9349   54.2966   20.6189 C.ar      1 UNK         0.0000 
      4 C4          6.1331   54.8967   20.2445 C.ar      1 UNK         0.0000 
      5 C5          7.0422   55.2988   21.2186 C.ar      1 UNK         0.0000 
      6 C6          6.7564   55.0940   22.5676 C.ar      1 UNK         0.0000 
      7 C7          5.5493   54.4957   22.9596 C.ar      1 UNK         0.0000 
      8 N8          5.1876   54.2864   24.3049 N.am      1 UNK         0.0000 
      9 C9          5.7054   54.7835   25.4527 C.2       1 UNK         0.0000 
     10 O10         6.7043   55.5050   25.5164 O.2       1 UNK         0.0000 
     11 C11         4.9538   54.4115   26.7190 C.ar      1 UNK         0.0000 
     12 C12         5.4597   54.7897   27.9652 C.ar      1 UNK         0.0000 
     13 C13         4.7712   54.4956   29.1361 C.ar      1 UNK         0.0000 
     14 C14         3.5975   53.7547   29.0917 C.ar      1 UNK         0.0000 
     15 C15         3.0652   53.3321   27.8693 C.ar      1 UNK         0.0000 
     16 C16         3.7426   53.6961   26.6931 C.ar      1 UNK         0.0000 
     17 C17         1.8222   52.4125   27.8301 C.3       1 UNK         0.0000 
     18 H18         2.2762   51.4312   27.9864 H         1 UNK         0.0000 
     19 C19         0.8118   52.6501   28.9841 C.3       1 UNK         0.0000 
     20 C20        -0.3956   51.7056   28.8858 C.3       1 UNK         0.0000 
     21 C21        -1.0576   51.7122   27.4964 C.3       1 UNK         0.0000 
     22 N22         0.0032   51.3898   26.5185 N.am      1 UNK         0.0000 
     23 C23         1.1035   52.3735   26.4487 C.3       1 UNK         0.0000 
     24 C24        -0.2432   50.5941   25.4412 C.2       1 UNK         0.0000 
     25 O25         0.2736   50.7820   24.3371 O.2       1 UNK         0.0000 
     26 N26        -1.0411   49.5339   25.6818 N.am      1 UNK         0.0000 
     27 C27        -1.5628   48.5975   24.6858 C.3       1 UNK         0.0000 
     28 C28        -0.4686   47.6913   24.0975 C.3       1 UNK         0.0000 
     29 C29        -2.7085   47.7707   25.2875 C.3       1 UNK         0.0000 
     30 H30         2.6714   53.2773   21.4421 H         1 UNK         0.0000 
     31 H31         3.4135   52.5396   22.8667 H         1 UNK         0.0000 
     32 H32         2.7146   54.1509   22.9715 H         1 UNK         0.0000 
     33 H33         4.2348   53.9938   19.8529 H         1 UNK         0.0000 
     34 H34         6.3574   55.0467   19.1980 H         1 UNK         0.0000 
     35 H35         7.9828   55.7493   20.9307 H         1 UNK         0.0000 
     36 H36         7.5028   55.4039   23.2831 H         1 UNK         0.0000 
     37 H37         4.3647   53.7177   24.4142 H         1 UNK         0.0000 
     38 H38         6.3879   55.3374   28.0412 H         1 UNK         0.0000 
     39 H39         5.1661   54.8384   30.0817 H         1 UNK         0.0000 
     40 H40         3.1259   53.4962   30.0278 H         1 UNK         0.0000 
     41 H41         3.3486   53.3748   25.7447 H         1 UNK         0.0000 
     42 H42         0.4664   53.6850   28.9766 H         1 UNK         0.0000 
     43 H43         1.2633   52.4427   29.9527 H         1 UNK         0.0000 
     44 H44        -1.1364   51.9683   29.6419 H         1 UNK         0.0000 
     45 H45        -0.0938   50.6886   29.1288 H         1 UNK         0.0000 
     46 H46        -1.4532   52.7018   27.2687 H         1 UNK         0.0000 
     47 H47        -1.8776   50.9919   27.5012 H         1 UNK         0.0000 
     48 H48         1.8159   52.0712   25.6855 H         1 UNK         0.0000 
     49 H49         0.6969   53.3479   26.1991 H         1 UNK         0.0000 
     50 H50        -1.2962   49.3322   26.6426 H         1 UNK         0.0000 
     51 H51        -1.9854   49.1863   23.8666 H         1 UNK         0.0000 
     52 H52        -0.8954   46.9757   23.3932 H         1 UNK         0.0000 
     53 H53         0.0258   47.1144   24.8815 H         1 UNK         0.0000 
     54 H54         0.2892   48.2609   23.5545 H         1 UNK         0.0000 
     55 H55        -3.0912   47.0516   24.5650 H         1 UNK         0.0000 
     56 H56        -2.3739   47.1986   26.1541 H         1 UNK         0.0000 
     57 H57        -3.5455   48.4035   25.5855 H         1 UNK         0.0000 
@<TRIPOS>BOND
     1    1    2 1    
     2    1   30 1    
     3    1   31 1    
     4    1   32 1    
     5    2    7 ar   
     6    2    3 ar   
     7    3    4 ar   
     8    3   33 1    
     9    4    5 ar   
    10    4   34 1    
    11    5    6 ar   
    12    5   35 1    
    13    6    7 ar   
    14    6   36 1    
    15    7    8 1    
    16    8    9 am   BACKBONE|DICT|INTERRES
    17    8   37 1    
    18    9   10 2    
    19    9   11 1    
    20   11   16 ar   
    21   11   12 ar   
    22   12   13 ar   
    23   12   38 1    
    24   13   14 ar   
    25   13   39 1    
    26   14   15 ar   
    27   14   40 1    
    28   15   16 ar   
    29   15   17 1    
    30   16   41 1    
    31   17   18 1    
    32   17   23 1    
    33   17   19 1    
    34   19   20 1    
    35   19   42 1    
    36   19   43 1    
    37   20   21 1    
    38   20   44 1    
    39   20   45 1    
    40   21   22 1    
    41   21   46 1    
    42   21   47 1    
    43   22   23 1    
    44   22   24 am   BACKBONE|DICT|INTERRES
    45   23   48 1    
    46   23   49 1    
    47   24   25 2    
    48   24   26 am   BACKBONE|DICT|INTERRES
    49   26   27 1    
    50   26   50 1    
    51   27   28 1    
    52   27   29 1    
    53   27   51 1    
    54   28   52 1    
    55   28   53 1    
    56   28   54 1    
    57   29   55 1    
    58   29   56 1    
    59   29   57 1    
@<TRIPOS>SUBSTRUCTURE
     1 UNK         1 GROUP             0       ****    0 ROOT    
