ZINC39767639_3026
                    3D
 Schrodinger Suite 2024-2.
 69 72  0  0  1  0            999 V2000
   -0.6424   44.8706   18.7688 C   0  0  0  0  0  0
   -1.8894   44.7258   19.6232 C   0  0  0  0  0  0
   -2.9181   43.8679   19.2273 C   0  0  0  0  0  0
   -4.0574   43.7329   20.0196 C   0  0  0  0  0  0
   -4.1716   44.4519   21.2060 C   0  0  0  0  0  0
   -3.1491   45.3199   21.6223 C   0  0  0  0  0  0
   -2.0036   45.4413   20.8174 C   0  0  0  0  0  0
   -3.2850   46.0661   22.9303 C   0  0  0  0  0  0
   -4.0987   45.6967   23.7757 O   0  0  0  0  0  0
   -2.4499   47.0998   23.1196 N   0  0  0  0  0  0
   -2.2503   47.8485   24.3664 C   0  0  1  0  0  0
   -3.2322   48.1815   24.7067 H   0  0  0  0  0  0
   -1.5869   47.0107   25.4879 C   0  0  0  0  0  0
   -2.4938   46.2012   26.2155 O   0  0  0  0  0  0
   -1.3880   49.0682   24.0582 C   0  0  0  0  0  0
   -0.2255   49.0229   23.4497 N   0  0  0  0  0  0
    0.2036   50.3330   23.2915 N   0  0  0  0  0  0
   -0.7129   51.1232   23.8036 C   0  0  0  0  0  0
   -1.7270   50.3712   24.3720 N   0  0  0  0  0  0
   -2.8962   50.8298   25.0111 C   0  0  0  0  0  0
   -3.1619   50.4378   26.3286 C   0  0  0  0  0  0
   -4.3181   50.8902   26.9569 C   0  0  0  0  0  0
   -5.1955   51.7293   26.2719 C   0  0  0  0  0  0
   -4.9329   52.1207   24.9588 C   0  0  0  0  0  0
   -3.7774   51.6705   24.3242 C   0  0  0  0  0  0
   -0.6593   52.8944   23.8025 S   0  0  0  0  0  0
    1.0687   53.2211   23.2995 C   0  0  0  0  0  0
    2.0343   53.3728   24.4774 C   0  0  0  0  0  0
    1.7606   52.8988   25.5809 O   0  0  0  0  0  0
    3.1816   54.0066   24.1768 N   0  0  0  0  0  0
    4.3138   54.2113   24.9815 C   0  0  0  0  0  0
    4.2321   54.2961   26.3815 C   0  0  0  0  0  0
    5.3801   54.4738   27.1484 C   0  0  0  0  0  0
    6.6173   54.5703   26.5247 C   0  0  0  0  0  0
    6.7051   54.5129   25.1357 C   0  0  0  0  0  0
    5.5638   54.3443   24.3370 C   0  0  0  0  0  0
    5.6799   54.3233   22.7909 C   0  0  0  0  0  0
    6.9449   55.0117   22.2288 C   0  0  0  0  0  0
    5.5031   52.9168   22.1851 C   0  0  0  0  0  0
   -0.4662   43.9752   18.1730 H   0  0  0  0  0  0
   -0.7346   45.7288   18.1027 H   0  0  0  0  0  0
    0.2402   45.0119   19.3935 H   0  0  0  0  0  0
   -2.8414   43.3161   18.3031 H   0  0  0  0  0  0
   -4.8567   43.0766   19.7110 H   0  0  0  0  0  0
   -5.0648   44.3312   21.8033 H   0  0  0  0  0  0
   -1.1844   46.0845   21.1119 H   0  0  0  0  0  0
   -2.0108   47.4961   22.3034 H   0  0  0  0  0  0
   -0.8158   46.3666   25.0630 H   0  0  0  0  0  0
   -1.0652   47.6633   26.1880 H   0  0  0  0  0  0
   -2.5343   46.5577   27.1112 H   0  0  0  0  0  0
   -2.4859   49.7926   26.8740 H   0  0  0  0  0  0
   -4.5314   50.5884   27.9723 H   0  0  0  0  0  0
   -6.0932   52.0783   26.7628 H   0  0  0  0  0  0
   -5.6243   52.7651   24.4353 H   0  0  0  0  0  0
   -3.5739   51.9736   23.3078 H   0  0  0  0  0  0
    1.0967   54.1504   22.7314 H   0  0  0  0  0  0
    1.4432   52.4537   22.6243 H   0  0  0  0  0  0
    3.3199   54.2420   23.2057 H   0  0  0  0  0  0
    3.2844   54.2330   26.8955 H   0  0  0  0  0  0
    5.3122   54.5320   28.2260 H   0  0  0  0  0  0
    7.5044   54.6922   27.1283 H   0  0  0  0  0  0
    7.6826   54.5971   24.6888 H   0  0  0  0  0  0
    4.8453   54.9012   22.4046 H   0  0  0  0  0  0
    7.0600   56.0182   22.6321 H   0  0  0  0  0  0
    7.8544   54.4576   22.4659 H   0  0  0  0  0  0
    6.8962   55.1018   21.1421 H   0  0  0  0  0  0
    4.5530   52.4718   22.4738 H   0  0  0  0  0  0
    5.5031   52.9573   21.0952 H   0  0  0  0  0  0
    6.3010   52.2393   22.4832 H   0  0  0  0  0  0
  1  2  1  0  0  0
  1 40  1  0  0  0
  1 41  1  0  0  0
  1 42  1  0  0  0
  2  7  2  0  0  0
  2  3  1  0  0  0
  3  4  2  0  0  0
  3 43  1  0  0  0
  4  5  1  0  0  0
  4 44  1  0  0  0
  5  6  2  0  0  0
  5 45  1  0  0  0
  6  7  1  0  0  0
  6  8  1  0  0  0
  7 46  1  0  0  0
  8  9  2  0  0  0
  8 10  1  0  0  0
 10 11  1  0  0  0
 10 47  1  0  0  0
 11 12  1  0  0  0
 11 13  1  0  0  0
 11 15  1  0  0  0
 13 14  1  0  0  0
 13 48  1  0  0  0
 13 49  1  0  0  0
 14 50  1  0  0  0
 15 19  1  0  0  0
 15 16  2  0  0  0
 16 17  1  0  0  0
 17 18  2  0  0  0
 18 19  1  0  0  0
 18 26  1  0  0  0
 19 20  1  0  0  0
 20 25  2  0  0  0
 20 21  1  0  0  0
 21 22  2  0  0  0
 21 51  1  0  0  0
 22 23  1  0  0  0
 22 52  1  0  0  0
 23 24  2  0  0  0
 23 53  1  0  0  0
 24 25  1  0  0  0
 24 54  1  0  0  0
 25 55  1  0  0  0
 26 27  1  0  0  0
 27 28  1  0  0  0
 27 56  1  0  0  0
 27 57  1  0  0  0
 28 29  2  0  0  0
 28 30  1  0  0  0
 30 31  1  0  0  0
 30 58  1  0  0  0
 31 36  2  0  0  0
 31 32  1  0  0  0
 32 33  2  0  0  0
 32 59  1  0  0  0
 33 34  1  0  0  0
 33 60  1  0  0  0
 34 35  2  0  0  0
 34 61  1  0  0  0
 35 36  1  0  0  0
 35 62  1  0  0  0
 36 37  1  0  0  0
 37 38  1  0  0  0
 37 39  1  0  0  0
 37 63  1  0  0  0
 38 64  1  0  0  0
 38 65  1  0  0  0
 38 66  1  0  0  0
 39 67  1  0  0  0
 39 68  1  0  0  0
 39 69  1  0  0  0
M  END
> <i_i_glide_confnum>
164

> <i_i_glide_lignum>
3027

> <i_i_glide_posenum>
365

> <i_i_glide_rotatable_bonds>
13

> <i_m_Source_File_Index>
694

> <b_m_subgroup_collapsed>
0

> <r_i_docking_score>
-5.32332

> <r_i_glide_ecoul>
-5.96695

> <r_i_glide_eff_state_penalty>
0

> <r_i_glide_einternal>
7.17675

> <r_i_glide_emodel>
-67.5004

> <r_i_glide_energy>
-50.4904

> <r_i_glide_erotb>
0.808099

> <r_i_glide_esite>
-0.0752542

> <r_i_glide_evdw>
-44.5234

> <r_i_glide_gscore>
-5.32332

> <r_i_glide_hbond>
-0.0191299

> <r_i_glide_ligand_efficiency>
-0.140087

> <r_i_glide_ligand_efficiency_ln>
-1.14786

> <r_i_glide_ligand_efficiency_sa>
-0.47097

> <r_i_glide_lipo>
-2.51442

> <r_i_glide_metal>
0

> <r_i_glide_rewards>
-0.401405

> <s_i_glide_gridfile>
wee1_glide-grid

> <s_m_Source_File>
wee1_decoys_glide_SP.sdf

> <s_m_Source_Path>
/Users/zhangxujun/Desktop

> <s_m_entry_id>
969

> <s_m_entry_name>
wee1_decoys_glide_SP.694

> <s_m_subgroup_title>
wee1_decoys_glide_SP

> <s_m_subgroupid>
wee1_decoys_glide_SP


$$$$
