ZINC35692832_5647
                    3D
 Schrodinger Suite 2024-2.
 60 63  0  0  1  0            999 V2000
    4.2771   52.0793   30.7290 C   0  0  0  0  0  0
    4.7042   52.4971   29.3117 C   0  0  0  0  0  0
    3.5391   52.5262   28.5207 O   0  0  0  0  0  0
    2.6437   53.5205   28.6185 C   0  0  0  0  0  0
    2.8496   54.6171   29.1460 O   0  0  0  0  0  0
    1.3570   53.0792   28.1134 C   0  0  0  0  0  0
    0.2786   53.0788   28.9432 C   0  0  0  0  0  0
   -0.8956   52.4965   28.6012 N   0  0  0  0  0  0
   -1.0168   51.9051   27.4812 C   0  0  0  0  0  0
   -0.0341   51.7178   26.5181 N   0  0  0  0  0  0
    1.3064   52.3458   26.7304 C   0  0  1  0  0  0
    1.9051   51.4573   26.8808 H   0  0  0  0  0  0
    1.8897   53.1243   25.5159 C   0  0  0  0  0  0
    1.1079   53.4762   24.4038 C   0  0  0  0  0  0
    1.6863   54.0972   23.2951 C   0  0  0  0  0  0
    3.0410   54.4066   23.2814 C   0  0  0  0  0  0
    3.8319   54.0975   24.3822 C   0  0  0  0  0  0
    3.2547   53.4534   25.4766 C   0  0  0  0  0  0
    5.3179   54.4095   24.3694 C   0  0  0  0  0  0
   -0.3858   50.8059   25.5275 C   0  0  0  0  0  0
   -1.7023   50.5260   25.5547 C   0  0  0  0  0  0
   -2.5605   51.2767   26.8888 S   0  0  0  0  0  0
    0.5128   50.2173   24.5421 C   0  0  0  0  0  0
    0.2189   49.9305   23.2607 C   0  0  0  0  0  0
   -0.8599   50.1413   22.5894 O   0  5  0  0  0  0
    1.1606   49.2967   22.4826 N   0  0  0  0  0  0
    1.3864   49.3863   21.0432 C   0  0  0  0  0  0
    2.2714   50.5727   20.6322 C   0  0  2  0  0  0
    3.1780   50.6471   21.2350 H   0  0  0  0  0  0
    1.5593   51.9287   20.4888 C   0  0  0  0  0  0
    1.3681   52.0909   18.9982 C   0  0  0  0  0  0
    2.6024   51.3897   18.4542 C   0  0  0  0  0  0
    2.7042   50.2576   19.3082 O   0  0  0  0  0  0
    0.1833   53.5923   30.3826 C   0  0  0  0  0  0
    5.1045   51.6830   31.2925 H   0  0  0  0  0  0
    3.8602   52.9183   31.2821 H   0  0  0  0  0  0
    3.5218   51.2974   30.7002 H   0  0  0  0  0  0
    5.3785   51.7555   28.8823 H   0  0  0  0  0  0
    5.2270   53.4540   29.2829 H   0  0  0  0  0  0
    0.0528   53.2488   24.3734 H   0  0  0  0  0  0
    1.1045   54.3395   22.4242 H   0  0  0  0  0  0
    3.4693   54.8847   22.4120 H   0  0  0  0  0  0
    3.9152   53.1707   26.2760 H   0  0  0  0  0  0
    5.7224   54.3317   23.3599 H   0  0  0  0  0  0
    5.5029   55.4172   24.7415 H   0  0  0  0  0  0
    5.8747   53.7010   24.9830 H   0  0  0  0  0  0
   -2.2230   49.8606   24.8830 H   0  0  0  0  0  0
    1.5020   49.9526   24.8818 H   0  0  0  0  0  0
    1.9965   49.0180   22.9752 H   0  0  0  0  0  0
    0.4360   49.4180   20.5090 H   0  0  0  0  0  0
    1.8692   48.4539   20.7482 H   0  0  0  0  0  0
    2.2223   52.7251   20.8287 H   0  0  0  0  0  0
    0.6258   51.9980   21.0461 H   0  0  0  0  0  0
    1.3061   53.1349   18.6895 H   0  0  0  0  0  0
    0.4623   51.5815   18.6661 H   0  0  0  0  0  0
    3.5070   51.9945   18.5236 H   0  0  0  0  0  0
    2.5046   51.0840   17.4118 H   0  0  0  0  0  0
    1.1421   53.8496   30.8237 H   0  0  0  0  0  0
   -0.4471   54.4800   30.4181 H   0  0  0  0  0  0
   -0.2620   52.8387   31.0368 H   0  0  0  0  0  0
  1  2  1  0  0  0
  1 35  1  0  0  0
  1 36  1  0  0  0
  1 37  1  0  0  0
  2  3  1  0  0  0
  2 38  1  0  0  0
  2 39  1  0  0  0
  3  4  1  0  0  0
  4  5  2  0  0  0
  4  6  1  0  0  0
  6 11  1  0  0  0
  6  7  2  0  0  0
  7  8  1  0  0  0
  7 34  1  0  0  0
  8  9  2  0  0  0
  9 22  1  0  0  0
  9 10  1  0  0  0
 10 11  1  0  0  0
 10 20  1  0  0  0
 11 12  1  0  0  0
 11 13  1  0  0  0
 13 18  2  0  0  0
 13 14  1  0  0  0
 14 15  2  0  0  0
 14 40  1  0  0  0
 15 16  1  0  0  0
 15 41  1  0  0  0
 16 17  2  0  0  0
 16 42  1  0  0  0
 17 18  1  0  0  0
 17 19  1  0  0  0
 18 43  1  0  0  0
 19 44  1  0  0  0
 19 45  1  0  0  0
 19 46  1  0  0  0
 20 21  2  0  0  0
 20 23  1  0  0  0
 21 22  1  0  0  0
 21 47  1  0  0  0
 23 24  2  0  0  0
 23 48  1  0  0  0
 24 25  1  0  0  0
 24 26  1  0  0  0
 26 27  1  0  0  0
 26 49  1  0  0  0
 27 28  1  0  0  0
 27 50  1  0  0  0
 27 51  1  0  0  0
 28 29  1  0  0  0
 28 33  1  0  0  0
 28 30  1  0  0  0
 30 31  1  0  0  0
 30 52  1  0  0  0
 30 53  1  0  0  0
 31 32  1  0  0  0
 31 54  1  0  0  0
 31 55  1  0  0  0
 32 33  1  0  0  0
 32 56  1  0  0  0
 32 57  1  0  0  0
 34 58  1  0  0  0
 34 59  1  0  0  0
 34 60  1  0  0  0
M  CHG  1  25  -1
M  END
> <i_i_glide_confnum>
78

> <i_i_glide_lignum>
5648

> <i_i_glide_posenum>
196

> <i_i_glide_rotatable_bonds>
8

> <i_m_Source_File_Index>
4057

> <b_m_subgroup_collapsed>
0

> <r_i_docking_score>
-4.38281

> <r_i_glide_ecoul>
-1.11844

> <r_i_glide_eff_state_penalty>
0

> <r_i_glide_einternal>
15.2167

> <r_i_glide_emodel>
-38.5169

> <r_i_glide_energy>
-37.5142

> <r_i_glide_erotb>
0.58314

> <r_i_glide_esite>
-0.0502079

> <r_i_glide_evdw>
-36.3958

> <r_i_glide_gscore>
-4.38281

> <r_i_glide_hbond>
-0.0876655

> <r_i_glide_ligand_efficiency>
-0.136963

> <r_i_glide_ligand_efficiency_ln>
-0.98143

> <r_i_glide_ligand_efficiency_sa>
-0.434829

> <r_i_glide_lipo>
-2.31883

> <r_i_glide_metal>
0

> <r_i_glide_rewards>
-0.521687

> <s_i_glide_gridfile>
wee1_glide-grid

> <s_m_Source_File>
wee1_decoys_glide_SP.sdf

> <s_m_Source_Path>
/Users/zhangxujun/Desktop

> <s_m_entry_id>
4332

> <s_m_entry_name>
wee1_decoys_glide_SP.4057

> <s_m_subgroup_title>
wee1_decoys_glide_SP

> <s_m_subgroupid>
wee1_decoys_glide_SP


$$$$
