@<TRIPOS>MOLECULE
ZINC08854971_4505
52   56    1
SMALL
USER_CHARGES


@<TRIPOS>ATOM
      1 C1          5.1881   54.1207   21.8756 C.ar      1 UNK         0.0000 
      2 C2          5.5048   54.8481   20.7293 C.ar      1 UNK         0.0000 
      3 C3          4.9388   54.4944   19.5050 C.ar      1 UNK         0.0000 
      4 C4          4.0579   53.4155   19.4242 C.ar      1 UNK         0.0000 
      5 C5          3.7404   52.6721   20.5681 C.ar      1 UNK         0.0000 
      6 C6          4.3127   53.0388   21.7932 C.ar      1 UNK         0.0000 
      7 C7          2.7796   51.4861   20.4389 C.3       1 UNK         0.0000 
      8 O8          2.6164   50.7305   21.6469 O.3       1 UNK         0.0000 
      9 C9          1.7320   51.1465   22.6261 C.ar      1 UNK         0.0000 
     10 C10         1.0903   52.3919   22.6315 C.ar      1 UNK         0.0000 
     11 C11         0.2571   52.7418   23.6888 C.ar      1 UNK         0.0000 
     12 C12         0.0603   51.8606   24.7584 C.ar      1 UNK         0.0000 
     13 C13         0.6765   50.6096   24.7437 C.ar      1 UNK         0.0000 
     14 C14         1.5043   50.2608   23.6804 C.ar      1 UNK         0.0000 
     15 C15        -0.8638   52.2622   25.9092 C.3       1 UNK         0.0000 
     16 H16        -1.1330   53.2966   25.7207 H         1 UNK         0.0000 
     17 C17        -0.3104   52.1738   27.3577 C.ar      1 UNK         0.0000 
     18 C18         0.9120   52.4183   28.0802 C.ar      1 UNK         0.0000 
     19 N19         0.7550   52.1133   29.3628 N.2       1 UNK         0.0000 
     20 N20        -0.4965   51.6964   29.5239 N.pl3     1 UNK         0.0000 
     21 H21        -0.8724   51.3732   30.4063 H         1 UNK         0.0000 
     22 C22        -1.1544   51.6965   28.3447 C.ar      1 UNK         0.0000 
     23 O23        -2.4508   51.2693   28.2457 O.3       1 UNK         0.0000 
     24 C24        -2.8944   51.1605   26.9664 C.2       1 UNK         0.0000 
     25 C25        -2.2353   51.5583   25.8503 C.2       1 UNK         0.0000 
     26 C26        -2.8489   51.3919   24.5701 C.1       1 UNK         0.0000 
     27 N27        -3.3492   51.2925   23.5315 N.1       1 UNK         0.0000 
     28 N28        -4.1201   50.5578   27.0213 N.pl3     1 UNK         0.0000 
     29 C29         2.2560   52.9728   27.6232 C.ar      1 UNK         0.0000 
     30 C30         2.2962   53.6377   26.3888 C.ar      1 UNK         0.0000 
     31 C31         3.4745   54.1808   25.8761 C.ar      1 UNK         0.0000 
     32 C32         4.6526   54.0972   26.6069 C.ar      1 UNK         0.0000 
     33 C33         4.6463   53.4631   27.8440 C.ar      1 UNK         0.0000 
     34 C34         3.4735   52.8987   28.3549 C.ar      1 UNK         0.0000 
     35 Cl35        3.6420   52.0918   29.8806 Cl        1 UNK         0.0000 
     36 Cl36        6.1108   54.7817   25.9850 Cl        1 UNK         0.0000 
     37 F37         3.5055   53.1028   18.2298 F         1 UNK         0.0000 
     38 H38         5.6202   54.3949   22.8271 H         1 UNK         0.0000 
     39 H39         6.1850   55.6847   20.7887 H         1 UNK         0.0000 
     40 H40         5.1763   55.0552   18.6141 H         1 UNK         0.0000 
     41 H41         4.0741   52.4969   22.6911 H         1 UNK         0.0000 
     42 H42         3.1943   50.8025   19.6958 H         1 UNK         0.0000 
     43 H43         1.8181   51.8126   20.0376 H         1 UNK         0.0000 
     44 H44         1.2406   53.1056   21.8344 H         1 UNK         0.0000 
     45 H45        -0.2241   53.7081   23.6816 H         1 UNK         0.0000 
     46 H46         0.5180   49.9110   25.5529 H         1 UNK         0.0000 
     47 H47         1.9891   49.2972   23.6781 H         1 UNK         0.0000 
     48 H48        -4.6380   50.3836   26.1735 H         1 UNK         0.0000 
     49 H49        -4.3243   49.9615   27.8101 H         1 UNK         0.0000 
     50 H50         1.3979   53.7745   25.8159 H         1 UNK         0.0000 
     51 H51         3.4657   54.6826   24.9189 H         1 UNK         0.0000 
     52 H52         5.5661   53.3929   28.4074 H         1 UNK         0.0000 
@<TRIPOS>BOND
     1    1    6 ar   
     2    1    2 ar   
     3    1   38 1    
     4    2    3 ar   
     5    2   39 1    
     6    3    4 ar   
     7    3   40 1    
     8    4    5 ar   
     9    4   37 1    
    10    5    6 ar   
    11    5    7 1    
    12    6   41 1    
    13    7    8 1    
    14    7   42 1    
    15    7   43 1    
    16    8    9 1    
    17    9   14 ar   
    18    9   10 ar   
    19   10   11 ar   
    20   10   44 1    
    21   11   12 ar   
    22   11   45 1    
    23   12   13 ar   
    24   12   15 1    
    25   13   14 ar   
    26   13   46 1    
    27   14   47 1    
    28   15   16 1    
    29   15   25 1    
    30   15   17 1    
    31   17   22 ar   
    32   17   18 ar   
    33   18   19 ar   
    34   18   29 1    
    35   19   20 ar   
    36   20   21 1    
    37   20   22 ar   
    38   22   23 1    
    39   23   24 1    
    40   24   25 2    
    41   24   28 1    
    42   25   26 1    
    43   26   27 3    
    44   28   48 1    
    45   28   49 1    
    46   29   34 ar   
    47   29   30 ar   
    48   30   31 ar   
    49   30   50 1    
    50   31   32 ar   
    51   31   51 1    
    52   32   33 ar   
    53   32   36 1    
    54   33   34 ar   
    55   33   52 1    
    56   34   35 1    
@<TRIPOS>SUBSTRUCTURE
     1 UNK         1 GROUP             0       ****    0 ROOT    
