@<TRIPOS>MOLECULE
ZINC12772318_2705
57   60    1
SMALL
USER_CHARGES


@<TRIPOS>ATOM
      1 C1          2.8898   50.7639   22.0813 C.3       1 UNK         0.0000 
      2 C2          1.3438   50.7897   22.1176 C.3       1 UNK         0.0000 
      3 C3          0.8970   49.5385   21.3019 C.3       1 UNK         0.0000 
      4 C4          0.7072   50.9603   23.5796 C.3       1 UNK         0.0000 
      5 C5          1.5047   51.9795   24.5082 C.3       1 UNK         0.0000 
      6 H6          2.5433   51.6948   24.5814 H         1 UNK         0.0000 
      7 C7          0.9421   52.0201   25.9791 C.3       1 UNK         0.0000 
      8 H8          1.1032   51.0367   26.4242 H         1 UNK         0.0000 
      9 N9         -0.5154   52.1621   25.8718 N.pl3     1 UNK         0.0000 
     10 C10        -1.3360   51.8832   24.8255 C.2       1 UNK         0.0000 
     11 S11        -2.9451   52.2766   25.0805 S.2       1 UNK         0.0000 
     12 N12        -0.7626   51.3346   23.6821 N.pl3     1 UNK         0.0000 
     13 C13        -1.5794   50.9722   22.5855 C.ar      1 UNK         0.0000 
     14 C14        -2.3317   49.7866   22.6251 C.ar      1 UNK         0.0000 
     15 C15        -3.1447   49.4337   21.5461 C.ar      1 UNK         0.0000 
     16 C16        -3.2069   50.2619   20.4263 C.ar      1 UNK         0.0000 
     17 C17        -2.4417   51.4388   20.3757 C.ar      1 UNK         0.0000 
     18 C18        -1.6459   51.8016   21.4600 C.ar      1 UNK         0.0000 
     19 O19        -2.5008   52.3094   19.3049 O.3       1 UNK         0.0000 
     20 C20        -3.0226   51.7202   18.1086 C.3       1 UNK         0.0000 
     21 C21        -4.2863   50.8824   18.4220 C.3       1 UNK         0.0000 
     22 O22        -3.9854   49.8471   19.3642 O.3       1 UNK         0.0000 
     23 C23         1.6261   52.9747   26.9870 C.ar      1 UNK         0.0000 
     24 C24         0.9047   53.4805   28.0802 C.ar      1 UNK         0.0000 
     25 C25         1.5089   54.3319   29.0017 C.ar      1 UNK         0.0000 
     26 C26         2.8514   54.6664   28.8543 C.ar      1 UNK         0.0000 
     27 C27         3.5949   54.1443   27.7999 C.ar      1 UNK         0.0000 
     28 C28         2.9859   53.2976   26.8778 C.ar      1 UNK         0.0000 
     29 C29         1.6587   53.3744   23.8815 C.2       1 UNK         0.0000 
     30 O30         0.6937   54.0974   23.6816 O.2       1 UNK         0.0000 
     31 O31         2.9429   53.6694   23.6092 O.3       1 UNK         0.0000 
     32 C32         3.2885   54.8851   22.9900 C.3       1 UNK         0.0000 
     33 O33         0.8767   49.6827   24.1759 O.3       1 UNK         0.0000 
     34 H34         3.2743   50.0923   22.8431 H         1 UNK         0.0000 
     35 H35         3.2793   50.4279   21.1184 H         1 UNK         0.0000 
     36 H36         3.3318   51.7423   22.2280 H         1 UNK         0.0000 
     37 H37         1.0608   51.6649   21.5326 H         1 UNK         0.0000 
     38 H38         1.2277   48.6163   21.7765 H         1 UNK         0.0000 
     39 H39        -0.1716   49.4517   21.1450 H         1 UNK         0.0000 
     40 H40         1.3292   49.5490   20.2995 H         1 UNK         0.0000 
     41 H41        -1.0284   52.4039   26.7062 H         1 UNK         0.0000 
     42 H42        -2.2831   49.1447   23.4938 H         1 UNK         0.0000 
     43 H43        -3.7222   48.5211   21.5761 H         1 UNK         0.0000 
     44 H44        -1.0736   52.7154   21.4251 H         1 UNK         0.0000 
     45 H45        -3.2503   52.5053   17.3875 H         1 UNK         0.0000 
     46 H46        -2.2637   51.0730   17.6663 H         1 UNK         0.0000 
     47 H47        -5.0567   51.5324   18.8388 H         1 UNK         0.0000 
     48 H48        -4.6862   50.4354   17.5116 H         1 UNK         0.0000 
     49 H49        -0.1341   53.2253   28.2260 H         1 UNK         0.0000 
     50 H50         0.9380   54.7279   29.8286 H         1 UNK         0.0000 
     51 H51         3.3217   55.3292   29.5658 H         1 UNK         0.0000 
     52 H52         4.6417   54.3940   27.6990 H         1 UNK         0.0000 
     53 H53         3.5895   52.8971   26.0789 H         1 UNK         0.0000 
     54 H54         4.3451   54.8884   22.7298 H         1 UNK         0.0000 
     55 H55         2.7105   55.0460   22.0816 H         1 UNK         0.0000 
     56 H56         3.0978   55.6948   23.6861 H         1 UNK         0.0000 
     57 H57         1.7968   49.4128   24.0990 H         1 UNK         0.0000 
@<TRIPOS>BOND
     1    1    2 1    
     2    1   34 1    
     3    1   35 1    
     4    1   36 1    
     5    2    3 1    
     6    2    4 1    
     7    2   37 1    
     8    3   38 1    
     9    3   39 1    
    10    3   40 1    
    11    4   12 1    
    12    4    5 1    
    13    4   33 1    
    14    5    6 1    
    15    5    7 1    
    16    5   29 1    
    17    7    8 1    
    18    7    9 1    
    19    7   23 1    
    20    9   10 1    
    21    9   41 1    
    22   10   11 2    
    23   10   12 1    
    24   12   13 1    
    25   13   18 ar   
    26   13   14 ar   
    27   14   15 ar   
    28   14   42 1    
    29   15   16 ar   
    30   15   43 1    
    31   16   22 1    
    32   16   17 ar   
    33   17   18 ar   
    34   17   19 1    
    35   18   44 1    
    36   19   20 1    
    37   20   21 1    
    38   20   45 1    
    39   20   46 1    
    40   21   22 1    
    41   21   47 1    
    42   21   48 1    
    43   23   28 ar   
    44   23   24 ar   
    45   24   25 ar   
    46   24   49 1    
    47   25   26 ar   
    48   25   50 1    
    49   26   27 ar   
    50   26   51 1    
    51   27   28 ar   
    52   27   52 1    
    53   28   53 1    
    54   29   30 2    
    55   29   31 1    
    56   31   32 1    
    57   32   54 1    
    58   32   55 1    
    59   32   56 1    
    60   33   57 1    
@<TRIPOS>SUBSTRUCTURE
     1 UNK         1 GROUP             0       ****    0 ROOT    
