@<TRIPOS>MOLECULE
ZINC48052399_4591
52   54    1
SMALL
USER_CHARGES


@<TRIPOS>ATOM
      1 C1         -1.0028   51.6976   29.6466 C.3       1 UNK         0.0000 
      2 C2         -0.5987   52.4675   28.3849 C.3       1 UNK         0.0000 
      3 H3         -0.8954   53.5039   28.5415 H         1 UNK         0.0000 
      4 C4         -1.3205   51.9302   27.1420 C.ar      1 UNK         0.0000 
      5 C5         -2.2753   52.7030   26.4815 C.ar      1 UNK         0.0000 
      6 C6         -2.9340   52.2101   25.3558 C.ar      1 UNK         0.0000 
      7 C7         -2.6740   50.9149   24.9074 C.ar      1 UNK         0.0000 
      8 C8         -1.7535   50.1052   25.5851 C.ar      1 UNK         0.0000 
      9 C9         -1.0596   50.6400   26.6707 C.ar      1 UNK         0.0000 
     10 N10        -1.5171   48.7561   25.2818 N.pl3     1 UNK         0.0000 
     11 S11        -2.0493   47.8973   23.8288 S.o2      1 UNK         0.0000 
     12 O12        -3.4340   48.2755   23.5334 O.2       1 UNK         0.0000 
     13 O13        -1.6967   46.4884   24.0294 O.2       1 UNK         0.0000 
     14 C14        -0.9141   48.6296   22.5216 C.3       1 UNK         0.0000 
     15 N15         0.8469   52.4313   28.2107 N.am      1 UNK         0.0000 
     16 C16         1.5508   53.4237   27.6626 C.2       1 UNK         0.0000 
     17 O17         1.5419   54.5837   28.0768 O.2       1 UNK         0.0000 
     18 N18         2.2347   52.9606   26.6112 N.am      1 UNK         0.0000 
     19 C19         3.1939   53.6338   25.8500 C.ar      1 UNK         0.0000 
     20 C20         2.9323   53.6930   24.4816 C.ar      1 UNK         0.0000 
     21 C21         3.9209   54.1049   23.6015 C.ar      1 UNK         0.0000 
     22 C22         5.1582   54.4972   24.0981 C.ar      1 UNK         0.0000 
     23 C23         5.4290   54.4988   25.4709 C.ar      1 UNK         0.0000 
     24 C24         4.4461   54.0260   26.3768 C.ar      1 UNK         0.0000 
     25 C25         4.8138   53.7847   27.8528 C.3       1 UNK         0.0000 
     26 C26         6.0909   54.4959   28.3123 C.3       1 UNK         0.0000 
     27 C27         7.2072   54.3661   27.2841 C.3       1 UNK         0.0000 
     28 C28         6.7783   55.0138   25.9605 C.3       1 UNK         0.0000 
     29 H29        -2.0773   51.5112   29.6812 H         1 UNK         0.0000 
     30 H30        -0.5143   50.7291   29.6775 H         1 UNK         0.0000 
     31 H31        -0.7205   52.2262   30.5568 H         1 UNK         0.0000 
     32 H32        -2.5118   53.6864   26.8622 H         1 UNK         0.0000 
     33 H33        -3.6669   52.8202   24.8487 H         1 UNK         0.0000 
     34 H34        -3.2251   50.5571   24.0549 H         1 UNK         0.0000 
     35 H35        -0.3509   50.0248   27.2055 H         1 UNK         0.0000 
     36 H36        -0.9367   48.2355   25.9251 H         1 UNK         0.0000 
     37 H37        -1.0941   48.1176   21.5750 H         1 UNK         0.0000 
     38 H38         0.1183   48.4971   22.8421 H         1 UNK         0.0000 
     39 H39        -1.1316   49.6923   22.4230 H         1 UNK         0.0000 
     40 H40         1.2496   51.5083   28.1969 H         1 UNK         0.0000 
     41 H41         1.8690   52.1205   26.1916 H         1 UNK         0.0000 
     42 H42         1.9828   53.3593   24.0869 H         1 UNK         0.0000 
     43 H43         3.7287   54.1245   22.5388 H         1 UNK         0.0000 
     44 H44         5.9135   54.8360   23.4040 H         1 UNK         0.0000 
     45 H45         4.0113   54.0813   28.5249 H         1 UNK         0.0000 
     46 H46         4.9465   52.7104   27.9875 H         1 UNK         0.0000 
     47 H47         6.4240   54.0967   29.2709 H         1 UNK         0.0000 
     48 H48         5.8981   55.5530   28.4807 H         1 UNK         0.0000 
     49 H49         7.4754   53.3185   27.1350 H         1 UNK         0.0000 
     50 H50         8.0875   54.8654   27.6821 H         1 UNK         0.0000 
     51 H51         7.5375   54.8526   25.1946 H         1 UNK         0.0000 
     52 H52         6.7036   56.0925   26.0898 H         1 UNK         0.0000 
@<TRIPOS>BOND
     1    1    2 1    
     2    1   29 1    
     3    1   30 1    
     4    1   31 1    
     5    2    3 1    
     6    2    4 1    
     7    2   15 1    
     8    4    9 ar   
     9    4    5 ar   
    10    5    6 ar   
    11    5   32 1    
    12    6    7 ar   
    13    6   33 1    
    14    7    8 ar   
    15    7   34 1    
    16    8    9 ar   
    17    8   10 1    
    18    9   35 1    
    19   10   11 1    
    20   10   36 1    
    21   11   12 2    
    22   11   13 2    
    23   11   14 1    
    24   14   37 1    
    25   14   38 1    
    26   14   39 1    
    27   15   16 am   BACKBONE|DICT|INTERRES
    28   15   40 1    
    29   16   17 2    
    30   16   18 am   BACKBONE|DICT|INTERRES
    31   18   19 1    
    32   18   41 1    
    33   19   24 ar   
    34   19   20 ar   
    35   20   21 ar   
    36   20   42 1    
    37   21   22 ar   
    38   21   43 1    
    39   22   23 ar   
    40   22   44 1    
    41   23   28 1    
    42   23   24 ar   
    43   24   25 1    
    44   25   26 1    
    45   25   45 1    
    46   25   46 1    
    47   26   27 1    
    48   26   47 1    
    49   26   48 1    
    50   27   28 1    
    51   27   49 1    
    52   27   50 1    
    53   28   51 1    
    54   28   52 1    
@<TRIPOS>SUBSTRUCTURE
     1 UNK         1 GROUP             0       ****    0 ROOT    
