ZINC36660341_5708
                    3D
 Schrodinger Suite 2024-2.
 67 70  0  0  1  0            999 V2000
    3.0953   54.8707   28.9167 C   0  0  0  0  0  0
    4.3519   54.2813   28.2470 C   0  0  0  0  0  0
    4.3092   54.2439   26.7199 C   0  0  0  0  0  0
    3.1502   53.8165   26.0573 C   0  0  0  0  0  0
    3.0904   53.7382   24.6643 C   0  0  0  0  0  0
    4.2224   54.0974   23.9282 C   0  0  0  0  0  0
    5.4018   54.5247   24.5918 C   0  0  0  0  0  0
    5.4509   54.5984   25.9914 C   0  0  0  0  0  0
    6.6301   54.8948   23.3818 S   0  0  0  0  0  0
    5.4468   54.4966   22.1332 C   0  0  0  0  0  0
    4.2929   54.0681   22.5720 N   0  0  0  0  0  0
    5.7457   54.5683   20.7661 N   0  0  0  0  0  0
    5.2719   53.4337   19.9477 C   0  0  0  0  0  0
    3.8761   53.6271   19.3212 C   0  0  0  0  0  0
    3.5609   52.5131   18.3100 C   0  0  0  0  0  0
    2.1770   52.6995   17.6514 N   0  3  0  0  0  0
    2.0437   54.0161   16.8524 C   0  0  0  0  0  0
    1.8477   51.4733   16.7711 C   0  0  0  0  0  0
    6.2480   55.7212   20.2167 C   0  0  0  0  0  0
    6.5177   56.7220   20.8916 O   0  0  0  0  0  0
    6.4210   55.8616   18.6767 C   0  0  1  0  0  0
    6.4461   54.8813   18.2174 H   0  0  0  0  0  0
    5.3212   56.7605   18.0649 C   0  0  0  0  0  0
    6.0364   57.7738   17.1949 C   0  0  0  0  0  0
    7.3711   57.9732   17.8911 C   0  0  0  0  0  0
    7.6863   56.6054   18.3746 N   0  0  0  0  0  0
    9.0483   55.7249   17.6760 S   0  0  0  0  0  0
   10.1583   56.6674   17.5045 O   0  0  0  0  0  0
    9.2176   54.4962   18.4595 O   0  0  0  0  0  0
    8.4934   55.2441   16.0401 C   0  0  0  0  0  0
    7.8809   54.0010   15.8532 C   0  0  0  0  0  0
    7.4250   53.6408   14.5884 C   0  0  0  0  0  0
    7.5856   54.5212   13.5174 C   0  0  0  0  0  0
    8.2019   55.7565   13.7009 C   0  0  0  0  0  0
    8.6588   56.1219   14.9669 C   0  0  0  0  0  0
    7.1353   54.1706   12.2912 F   0  0  0  0  0  0
    3.2382   54.9536   29.9935 H   0  0  0  0  0  0
    2.2172   54.2437   28.7575 H   0  0  0  0  0  0
    2.8645   55.8668   28.5385 H   0  0  0  0  0  0
    5.2169   54.8635   28.5718 H   0  0  0  0  0  0
    4.5158   53.2646   28.6088 H   0  0  0  0  0  0
    2.2801   53.5227   26.6243 H   0  0  0  0  0  0
    2.1917   53.4051   24.1674 H   0  0  0  0  0  0
    6.3495   54.9238   26.4967 H   0  0  0  0  0  0
    6.0064   53.1939   19.1802 H   0  0  0  0  0  0
    5.2561   52.5277   20.5580 H   0  0  0  0  0  0
    3.1167   53.6292   20.1038 H   0  0  0  0  0  0
    3.8204   54.5998   18.8437 H   0  0  0  0  0  0
    4.2908   52.4685   17.4997 H   0  0  0  0  0  0
    3.5072   51.5396   18.7989 H   0  0  0  0  0  0
    2.8647   54.0615   16.1344 H   0  0  0  0  0  0
    1.0780   54.0044   16.3479 H   0  0  0  0  0  0
    2.0828   54.8438   17.5602 H   0  0  0  0  0  0
    2.6015   51.4003   15.9857 H   0  0  0  0  0  0
    1.8733   50.5867   17.4054 H   0  0  0  0  0  0
    0.8518   51.6148   16.3539 H   0  0  0  0  0  0
    4.6229   56.1859   17.4554 H   0  0  0  0  0  0
    4.7305   57.2785   18.8206 H   0  0  0  0  0  0
    6.1877   57.3747   16.1901 H   0  0  0  0  0  0
    5.4838   58.7096   17.0922 H   0  0  0  0  0  0
    8.1798   58.4391   17.3291 H   0  0  0  0  0  0
    7.2351   58.6307   18.7524 H   0  0  0  0  0  0
    7.7573   53.3167   16.6827 H   0  0  0  0  0  0
    6.9508   52.6830   14.4344 H   0  0  0  0  0  0
    8.3238   56.4282   12.8636 H   0  0  0  0  0  0
    9.1334   57.0842   15.1094 H   0  0  0  0  0  0
    1.5038   52.7259   18.4026 H   0  0  0  0  0  0
  1  2  1  0  0  0
  1 37  1  0  0  0
  1 38  1  0  0  0
  1 39  1  0  0  0
  2  3  1  0  0  0
  2 40  1  0  0  0
  2 41  1  0  0  0
  3  8  2  0  0  0
  3  4  1  0  0  0
  4  5  2  0  0  0
  4 42  1  0  0  0
  5  6  1  0  0  0
  5 43  1  0  0  0
  6 11  1  0  0  0
  6  7  2  0  0  0
  7  8  1  0  0  0
  7  9  1  0  0  0
  8 44  1  0  0  0
  9 10  1  0  0  0
 10 11  2  0  0  0
 10 12  1  0  0  0
 12 13  1  0  0  0
 12 19  1  0  0  0
 13 14  1  0  0  0
 13 45  1  0  0  0
 13 46  1  0  0  0
 14 15  1  0  0  0
 14 47  1  0  0  0
 14 48  1  0  0  0
 15 16  1  0  0  0
 15 49  1  0  0  0
 15 50  1  0  0  0
 16 17  1  0  0  0
 16 18  1  0  0  0
 16 67  1  0  0  0
 17 51  1  0  0  0
 17 52  1  0  0  0
 17 53  1  0  0  0
 18 54  1  0  0  0
 18 55  1  0  0  0
 18 56  1  0  0  0
 19 20  2  0  0  0
 19 21  1  0  0  0
 21 22  1  0  0  0
 21 26  1  0  0  0
 21 23  1  0  0  0
 23 24  1  0  0  0
 23 57  1  0  0  0
 23 58  1  0  0  0
 24 25  1  0  0  0
 24 59  1  0  0  0
 24 60  1  0  0  0
 25 26  1  0  0  0
 25 61  1  0  0  0
 25 62  1  0  0  0
 26 27  1  0  0  0
 27 28  2  0  0  0
 27 29  2  0  0  0
 27 30  1  0  0  0
 30 35  2  0  0  0
 30 31  1  0  0  0
 31 32  2  0  0  0
 31 63  1  0  0  0
 32 33  1  0  0  0
 32 64  1  0  0  0
 33 34  2  0  0  0
 33 36  1  0  0  0
 34 35  1  0  0  0
 34 65  1  0  0  0
 35 66  1  0  0  0
M  CHG  1  16   1
M  END
> <i_i_glide_confnum>
69

> <i_i_glide_lignum>
5709

> <i_i_glide_posenum>
330

> <i_i_glide_rotatable_bonds>
10

> <i_m_Source_File_Index>
2916

> <b_m_subgroup_collapsed>
0

> <r_i_docking_score>
-5.32244

> <r_i_glide_ecoul>
-4.4555

> <r_i_glide_eff_state_penalty>
0

> <r_i_glide_einternal>
5.48281

> <r_i_glide_emodel>
-58.2302

> <r_i_glide_energy>
-43.5626

> <r_i_glide_erotb>
0.608635

> <r_i_glide_esite>
-0.0333915

> <r_i_glide_evdw>
-39.1071

> <r_i_glide_gscore>
-5.32244

> <r_i_glide_hbond>
-0.270626

> <r_i_glide_ligand_efficiency>
-0.15207

> <r_i_glide_ligand_efficiency_ln>
-1.16839

> <r_i_glide_ligand_efficiency_sa>
-0.49743

> <r_i_glide_lipo>
-2.60824

> <r_i_glide_metal>
0

> <r_i_glide_rewards>
-0.395138

> <s_i_glide_gridfile>
wee1_glide-grid

> <s_m_Source_File>
wee1_decoys_glide_SP.sdf

> <s_m_Source_Path>
/Users/zhangxujun/Desktop

> <s_m_entry_id>
3191

> <s_m_entry_name>
wee1_decoys_glide_SP.2916

> <s_m_subgroup_title>
wee1_decoys_glide_SP

> <s_m_subgroupid>
wee1_decoys_glide_SP


$$$$
