@<TRIPOS>MOLECULE
ZINC58890022_2990
60   62    1
SMALL
USER_CHARGES


@<TRIPOS>ATOM
      1 C1         -2.2476   51.1945   19.4769 C.3       1 UNK         0.0000 
      2 C2         -0.7630   50.9009   19.3479 C.ar      1 UNK         0.0000 
      3 C3         -0.2684   50.2704   18.2014 C.ar      1 UNK         0.0000 
      4 C4          1.0985   50.0236   18.0711 C.ar      1 UNK         0.0000 
      5 C5          1.9777   50.4053   19.0829 C.ar      1 UNK         0.0000 
      6 C6          1.4921   51.0364   20.2336 C.ar      1 UNK         0.0000 
      7 C7          0.1216   51.2829   20.3598 C.ar      1 UNK         0.0000 
      8 C8          2.4410   51.4775   21.3313 C.3       1 UNK         0.0000 
      9 O9          2.4044   52.8970   21.4137 O.3       1 UNK         0.0000 
     10 C10         3.3893   53.4609   22.1845 C.ar      1 UNK         0.0000 
     11 C11         4.7177   53.5209   21.7327 C.ar      1 UNK         0.0000 
     12 C12         5.7028   54.0527   22.5642 C.ar      1 UNK         0.0000 
     13 C13         5.4011   54.4965   23.8534 C.ar      1 UNK         0.0000 
     14 C14         4.0598   54.4888   24.2653 C.ar      1 UNK         0.0000 
     15 C15         3.0602   53.9900   23.4326 C.ar      1 UNK         0.0000 
     16 Br16        1.2462   54.0561   24.0052 Br        1 UNK         0.0000 
     17 C17         6.4990   55.0069   24.6975 C.2       1 UNK         0.0000 
     18 N18         6.7124   54.8234   25.9452 N.2       1 UNK         0.0000 
     19 N19         5.8577   53.9983   26.5796 N.am      1 UNK         0.0000 
     20 C20         6.0340   53.5679   27.8386 C.2       1 UNK         0.0000 
     21 O21         7.0774   53.6968   28.4815 O.2       1 UNK         0.0000 
     22 C22         4.8191   52.8718   28.4628 C.3       1 UNK         0.0000 
     23 C23         3.8776   53.8633   29.1850 C.3       1 UNK         0.0000 
     24 C24         2.6754   53.2255   29.9303 C.3       1 UNK         0.0000 
     25 H25         2.2295   54.0306   30.5118 H         1 UNK         0.0000 
     26 C26         1.5022   52.6934   29.0991 C.ar      1 UNK         0.0000 
     27 C27         1.4924   52.7015   27.6964 C.ar      1 UNK         0.0000 
     28 C28         0.4025   52.1794   26.9989 C.ar      1 UNK         0.0000 
     29 C29        -0.6923   51.6795   27.6974 C.ar      1 UNK         0.0000 
     30 C30        -0.7113   51.6967   29.0890 C.ar      1 UNK         0.0000 
     31 C31         0.3847   52.1967   29.7840 C.ar      1 UNK         0.0000 
     32 O32         3.1578   52.2563   30.8497 O.3       1 UNK         0.0000 
     33 O33         5.1045   53.0172   20.5144 O.3       1 UNK         0.0000 
     34 C34         4.6041   53.7138   19.3787 C.3       1 UNK         0.0000 
     35 H35        -2.6605   51.5020   18.5147 H         1 UNK         0.0000 
     36 H36        -2.7854   50.3065   19.8105 H         1 UNK         0.0000 
     37 H37        -2.4334   52.0102   20.1767 H         1 UNK         0.0000 
     38 H38        -0.9398   49.9783   17.4073 H         1 UNK         0.0000 
     39 H39         1.4862   49.5447   17.1831 H         1 UNK         0.0000 
     40 H40         3.0377   50.2219   18.9557 H         1 UNK         0.0000 
     41 H41        -0.2497   51.7806   21.2446 H         1 UNK         0.0000 
     42 H42         3.4467   51.1021   21.1279 H         1 UNK         0.0000 
     43 H43         2.1277   51.0412   22.2811 H         1 UNK         0.0000 
     44 H44         6.7184   54.0958   22.2025 H         1 UNK         0.0000 
     45 H45         3.7731   54.8936   25.2262 H         1 UNK         0.0000 
     46 H46         7.2207   55.5933   24.1351 H         1 UNK         0.0000 
     47 H47         5.0554   53.7161   26.0394 H         1 UNK         0.0000 
     48 H48         5.1701   52.1013   29.1465 H         1 UNK         0.0000 
     49 H49         4.2758   52.3476   27.6818 H         1 UNK         0.0000 
     50 H50         3.5019   54.6106   28.4832 H         1 UNK         0.0000 
     51 H51         4.4601   54.4285   29.9153 H         1 UNK         0.0000 
     52 H52         2.3173   53.0989   27.1253 H         1 UNK         0.0000 
     53 H53         0.4051   52.1555   25.9213 H         1 UNK         0.0000 
     54 H54        -1.5307   51.2576   27.1593 H         1 UNK         0.0000 
     55 H55        -1.5583   51.2912   29.6258 H         1 UNK         0.0000 
     56 H56         0.3668   52.1822   30.8654 H         1 UNK         0.0000 
     57 H57         4.0464   52.4969   31.1232 H         1 UNK         0.0000 
     58 H58         5.0492   53.2904   18.4784 H         1 UNK         0.0000 
     59 H59         3.5224   53.6217   19.2787 H         1 UNK         0.0000 
     60 H60         4.8572   54.7747   19.4096 H         1 UNK         0.0000 
@<TRIPOS>BOND
     1    1    2 1    
     2    1   35 1    
     3    1   36 1    
     4    1   37 1    
     5    2    7 ar   
     6    2    3 ar   
     7    3    4 ar   
     8    3   38 1    
     9    4    5 ar   
    10    4   39 1    
    11    5    6 ar   
    12    5   40 1    
    13    6    7 ar   
    14    6    8 1    
    15    7   41 1    
    16    8    9 1    
    17    8   42 1    
    18    8   43 1    
    19    9   10 1    
    20   10   15 ar   
    21   10   11 ar   
    22   11   12 ar   
    23   11   33 1    
    24   12   13 ar   
    25   12   44 1    
    26   13   14 ar   
    27   13   17 1    
    28   14   15 ar   
    29   14   45 1    
    30   15   16 1    
    31   17   18 2    
    32   17   46 1    
    33   18   19 1    
    34   19   20 am   BACKBONE|DICT|INTERRES
    35   19   47 1    
    36   20   21 2    
    37   20   22 1    
    38   22   23 1    
    39   22   48 1    
    40   22   49 1    
    41   23   24 1    
    42   23   50 1    
    43   23   51 1    
    44   24   25 1    
    45   24   26 1    
    46   24   32 1    
    47   26   31 ar   
    48   26   27 ar   
    49   27   28 ar   
    50   27   52 1    
    51   28   29 ar   
    52   28   53 1    
    53   29   30 ar   
    54   29   54 1    
    55   30   31 ar   
    56   30   55 1    
    57   31   56 1    
    58   32   57 1    
    59   33   34 1    
    60   34   58 1    
    61   34   59 1    
    62   34   60 1    
@<TRIPOS>SUBSTRUCTURE
     1 UNK         1 GROUP             0       ****    0 ROOT    
