@<TRIPOS>MOLECULE
ZINC15497709_674
61   64    1
SMALL
USER_CHARGES


@<TRIPOS>ATOM
      1 C1          5.7323   54.0978   27.5675 C.ar      1 UNK         0.0000 
      2 C2          6.4213   54.1472   26.3598 C.ar      1 UNK         0.0000 
      3 C3          5.7161   54.1639   25.1532 C.ar      1 UNK         0.0000 
      4 C4          4.3181   54.1439   25.1559 C.ar      1 UNK         0.0000 
      5 C5          3.6316   54.0951   26.3675 C.ar      1 UNK         0.0000 
      6 C6          4.3404   54.0719   27.5671 C.ar      1 UNK         0.0000 
      7 F7          3.6717   54.0322   28.7417 F         1 UNK         0.0000 
      8 S8          6.6289   54.2675   23.6129 S.o2      1 UNK         0.0000 
      9 O9          7.7238   53.2967   23.6824 O.2       1 UNK         0.0000 
     10 O10         6.9022   55.6969   23.4414 O.2       1 UNK         0.0000 
     11 N11         5.5299   53.7560   22.3219 N.pl3     1 UNK         0.0000 
     12 C12         5.3460   52.3317   22.0072 C.3       1 UNK         0.0000 
     13 C13         3.8632   52.0682   21.6817 C.3       1 UNK         0.0000 
     14 C14         3.2377   53.0785   20.6702 C.3       1 UNK         0.0000 
     15 C15         3.9043   54.4967   20.7638 C.3       1 UNK         0.0000 
     16 C16         5.3783   54.5899   21.1314 C.3       1 UNK         0.0000 
     17 C17         3.2952   52.5001   19.2323 C.2       1 UNK         0.0000 
     18 O18         3.0878   51.2973   19.0712 O.2       1 UNK         0.0000 
     19 N19         3.4993   53.3606   18.2113 N.am      1 UNK         0.0000 
     20 N20         3.6430   52.8784   16.9196 N.am      1 UNK         0.0000 
     21 C21         4.7551   53.2491   16.2492 C.2       1 UNK         0.0000 
     22 O22         5.6365   53.9901   16.6994 O.2       1 UNK         0.0000 
     23 C23         4.8680   52.6730   14.9345 C.2       1 UNK         0.0000 
     24 C24         4.2504   51.5370   14.4214 C.2       1 UNK         0.0000 
     25 C25         4.7513   51.1162   13.1829 C.2       1 UNK         0.0000 
     26 C26         5.7303   51.9853   12.6945 C.2       1 UNK         0.0000 
     27 S27         6.0458   53.2757   13.8170 S.3       1 UNK         0.0000 
     28 C28         6.5572   51.8329   11.4391 C.3       1 UNK         0.0000 
     29 C29         7.8416   51.0238   11.7068 C.3       1 UNK         0.0000 
     30 C30         7.6669   49.7476   12.5652 C.3       1 UNK         0.0000 
     31 C31         6.6565   48.7044   12.0228 C.3       1 UNK         0.0000 
     32 C32         5.2823   48.6519   12.7352 C.3       1 UNK         0.0000 
     33 C33         4.3207   49.8376   12.4884 C.3       1 UNK         0.0000 
     34 H34         6.2749   54.0889   28.5015 H         1 UNK         0.0000 
     35 H35         7.4995   54.1768   26.3726 H         1 UNK         0.0000 
     36 H36         3.7594   54.1723   24.2319 H         1 UNK         0.0000 
     37 H37         2.5524   54.0782   26.3811 H         1 UNK         0.0000 
     38 H38         5.7717   51.7217   22.7958 H         1 UNK         0.0000 
     39 H39         5.9045   52.0946   21.1044 H         1 UNK         0.0000 
     40 H40         3.2443   52.1154   22.5761 H         1 UNK         0.0000 
     41 H41         3.6744   51.0240   21.4268 H         1 UNK         0.0000 
     42 H42         2.1538   53.0909   20.7934 H         1 UNK         0.0000 
     43 H43         3.6557   55.1277   19.9115 H         1 UNK         0.0000 
     44 H44         3.3177   55.0095   21.5278 H         1 UNK         0.0000 
     45 H45         5.6811   55.6167   21.3333 H         1 UNK         0.0000 
     46 H46         5.9925   54.1983   20.3189 H         1 UNK         0.0000 
     47 H47         3.2883   54.3468   18.2589 H         1 UNK         0.0000 
     48 H48         2.7709   52.6486   16.4694 H         1 UNK         0.0000 
     49 H49         3.5036   50.9670   14.9551 H         1 UNK         0.0000 
     50 H50         6.8213   52.8063   11.0246 H         1 UNK         0.0000 
     51 H51         5.9786   51.3362   10.6606 H         1 UNK         0.0000 
     52 H52         8.5623   51.6717   12.2090 H         1 UNK         0.0000 
     53 H53         8.3051   50.7632   10.7540 H         1 UNK         0.0000 
     54 H54         7.4124   50.0141   13.5918 H         1 UNK         0.0000 
     55 H55         8.6536   49.2951   12.6515 H         1 UNK         0.0000 
     56 H56         7.1011   47.7146   12.1390 H         1 UNK         0.0000 
     57 H57         6.5174   48.8269   10.9478 H         1 UNK         0.0000 
     58 H58         5.4274   48.5122   13.8089 H         1 UNK         0.0000 
     59 H59         4.7780   47.7439   12.3991 H         1 UNK         0.0000 
     60 H60         4.1986   49.9970   11.4169 H         1 UNK         0.0000 
     61 H61         3.3245   49.5555   12.8316 H         1 UNK         0.0000 
@<TRIPOS>BOND
     1    1    6 ar   
     2    1    2 ar   
     3    1   34 1    
     4    2    3 ar   
     5    2   35 1    
     6    3    4 ar   
     7    3    8 1    
     8    4    5 ar   
     9    4   36 1    
    10    5    6 ar   
    11    5   37 1    
    12    6    7 1    
    13    8    9 2    
    14    8   10 2    
    15    8   11 1    
    16   11   16 1    
    17   11   12 1    
    18   12   13 1    
    19   12   38 1    
    20   12   39 1    
    21   13   14 1    
    22   13   40 1    
    23   13   41 1    
    24   14   15 1    
    25   14   17 1    
    26   14   42 1    
    27   15   16 1    
    28   15   43 1    
    29   15   44 1    
    30   16   45 1    
    31   16   46 1    
    32   17   18 2    
    33   17   19 am   BACKBONE|DICT|INTERRES
    34   19   20 1    
    35   19   47 1    
    36   20   21 am   BACKBONE|DICT|INTERRES
    37   20   48 1    
    38   21   22 2    
    39   21   23 1    
    40   23   27 1    
    41   23   24 2    
    42   24   25 1    
    43   24   49 1    
    44   25   33 1    
    45   25   26 2    
    46   26   27 1    
    47   26   28 1    
    48   28   29 1    
    49   28   50 1    
    50   28   51 1    
    51   29   30 1    
    52   29   52 1    
    53   29   53 1    
    54   30   31 1    
    55   30   54 1    
    56   30   55 1    
    57   31   32 1    
    58   31   56 1    
    59   31   57 1    
    60   32   33 1    
    61   32   58 1    
    62   32   59 1    
    63   33   60 1    
    64   33   61 1    
@<TRIPOS>SUBSTRUCTURE
     1 UNK         1 GROUP             0       ****    0 ROOT    
