ZINC09237818_3247
                    3D
 Schrodinger Suite 2024-2.
 50 53  0  0  1  0            999 V2000
    5.5541   53.5410   16.7866 C   0  0  0  0  0  0
    6.2755   54.2765   17.8945 C   0  0  0  0  0  0
    7.4148   54.9070   17.7544 N   0  0  0  0  0  0
    7.7331   55.4589   18.9918 N   0  0  0  0  0  0
    6.7737   55.1400   19.8253 C   0  0  0  0  0  0
    5.8201   54.3808   19.1878 N   0  0  0  0  0  0
    4.6460   53.8490   19.7115 N   0  0  0  0  0  0
    4.8024   53.3767   21.0850 C   0  0  1  0  0  0
    5.6102   52.6445   21.0925 H   0  0  0  0  0  0
    5.2292   54.5652   22.0152 C   0  0  2  0  0  0
    4.4274   55.2967   22.0312 H   0  0  0  0  0  0
    6.7044   55.5593   21.5319 S   0  0  0  0  0  0
    5.4692   54.1456   23.4899 C   0  0  0  0  0  0
    6.5613   53.6970   23.8431 O   0  0  0  0  0  0
    4.4143   54.3024   24.3215 N   0  0  0  0  0  0
    4.3315   54.0542   25.7018 C   0  0  0  0  0  0
    3.0745   53.6997   26.1933 C   0  0  0  0  0  0
    2.9027   53.4269   27.5472 C   0  0  0  0  0  0
    3.9885   53.5138   28.4315 C   0  0  0  0  0  0
    5.2386   53.8935   27.9385 C   0  0  0  0  0  0
    5.4174   54.1600   26.5813 C   0  0  0  0  0  0
    3.9053   53.2431   29.7854 O   0  0  0  0  0  0
    2.6902   52.7191   30.3140 C   0  0  0  0  0  0
    3.5465   52.6083   21.5128 C   0  0  0  0  0  0
    2.4395   53.2477   22.0835 C   0  0  0  0  0  0
    1.3225   52.5147   22.4811 C   0  0  0  0  0  0
    1.2660   51.1271   22.2746 C   0  0  0  0  0  0
    2.3509   50.5003   21.6516 C   0  0  0  0  0  0
    3.4792   51.2329   21.2819 C   0  0  0  0  0  0
    2.3043   48.6324   21.2817 Br  0  0  0  0  0  0
    0.1944   50.3348   22.6435 O   0  0  0  0  0  0
   -0.8971   50.9160   23.3478 C   0  0  0  0  0  0
    6.1157   53.5498   15.8525 H   0  0  0  0  0  0
    5.3854   52.4966   17.0436 H   0  0  0  0  0  0
    4.5802   53.9830   16.5785 H   0  0  0  0  0  0
    4.3987   53.0561   19.1338 H   0  0  0  0  0  0
    3.5365   54.5408   23.8892 H   0  0  0  0  0  0
    2.2259   53.6161   25.5294 H   0  0  0  0  0  0
    1.9197   53.1423   27.8894 H   0  0  0  0  0  0
    6.0782   53.9730   28.6135 H   0  0  0  0  0  0
    6.3960   54.4471   26.2270 H   0  0  0  0  0  0
    2.8232   52.4970   31.3732 H   0  0  0  0  0  0
    2.4040   51.7900   29.8181 H   0  0  0  0  0  0
    1.8730   53.4371   30.2269 H   0  0  0  0  0  0
    2.4260   54.3181   22.2188 H   0  0  0  0  0  0
    0.5004   53.0456   22.9346 H   0  0  0  0  0  0
    4.3018   50.7281   20.7971 H   0  0  0  0  0  0
   -1.6247   50.1400   23.5852 H   0  0  0  0  0  0
   -0.5740   51.3618   24.2900 H   0  0  0  0  0  0
   -1.4050   51.6713   22.7465 H   0  0  0  0  0  0
  1  2  1  0  0  0
  1 33  1  0  0  0
  1 34  1  0  0  0
  1 35  1  0  0  0
  2  6  1  0  0  0
  2  3  2  0  0  0
  3  4  1  0  0  0
  4  5  2  0  0  0
  5 12  1  0  0  0
  5  6  1  0  0  0
  6  7  1  0  0  0
  7  8  1  0  0  0
  7 36  1  0  0  0
  8  9  1  0  0  0
  8 10  1  0  0  0
  8 24  1  0  0  0
 10 11  1  0  0  0
 10 12  1  0  0  0
 10 13  1  0  0  0
 13 14  2  0  0  0
 13 15  1  0  0  0
 15 16  1  0  0  0
 15 37  1  0  0  0
 16 21  2  0  0  0
 16 17  1  0  0  0
 17 18  2  0  0  0
 17 38  1  0  0  0
 18 19  1  0  0  0
 18 39  1  0  0  0
 19 20  2  0  0  0
 19 22  1  0  0  0
 20 21  1  0  0  0
 20 40  1  0  0  0
 21 41  1  0  0  0
 22 23  1  0  0  0
 23 42  1  0  0  0
 23 43  1  0  0  0
 23 44  1  0  0  0
 24 29  2  0  0  0
 24 25  1  0  0  0
 25 26  2  0  0  0
 25 45  1  0  0  0
 26 27  1  0  0  0
 26 46  1  0  0  0
 27 28  2  0  0  0
 27 31  1  0  0  0
 28 29  1  0  0  0
 28 30  1  0  0  0
 29 47  1  0  0  0
 31 32  1  0  0  0
 32 48  1  0  0  0
 32 49  1  0  0  0
 32 50  1  0  0  0
M  END
> <i_i_glide_confnum>
3

> <i_i_glide_lignum>
3248

> <i_i_glide_posenum>
200

> <i_i_glide_rotatable_bonds>
6

> <i_m_Source_File_Index>
5027

> <b_m_subgroup_collapsed>
0

> <r_i_docking_score>
-4.67211

> <r_i_glide_ecoul>
0.65698

> <r_i_glide_eff_state_penalty>
0

> <r_i_glide_einternal>
6.70687

> <r_i_glide_emodel>
-54.0176

> <r_i_glide_energy>
-43.6544

> <r_i_glide_erotb>
0.338509

> <r_i_glide_esite>
-0.0156716

> <r_i_glide_evdw>
-44.3114

> <r_i_glide_gscore>
-4.67211

> <r_i_glide_hbond>
0

> <r_i_glide_ligand_efficiency>
-0.155737

> <r_i_glide_ligand_efficiency_ln>
-1.06155

> <r_i_glide_ligand_efficiency_sa>
-0.483911

> <r_i_glide_lipo>
-2.33527

> <r_i_glide_metal>
0

> <r_i_glide_rewards>
-0.542655

> <s_i_glide_gridfile>
wee1_glide-grid

> <s_m_Source_File>
wee1_decoys_glide_SP.sdf

> <s_m_Source_Path>
/Users/zhangxujun/Desktop

> <s_m_entry_id>
5302

> <s_m_entry_name>
wee1_decoys_glide_SP.5027

> <s_m_subgroup_title>
wee1_decoys_glide_SP

> <s_m_subgroupid>
wee1_decoys_glide_SP


$$$$
