@<TRIPOS>MOLECULE
ZINC08854200_3151
31   32    1
SMALL
USER_CHARGES


@<TRIPOS>ATOM
      1 C1          4.3392   54.0968   22.1079 C.ar      1 UNK         0.0000 
      2 C2          5.5762   54.5020   21.6127 C.ar      1 UNK         0.0000 
      3 C3          6.5618   54.8959   22.5171 C.ar      1 UNK         0.0000 
      4 N4          6.3685   54.8930   23.8597 N.ar      1 UNK         0.0000 
      5 C5          5.1571   54.4933   24.3457 C.ar      1 UNK         0.0000 
      6 C6          4.1164   54.0967   23.4863 C.ar      1 UNK         0.0000 
      7 Br7         2.4015   53.5623   24.1273 Br        1 UNK         0.0000 
      8 N8          4.9025   54.4954   25.7288 N.am      1 UNK         0.0000 
      9 C9          5.7852   54.5129   26.7509 C.2       1 UNK         0.0000 
     10 O10         7.0106   54.4968   26.6280 O.2       1 UNK         0.0000 
     11 C11         5.1719   54.6257   28.1484 C.3       1 UNK         0.0000 
     12 S12         4.7042   53.0324   28.8817 S.3       1 UNK         0.0000 
     13 C13         3.0175   52.9265   28.3956 C.2       1 UNK         0.0000 
     14 N14         2.4072   53.6907   27.5223 N.2       1 UNK         0.0000 
     15 N15         1.1008   53.2963   27.2815 N.2       1 UNK         0.0000 
     16 C16         0.7483   52.2530   27.9985 C.2       1 UNK         0.0000 
     17 S17         1.9932   51.6967   29.0567 S.3       1 UNK         0.0000 
     18 N18        -0.4506   51.5545   27.9895 N.am      1 UNK         0.0000 
     19 C19        -1.4584   51.7029   27.1062 C.2       1 UNK         0.0000 
     20 O20        -1.4507   52.4962   26.1631 O.2       1 UNK         0.0000 
     21 C21        -2.6726   50.7991   27.3359 C.3       1 UNK         0.0000 
     22 Cl22       -4.2171   51.5775   26.8842 Cl        1 UNK         0.0000 
     23 Br23        5.9074   54.5313   19.7398 Br        1 UNK         0.0000 
     24 H24         3.5535   53.7980   21.4278 H         1 UNK         0.0000 
     25 H25         7.5283   55.2259   22.1686 H         1 UNK         0.0000 
     26 H26         3.9260   54.4244   25.9744 H         1 UNK         0.0000 
     27 H27         5.9044   55.0841   28.8104 H         1 UNK         0.0000 
     28 H28         4.3186   55.2967   28.1495 H         1 UNK         0.0000 
     29 H29        -0.5463   50.8052   28.6612 H         1 UNK         0.0000 
     30 H30        -2.5676   49.8922   26.7401 H         1 UNK         0.0000 
     31 H31        -2.7526   50.4968   28.3813 H         1 UNK         0.0000 
@<TRIPOS>BOND
     1    1    6 ar   
     2    1    2 ar   
     3    1   24 1    
     4    2    3 ar   
     5    2   23 1    
     6    3    4 ar   
     7    3   25 1    
     8    4    5 ar   
     9    5    6 ar   
    10    5    8 1    
    11    6    7 1    
    12    8    9 am   BACKBONE|DICT|INTERRES
    13    8   26 1    
    14    9   10 2    
    15    9   11 1    
    16   11   12 1    
    17   11   27 1    
    18   11   28 1    
    19   12   13 1    
    20   13   17 1    
    21   13   14 2    
    22   14   15 1    
    23   15   16 2    
    24   16   17 1    
    25   16   18 am   BACKBONE|DICT|INTERRES
    26   18   19 am   BACKBONE|DICT|INTERRES
    27   18   29 1    
    28   19   20 2    
    29   19   21 1    
    30   21   22 1    
    31   21   30 1    
    32   21   31 1    
@<TRIPOS>SUBSTRUCTURE
     1 UNK         1 GROUP             0       ****    0 ROOT    
