ZINC13402183_3308
                    3D
 Schrodinger Suite 2024-2.
 56 59  0  0  1  0            999 V2000
    6.1817   54.5411   26.0336 C   0  0  0  0  0  0
    6.5331   54.7306   24.7009 C   0  0  0  0  0  0
    5.6141   54.4970   23.6770 C   0  0  0  0  0  0
    4.3092   54.0962   24.0128 C   0  0  0  0  0  0
    3.9544   53.9200   25.3497 C   0  0  0  0  0  0
    4.8931   54.1275   26.3657 C   0  0  0  0  0  0
    4.5800   53.8917   27.7858 C   0  0  0  0  0  0
    3.6707   53.0110   28.2553 C   0  0  0  0  0  0
    3.3738   52.8222   29.7407 C   0  0  0  0  0  0
    3.6143   53.8068   30.4692 O   0  0  0  0  0  0
    6.0934   54.7038   22.3621 N   0  0  0  0  0  0
    5.4613   54.5429   21.1734 C   0  0  0  0  0  0
    4.3016   54.1492   21.0593 O   0  0  0  0  0  0
    6.2711   54.8798   19.8913 C   0  0  0  0  0  0
    5.9572   53.8455   18.7660 C   0  0  0  0  0  0
    6.7202   54.2075   17.4766 C   0  0  0  0  0  0
    6.5208   55.6254   17.0746 N   0  0  0  0  0  0
    6.6642   56.6660   18.1269 C   0  0  0  0  0  0
    5.9017   56.3077   19.4171 C   0  0  0  0  0  0
    5.6728   56.0090   15.5611 S   0  0  0  0  0  0
    6.0008   57.3895   15.1887 O   0  0  0  0  0  0
    5.8788   54.9006   14.6202 O   0  0  0  0  0  0
    3.9270   55.9935   15.9684 C   0  0  0  0  0  0
    3.2239   57.1953   16.1372 C   0  0  0  0  0  0
    1.8509   57.1770   16.3886 C   0  0  0  0  0  0
    1.1848   55.9591   16.4905 C   0  0  0  0  0  0
    1.8918   54.7537   16.3416 C   0  0  0  0  0  0
    3.2562   54.7701   16.0664 C   0  0  0  0  0  0
    1.2654   53.5258   16.3869 O   0  0  0  0  0  0
    0.0025   53.5541   17.0554 C   0  0  0  0  0  0
   -0.8350   54.7565   16.5500 C   0  0  0  0  0  0
   -0.1560   55.9870   16.8171 O   0  0  0  0  0  0
    6.9132   54.7031   26.8125 H   0  0  0  0  0  0
    7.5320   55.0557   24.4726 H   0  0  0  0  0  0
    3.5528   53.9094   23.2687 H   0  0  0  0  0  0
    2.9510   53.6027   25.5924 H   0  0  0  0  0  0
    5.1325   54.4953   28.4951 H   0  0  0  0  0  0
    3.1241   52.3991   27.5562 H   0  0  0  0  0  0
    7.0492   55.0253   22.3295 H   0  0  0  0  0  0
    7.3264   54.8464   20.1680 H   0  0  0  0  0  0
    6.2763   52.8346   19.0251 H   0  0  0  0  0  0
    4.8992   53.8491   18.4927 H   0  0  0  0  0  0
    7.7912   54.0234   17.5605 H   0  0  0  0  0  0
    6.3773   53.5625   16.6668 H   0  0  0  0  0  0
    7.7271   56.8254   18.3068 H   0  0  0  0  0  0
    6.2812   57.6096   17.7352 H   0  0  0  0  0  0
    4.8439   56.3748   19.1560 H   0  0  0  0  0  0
    6.1647   57.0667   20.1543 H   0  0  0  0  0  0
    3.7305   58.1472   16.0518 H   0  0  0  0  0  0
    1.3065   58.1028   16.5038 H   0  0  0  0  0  0
    3.7834   53.8373   15.9180 H   0  0  0  0  0  0
    0.1746   53.6570   18.1293 H   0  0  0  0  0  0
   -0.5206   52.6126   16.8873 H   0  0  0  0  0  0
   -1.8184   54.7753   17.0183 H   0  0  0  0  0  0
   -0.9767   54.6642   15.4705 H   0  0  0  0  0  0
    2.9221   51.6983   30.0418 O   0  5  0  0  0  0
  1  6  2  0  0  0
  1  2  1  0  0  0
  1 33  1  0  0  0
  2  3  2  0  0  0
  2 34  1  0  0  0
  3  4  1  0  0  0
  3 11  1  0  0  0
  4  5  2  0  0  0
  4 35  1  0  0  0
  5  6  1  0  0  0
  5 36  1  0  0  0
  6  7  1  0  0  0
  7  8  2  0  0  0
  7 37  1  0  0  0
  8  9  1  0  0  0
  8 38  1  0  0  0
  9 10  2  0  0  0
  9 56  1  0  0  0
 11 12  1  0  0  0
 11 39  1  0  0  0
 12 13  2  0  0  0
 12 14  1  0  0  0
 14 19  1  0  0  0
 14 15  1  0  0  0
 14 40  1  0  0  0
 15 16  1  0  0  0
 15 41  1  0  0  0
 15 42  1  0  0  0
 16 17  1  0  0  0
 16 43  1  0  0  0
 16 44  1  0  0  0
 17 18  1  0  0  0
 17 20  1  0  0  0
 18 19  1  0  0  0
 18 45  1  0  0  0
 18 46  1  0  0  0
 19 47  1  0  0  0
 19 48  1  0  0  0
 20 21  2  0  0  0
 20 22  2  0  0  0
 20 23  1  0  0  0
 23 28  2  0  0  0
 23 24  1  0  0  0
 24 25  2  0  0  0
 24 49  1  0  0  0
 25 26  1  0  0  0
 25 50  1  0  0  0
 26 32  1  0  0  0
 26 27  2  0  0  0
 27 28  1  0  0  0
 27 29  1  0  0  0
 28 51  1  0  0  0
 29 30  1  0  0  0
 30 31  1  0  0  0
 30 52  1  0  0  0
 30 53  1  0  0  0
 31 32  1  0  0  0
 31 54  1  0  0  0
 31 55  1  0  0  0
M  CHG  1  56  -1
M  END
> <i_i_glide_confnum>
392

> <i_i_glide_lignum>
3309

> <i_i_glide_posenum>
61

> <i_i_glide_rotatable_bonds>
7

> <i_m_Source_File_Index>
244

> <b_m_subgroup_collapsed>
0

> <r_i_docking_score>
-5.61423

> <r_i_glide_ecoul>
-7.54049

> <r_i_glide_eff_state_penalty>
0

> <r_i_glide_einternal>
2.51963

> <r_i_glide_emodel>
-60.3691

> <r_i_glide_energy>
-43.123

> <r_i_glide_erotb>
0.636443

> <r_i_glide_esite>
-0.00363851

> <r_i_glide_evdw>
-35.5825

> <r_i_glide_gscore>
-5.61423

> <r_i_glide_hbond>
-0.32

> <r_i_glide_ligand_efficiency>
-0.170128

> <r_i_glide_ligand_efficiency_ln>
-1.24857

> <r_i_glide_ligand_efficiency_sa>
-0.545692

> <r_i_glide_lipo>
-2.30605

> <r_i_glide_metal>
0

> <r_i_glide_rewards>
-0.710781

> <s_i_glide_gridfile>
wee1_glide-grid

> <s_m_Source_File>
wee1_decoys_glide_SP.sdf

> <s_m_Source_Path>
/Users/zhangxujun/Desktop

> <s_m_entry_id>
519

> <s_m_entry_name>
wee1_decoys_glide_SP.244

> <s_m_subgroup_title>
wee1_decoys_glide_SP

> <s_m_subgroupid>
wee1_decoys_glide_SP


$$$$
