@<TRIPOS>MOLECULE
ZINC20232798_1526
60   63    1
SMALL
USER_CHARGES


@<TRIPOS>ATOM
      1 C1          3.6527   54.0976   24.2066 C.ar      1 UNK         0.0000 
      2 C2          4.9306   54.2581   24.7285 C.ar      1 UNK         0.0000 
      3 N3          5.8122   54.1027   23.7485 N.2       1 UNK         0.0000 
      4 N4          5.1412   53.7967   22.5790 N.2       1 UNK         0.0000 
      5 N5          3.8402   53.8117   22.8818 N.pl3     1 UNK         0.0000 
      6 C6          2.8445   53.4992   21.8683 C.3       1 UNK         0.0000 
      7 C7          2.5270   51.9797   21.8014 C.3       1 UNK         0.0000 
      8 C8          1.7691   51.4284   23.0272 C.3       1 UNK         0.0000 
      9 C9          0.3399   52.0137   23.1307 C.3       1 UNK         0.0000 
     10 N10        -0.3684   51.7105   21.8648 N.am      1 UNK         0.0000 
     11 C11         0.2649   52.2104   20.6226 C.3       1 UNK         0.0000 
     12 C12         1.6938   51.6162   20.5573 C.3       1 UNK         0.0000 
     13 C13        -1.6647   51.2918   21.8319 C.2       1 UNK         0.0000 
     14 O14        -2.3572   51.3984   20.8154 O.2       1 UNK         0.0000 
     15 C15        -2.2894   50.5006   23.0147 C.3       1 UNK         0.0000 
     16 H16        -3.1744   50.0151   22.5963 H         1 UNK         0.0000 
     17 C17        -2.8072   51.4799   24.0955 C.3       1 UNK         0.0000 
     18 C18        -3.3075   50.6979   25.3134 C.3       1 UNK         0.0000 
     19 C19        -2.2654   49.6907   25.8324 C.3       1 UNK         0.0000 
     20 N20        -1.9668   48.7471   24.7317 N.am      1 UNK         0.0000 
     21 C21        -1.3807   49.3289   23.5066 C.3       1 UNK         0.0000 
     22 C22        -2.0733   47.3931   24.8475 C.2       1 UNK         0.0000 
     23 O23        -2.1420   46.6190   23.8950 O.2       1 UNK         0.0000 
     24 N24        -2.0960   46.8983   26.0818 N.am      1 UNK         0.0000 
     25 C25         5.3567   54.5574   26.1565 C.3       1 UNK         0.0000 
     26 C26         4.4489   53.9343   27.2276 C.3       1 UNK         0.0000 
     27 C27         5.3048   53.9032   28.4951 C.3       1 UNK         0.0000 
     28 C28         6.7191   53.5967   27.9978 C.3       1 UNK         0.0000 
     29 C29         6.7775   54.1016   26.5477 C.3       1 UNK         0.0000 
     30 H30         2.6677   54.1373   24.6481 H         1 UNK         0.0000 
     31 H31         3.2220   53.8488   20.9045 H         1 UNK         0.0000 
     32 H32         1.9608   54.0966   22.0818 H         1 UNK         0.0000 
     33 H33         3.4674   51.4339   21.7165 H         1 UNK         0.0000 
     34 H34         2.3034   51.6697   23.9450 H         1 UNK         0.0000 
     35 H35         1.7182   50.3391   22.9886 H         1 UNK         0.0000 
     36 H36         0.3803   53.0969   23.2453 H         1 UNK         0.0000 
     37 H37        -0.1365   51.6040   24.0160 H         1 UNK         0.0000 
     38 H38        -0.2612   51.8996   19.7191 H         1 UNK         0.0000 
     39 H39         0.3087   53.2953   20.6585 H         1 UNK         0.0000 
     40 H40         1.6400   50.5331   20.4296 H         1 UNK         0.0000 
     41 H41         2.1864   51.9967   19.6578 H         1 UNK         0.0000 
     42 H42        -3.6381   52.0773   23.7257 H         1 UNK         0.0000 
     43 H43        -2.0273   52.1362   24.4709 H         1 UNK         0.0000 
     44 H44        -4.2366   50.1768   25.0738 H         1 UNK         0.0000 
     45 H45        -3.5622   51.3948   26.1148 H         1 UNK         0.0000 
     46 H46        -2.6427   49.2080   26.7321 H         1 UNK         0.0000 
     47 H47        -1.3455   50.2064   26.1034 H         1 UNK         0.0000 
     48 H48        -0.3809   49.6509   23.7783 H         1 UNK         0.0000 
     49 H49        -1.3249   48.5970   22.7013 H         1 UNK         0.0000 
     50 H50        -2.1870   45.9092   26.2236 H         1 UNK         0.0000 
     51 H51        -1.9140   47.4851   26.9057 H         1 UNK         0.0000 
     52 H52         5.3022   55.6392   26.2783 H         1 UNK         0.0000 
     53 H53         3.5236   54.4941   27.3612 H         1 UNK         0.0000 
     54 H54         4.1679   52.9153   26.9444 H         1 UNK         0.0000 
     55 H55         5.2846   54.8785   28.9857 H         1 UNK         0.0000 
     56 H56         4.9514   53.1631   29.2166 H         1 UNK         0.0000 
     57 H57         7.4787   54.0719   28.6243 H         1 UNK         0.0000 
     58 H58         6.9068   52.5233   28.0241 H         1 UNK         0.0000 
     59 H59         7.1044   53.2849   25.9058 H         1 UNK         0.0000 
     60 H60         7.5034   54.9017   26.4057 H         1 UNK         0.0000 
@<TRIPOS>BOND
     1    1    5 ar   
     2    1    2 ar   
     3    1   30 1    
     4    2    3 ar   
     5    2   25 1    
     6    3    4 ar   
     7    4    5 ar   
     8    5    6 1    
     9    6    7 1    
    10    6   31 1    
    11    6   32 1    
    12    7   12 1    
    13    7    8 1    
    14    7   33 1    
    15    8    9 1    
    16    8   34 1    
    17    8   35 1    
    18    9   10 1    
    19    9   36 1    
    20    9   37 1    
    21   10   11 1    
    22   10   13 am   BACKBONE|DICT|INTERRES
    23   11   12 1    
    24   11   38 1    
    25   11   39 1    
    26   12   40 1    
    27   12   41 1    
    28   13   14 2    
    29   13   15 1    
    30   15   16 1    
    31   15   21 1    
    32   15   17 1    
    33   17   18 1    
    34   17   42 1    
    35   17   43 1    
    36   18   19 1    
    37   18   44 1    
    38   18   45 1    
    39   19   20 1    
    40   19   46 1    
    41   19   47 1    
    42   20   21 1    
    43   20   22 am   BACKBONE|DICT|INTERRES
    44   21   48 1    
    45   21   49 1    
    46   22   23 2    
    47   22   24 am   BACKBONE|DICT|INTERRES
    48   24   50 1    
    49   24   51 1    
    50   25   29 1    
    51   25   26 1    
    52   25   52 1    
    53   26   27 1    
    54   26   53 1    
    55   26   54 1    
    56   27   28 1    
    57   27   55 1    
    58   27   56 1    
    59   28   29 1    
    60   28   57 1    
    61   28   58 1    
    62   29   59 1    
    63   29   60 1    
@<TRIPOS>SUBSTRUCTURE
     1 UNK         1 GROUP             0       ****    0 ROOT    
