ZINC39243237_2065
                    3D
 Schrodinger Suite 2024-2.
 52 55  0  0  1  0            999 V2000
    1.5130   56.1064   29.8923 C   0  0  0  0  0  0
    0.9919   54.6877   29.7373 C   0  0  0  0  0  0
    0.6335   53.9348   30.8571 C   0  0  0  0  0  0
    0.1593   52.6350   30.7050 C   0  0  0  0  0  0
   -0.0254   52.1001   29.4312 C   0  0  0  0  0  0
    0.3001   52.8547   28.2978 C   0  0  0  0  0  0
    0.8421   54.1346   28.4622 C   0  0  0  0  0  0
    0.0185   52.3016   26.9053 C   0  0  0  0  0  0
    1.2057   52.3108   26.1133 O   0  0  0  0  0  0
    1.0767   51.8736   24.8079 C   0  0  0  0  0  0
    0.7047   50.5506   24.5026 C   0  0  0  0  0  0
    0.6333   50.1438   23.1589 C   0  0  0  0  0  0
    0.9034   51.0453   22.1267 C   0  0  0  0  0  0
    1.2541   52.3567   22.4427 C   0  0  0  0  0  0
    1.3643   52.7581   23.7659 C   0  0  0  0  0  0
    1.9638   54.5240   24.0930 Br  0  0  0  0  0  0
    0.8178   50.6194   20.6616 C   0  0  2  0  0  0
    0.8839   49.5298   20.6395 H   0  0  0  0  0  0
    1.9703   51.1364   19.7825 C   0  0  0  0  0  0
    1.7718   51.5925   18.5235 C   0  0  0  0  0  0
    0.5750   51.6777   17.8711 O   0  0  0  0  0  0
   -0.5273   50.9967   18.4940 C   0  0  1  0  0  0
   -0.5209   49.9746   18.1131 H   0  0  0  0  0  0
   -0.4795   51.0584   19.9899 C   0  0  0  0  0  0
   -1.6652   51.5570   20.3656 C   0  0  0  0  0  0
   -2.4047   51.8734   19.2747 N   0  0  0  0  0  0
   -1.7915   51.5973   18.1920 N   0  0  0  0  0  0
   -2.2887   51.8268   21.7214 C   0  0  0  0  0  0
    2.7326   52.0842   17.6824 N   0  0  0  0  0  0
    3.2760   51.2105   20.3617 C   0  0  0  0  0  0
    4.3050   51.3170   20.8815 N   0  0  0  0  0  0
    0.4662   49.7009   25.5592 O   0  0  0  0  0  0
   -0.1882   48.4672   25.3362 C   0  0  0  0  0  0
    0.7192   56.8264   29.6895 H   0  0  0  0  0  0
    1.9039   56.2885   30.8925 H   0  0  0  0  0  0
    2.3298   56.2947   29.1936 H   0  0  0  0  0  0
    0.7050   54.3513   31.8531 H   0  0  0  0  0  0
   -0.0955   52.0537   31.5809 H   0  0  0  0  0  0
   -0.4411   51.1063   29.3319 H   0  0  0  0  0  0
    1.1051   54.7176   27.5929 H   0  0  0  0  0  0
   -0.3976   51.3013   27.0105 H   0  0  0  0  0  0
   -0.7645   52.8960   26.4335 H   0  0  0  0  0  0
    0.3748   49.1253   22.9087 H   0  0  0  0  0  0
    1.4757   53.0675   21.6582 H   0  0  0  0  0  0
   -2.3818   52.8965   21.9071 H   0  0  0  0  0  0
   -3.2764   51.3663   21.7807 H   0  0  0  0  0  0
   -1.6996   51.4046   22.5310 H   0  0  0  0  0  0
    3.7035   51.8794   17.8955 H   0  0  0  0  0  0
    2.5221   52.1723   16.6992 H   0  0  0  0  0  0
   -1.0881   48.5753   24.7269 H   0  0  0  0  0  0
    0.4785   47.7371   24.8766 H   0  0  0  0  0  0
   -0.4963   48.0923   26.3093 H   0  0  0  0  0  0
  1  2  1  0  0  0
  1 34  1  0  0  0
  1 35  1  0  0  0
  1 36  1  0  0  0
  2  7  2  0  0  0
  2  3  1  0  0  0
  3  4  2  0  0  0
  3 37  1  0  0  0
  4  5  1  0  0  0
  4 38  1  0  0  0
  5  6  2  0  0  0
  5 39  1  0  0  0
  6  7  1  0  0  0
  6  8  1  0  0  0
  7 40  1  0  0  0
  8  9  1  0  0  0
  8 41  1  0  0  0
  8 42  1  0  0  0
  9 10  1  0  0  0
 10 15  2  0  0  0
 10 11  1  0  0  0
 11 12  2  0  0  0
 11 32  1  0  0  0
 12 13  1  0  0  0
 12 43  1  0  0  0
 13 14  2  0  0  0
 13 17  1  0  0  0
 14 15  1  0  0  0
 14 44  1  0  0  0
 15 16  1  0  0  0
 17 18  1  0  0  0
 17 24  1  0  0  0
 17 19  1  0  0  0
 19 20  2  0  0  0
 19 30  1  0  0  0
 20 21  1  0  0  0
 20 29  1  0  0  0
 21 22  1  0  0  0
 22 23  1  0  0  0
 22 27  1  0  0  0
 22 24  1  0  0  0
 24 25  2  0  0  0
 25 26  1  0  0  0
 25 28  1  0  0  0
 26 27  2  0  0  0
 28 45  1  0  0  0
 28 46  1  0  0  0
 28 47  1  0  0  0
 29 48  1  0  0  0
 29 49  1  0  0  0
 30 31  3  0  0  0
 32 33  1  0  0  0
 33 50  1  0  0  0
 33 51  1  0  0  0
 33 52  1  0  0  0
M  END
> <i_i_glide_confnum>
15

> <i_i_glide_lignum>
2066

> <i_i_glide_posenum>
271

> <i_i_glide_rotatable_bonds>
6

> <i_m_Source_File_Index>
400

> <b_m_subgroup_collapsed>
0

> <r_i_docking_score>
-4.47506

> <r_i_glide_ecoul>
-6.07857

> <r_i_glide_eff_state_penalty>
0

> <r_i_glide_einternal>
5.33994

> <r_i_glide_emodel>
-53.6341

> <r_i_glide_energy>
-43.5091

> <r_i_glide_erotb>
0.35022

> <r_i_glide_esite>
-0.162673

> <r_i_glide_evdw>
-37.4305

> <r_i_glide_gscore>
-4.47506

> <r_i_glide_hbond>
-0.0622511

> <r_i_glide_ligand_efficiency>
-0.144357

> <r_i_glide_ligand_efficiency_ln>
-1.00926

> <r_i_glide_ligand_efficiency_sa>
-0.45348

> <r_i_glide_lipo>
-1.68983

> <r_i_glide_metal>
0

> <r_i_glide_rewards>
-0.127215

> <s_i_glide_gridfile>
wee1_glide-grid

> <s_m_Source_File>
wee1_decoys_glide_SP.sdf

> <s_m_Source_Path>
/Users/zhangxujun/Desktop

> <s_m_entry_id>
675

> <s_m_entry_name>
wee1_decoys_glide_SP.400

> <s_m_subgroup_title>
wee1_decoys_glide_SP

> <s_m_subgroupid>
wee1_decoys_glide_SP


$$$$
