ZINC54430854_2567
                    3D
 Schrodinger Suite 2024-2.
 47 48  0  0  1  0            999 V2000
    4.8614   54.3342   20.1921 C   0  0  0  0  0  0
    5.0676   54.3993   21.7017 C   0  0  0  0  0  0
    6.2986   54.8486   22.1943 C   0  0  0  0  0  0
    6.5416   54.8933   23.5651 C   0  0  0  0  0  0
    5.5598   54.5004   24.4785 C   0  0  0  0  0  0
    4.3105   54.0971   23.9848 C   0  0  0  0  0  0
    4.0570   54.0114   22.6038 C   0  0  0  0  0  0
    2.8240   53.5579   22.0833 N   0  0  0  0  0  0
    1.9143   52.7496   22.6703 C   0  0  0  0  0  0
    2.0221   52.2566   23.7936 O   0  0  0  0  0  0
    0.8730   52.4972   21.8550 N   0  0  0  0  0  0
   -0.1151   51.4164   22.0203 C   0  0  1  0  0  0
   -0.7812   51.5355   21.1647 H   0  0  0  0  0  0
    0.5320   50.0206   21.8723 C   0  0  0  0  0  0
   -0.9825   51.5610   23.2764 C   0  0  0  0  0  0
   -1.2365   52.6802   24.0666 C   0  0  0  0  0  0
   -2.0751   52.4532   25.1594 C   0  0  0  0  0  0
   -2.5168   51.1442   25.2692 C   0  0  0  0  0  0
   -1.8811   50.2186   23.9436 S   0  0  0  0  0  0
   -3.3989   50.5104   26.3177 C   0  0  0  0  0  0
    5.8471   54.5402   25.9592 C   0  0  0  0  0  0
    6.7060   55.2976   26.4125 O   0  0  0  0  0  0
    5.1365   53.6968   26.7281 N   0  0  0  0  0  0
    5.1976   53.5976   28.1905 C   0  0  0  0  0  0
    3.8124   53.7278   28.8561 C   0  0  0  0  0  0
    2.9891   52.7619   28.4479 F   0  0  0  0  0  0
    3.2362   54.8961   28.5692 F   0  0  0  0  0  0
    3.9034   53.6431   30.1821 F   0  0  0  0  0  0
    5.7062   54.7474   19.6393 H   0  0  0  0  0  0
    4.7140   53.3005   19.8745 H   0  0  0  0  0  0
    3.9695   54.8957   19.9036 H   0  0  0  0  0  0
    7.0811   55.1541   21.5155 H   0  0  0  0  0  0
    7.5019   55.2368   23.9127 H   0  0  0  0  0  0
    3.5304   53.8436   24.6836 H   0  0  0  0  0  0
    2.6463   53.8178   21.1213 H   0  0  0  0  0  0
    0.7514   53.0970   21.0512 H   0  0  0  0  0  0
   -0.2196   49.2388   21.7563 H   0  0  0  0  0  0
    1.1795   49.9747   20.9949 H   0  0  0  0  0  0
    1.1434   49.7691   22.7418 H   0  0  0  0  0  0
   -0.7971   53.6473   23.8647 H   0  0  0  0  0  0
   -2.3440   53.2236   25.8680 H   0  0  0  0  0  0
   -2.8778   49.7069   26.8440 H   0  0  0  0  0  0
   -3.7184   51.2284   27.0738 H   0  0  0  0  0  0
   -4.2993   50.0767   25.8795 H   0  0  0  0  0  0
    4.5944   52.9863   26.2550 H   0  0  0  0  0  0
    5.8685   54.3477   28.6198 H   0  0  0  0  0  0
    5.6330   52.6312   28.4518 H   0  0  0  0  0  0
  1  2  1  0  0  0
  1 29  1  0  0  0
  1 30  1  0  0  0
  1 31  1  0  0  0
  2  7  2  0  0  0
  2  3  1  0  0  0
  3  4  2  0  0  0
  3 32  1  0  0  0
  4  5  1  0  0  0
  4 33  1  0  0  0
  5  6  2  0  0  0
  5 21  1  0  0  0
  6  7  1  0  0  0
  6 34  1  0  0  0
  7  8  1  0  0  0
  8  9  1  0  0  0
  8 35  1  0  0  0
  9 10  2  0  0  0
  9 11  1  0  0  0
 11 12  1  0  0  0
 11 36  1  0  0  0
 12 13  1  0  0  0
 12 14  1  0  0  0
 12 15  1  0  0  0
 14 37  1  0  0  0
 14 38  1  0  0  0
 14 39  1  0  0  0
 15 19  1  0  0  0
 15 16  2  0  0  0
 16 17  1  0  0  0
 16 40  1  0  0  0
 17 18  2  0  0  0
 17 41  1  0  0  0
 18 19  1  0  0  0
 18 20  1  0  0  0
 20 42  1  0  0  0
 20 43  1  0  0  0
 20 44  1  0  0  0
 21 22  2  0  0  0
 21 23  1  0  0  0
 23 24  1  0  0  0
 23 45  1  0  0  0
 24 25  1  0  0  0
 24 46  1  0  0  0
 24 47  1  0  0  0
 25 26  1  0  0  0
 25 27  1  0  0  0
 25 28  1  0  0  0
M  END
> <i_i_glide_confnum>
209

> <i_i_glide_lignum>
2568

> <i_i_glide_posenum>
316

> <i_i_glide_rotatable_bonds>
9

> <i_m_Source_File_Index>
4117

> <b_m_subgroup_collapsed>
0

> <r_i_docking_score>
-6.66057

> <r_i_glide_ecoul>
-7.05518

> <r_i_glide_eff_state_penalty>
0

> <r_i_glide_einternal>
1.8356

> <r_i_glide_emodel>
-63.7813

> <r_i_glide_energy>
-44.5521

> <r_i_glide_erotb>
0.982512

> <r_i_glide_esite>
-0.0267971

> <r_i_glide_evdw>
-37.4969

> <r_i_glide_gscore>
-6.66057

> <r_i_glide_hbond>
-0.490103

> <r_i_glide_ligand_efficiency>
-0.246688

> <r_i_glide_ligand_efficiency_ln>
-1.55047

> <r_i_glide_ligand_efficiency_sa>
-0.740063

> <r_i_glide_lipo>
-2.2153

> <r_i_glide_metal>
0

> <r_i_glide_rewards>
-1.97776

> <s_i_glide_gridfile>
wee1_glide-grid

> <s_m_Source_File>
wee1_decoys_glide_SP.sdf

> <s_m_Source_Path>
/Users/zhangxujun/Desktop

> <s_m_entry_id>
4392

> <s_m_entry_name>
wee1_decoys_glide_SP.4117

> <s_m_subgroup_title>
wee1_decoys_glide_SP

> <s_m_subgroupid>
wee1_decoys_glide_SP


$$$$
