@<TRIPOS>MOLECULE
ZINC59293490_3549
64   68    1
SMALL
USER_CHARGES


@<TRIPOS>ATOM
      1 C1          4.3954   53.8622   28.9591 C.3       1 UNK         0.0000 
      2 C2          4.7727   54.0969   27.5087 C.ar      1 UNK         0.0000 
      3 C3          3.7790   54.2386   26.5365 C.ar      1 UNK         0.0000 
      4 C4          4.1321   54.4816   25.2116 C.ar      1 UNK         0.0000 
      5 C5          5.4793   54.5809   24.8482 C.ar      1 UNK         0.0000 
      6 C6          6.4632   54.4335   25.8274 C.ar      1 UNK         0.0000 
      7 C7          6.1172   54.1959   27.1527 C.ar      1 UNK         0.0000 
      8 C8          5.9164   54.8751   23.4667 C.2       1 UNK         0.0000 
      9 C9          5.3543   54.4961   22.2913 C.2       1 UNK         0.0000 
     10 C10         5.9045   54.9566   21.0366 C.2       1 UNK         0.0000 
     11 O11         6.8780   55.7197   20.9649 O.2       1 UNK         0.0000 
     12 N12         5.2075   54.4473   19.9663 N.am      1 UNK         0.0000 
     13 C13         4.1871   53.5637   20.2423 C.2       1 UNK         0.0000 
     14 C14         3.4773   52.8844   19.2950 C.2       1 UNK         0.0000 
     15 C15         3.7932   53.0063   17.7844 C.3       1 UNK         0.0000 
     16 H16         4.3014   52.0982   17.4519 H         1 UNK         0.0000 
     17 C17         4.8372   54.1137   17.5785 C.2       1 UNK         0.0000 
     18 C18         5.4611   54.7345   18.6133 C.2       1 UNK         0.0000 
     19 N19         6.3840   55.7276   18.3303 N.pl3     1 UNK         0.0000 
     20 C20         5.1356   54.4750   16.2242 C.1       1 UNK         0.0000 
     21 N21         5.3932   54.7916   15.1419 N.1       1 UNK         0.0000 
     22 C22         2.5542   53.1642   16.8914 C.ar      1 UNK         0.0000 
     23 C23         1.8426   54.3689   16.8812 C.ar      1 UNK         0.0000 
     24 C24         0.7138   54.5081   16.0802 C.ar      1 UNK         0.0000 
     25 C25         0.2858   53.4383   15.2902 C.ar      1 UNK         0.0000 
     26 C26         0.9943   52.2350   15.2969 C.ar      1 UNK         0.0000 
     27 C27         2.1252   52.0966   16.0962 C.ar      1 UNK         0.0000 
     28 C28        -0.9381   53.5923   14.4069 C.3       1 UNK         0.0000 
     29 C29         2.4241   51.9547   19.6646 C.2       1 UNK         0.0000 
     30 O30         1.3754   52.3145   20.2019 O.2       1 UNK         0.0000 
     31 N31         2.7047   50.6749   19.3591 N.am      1 UNK         0.0000 
     32 C32         1.8186   49.5207   19.5338 C.3       1 UNK         0.0000 
     33 C33         1.1142   49.3895   20.8862 C.ar      1 UNK         0.0000 
     34 C34         1.7824   49.6968   22.0786 C.ar      1 UNK         0.0000 
     35 C35         1.1016   49.6437   23.2918 C.ar      1 UNK         0.0000 
     36 C36        -0.2391   49.2652   23.3186 C.ar      1 UNK         0.0000 
     37 C37        -0.9109   48.9503   22.1376 C.ar      1 UNK         0.0000 
     38 C38        -0.2348   49.0175   20.9215 C.ar      1 UNK         0.0000 
     39 S39         3.9614   53.4670   21.9990 S.3       1 UNK         0.0000 
     40 H40         4.9956   54.4991   29.6120 H         1 UNK         0.0000 
     41 H41         3.3490   54.1076   29.1526 H         1 UNK         0.0000 
     42 H42         4.5797   52.8228   29.2386 H         1 UNK         0.0000 
     43 H43         2.7353   54.1726   26.8060 H         1 UNK         0.0000 
     44 H44         3.3508   54.6161   24.4794 H         1 UNK         0.0000 
     45 H45         7.5044   54.4989   25.5551 H         1 UNK         0.0000 
     46 H46         6.8902   54.0900   27.8997 H         1 UNK         0.0000 
     47 H47         6.7976   55.5055   23.4289 H         1 UNK         0.0000 
     48 H48         6.6067   55.9897   17.3802 H         1 UNK         0.0000 
     49 H49         6.9066   56.1655   19.0792 H         1 UNK         0.0000 
     50 H50         2.1616   55.1930   17.5025 H         1 UNK         0.0000 
     51 H51         0.1742   55.4436   16.0760 H         1 UNK         0.0000 
     52 H52         0.6732   51.4061   14.6836 H         1 UNK         0.0000 
     53 H53         2.6623   51.1589   16.1006 H         1 UNK         0.0000 
     54 H54        -1.0456   54.6236   14.0674 H         1 UNK         0.0000 
     55 H55        -0.8527   52.9779   13.5100 H         1 UNK         0.0000 
     56 H56        -1.8394   53.3041   14.9470 H         1 UNK         0.0000 
     57 H57         3.5787   50.4979   18.8645 H         1 UNK         0.0000 
     58 H58         2.4190   48.6226   19.3767 H         1 UNK         0.0000 
     59 H59         1.0920   49.5377   18.7202 H         1 UNK         0.0000 
     60 H60         2.8212   49.9935   22.0618 H         1 UNK         0.0000 
     61 H61         1.6141   49.8824   24.2123 H         1 UNK         0.0000 
     62 H62        -0.7627   49.2176   24.2631 H         1 UNK         0.0000 
     63 H63        -1.9521   48.6626   22.1656 H         1 UNK         0.0000 
     64 H64        -0.7642   48.7893   20.0060 H         1 UNK         0.0000 
@<TRIPOS>BOND
     1    1    2 1    
     2    1   40 1    
     3    1   41 1    
     4    1   42 1    
     5    2    7 ar   
     6    2    3 ar   
     7    3    4 ar   
     8    3   43 1    
     9    4    5 ar   
    10    4   44 1    
    11    5    6 ar   
    12    5    8 1    
    13    6    7 ar   
    14    6   45 1    
    15    7   46 1    
    16    8    9 2    
    17    8   47 1    
    18    9   39 1    
    19    9   10 1    
    20   10   11 2    
    21   10   12 am   BACKBONE|DICT|INTERRES
    22   12   18 1    
    23   12   13 am   BACKBONE|DICT|INTERRES
    24   13   14 2    
    25   13   39 1    
    26   14   15 1    
    27   14   29 1    
    28   15   16 1    
    29   15   17 1    
    30   15   22 1    
    31   17   18 2    
    32   17   20 1    
    33   18   19 1    
    34   19   48 1    
    35   19   49 1    
    36   20   21 3    
    37   22   27 ar   
    38   22   23 ar   
    39   23   24 ar   
    40   23   50 1    
    41   24   25 ar   
    42   24   51 1    
    43   25   26 ar   
    44   25   28 1    
    45   26   27 ar   
    46   26   52 1    
    47   27   53 1    
    48   28   54 1    
    49   28   55 1    
    50   28   56 1    
    51   29   30 2    
    52   29   31 am   BACKBONE|DICT|INTERRES
    53   31   32 1    
    54   31   57 1    
    55   32   33 1    
    56   32   58 1    
    57   32   59 1    
    58   33   38 ar   
    59   33   34 ar   
    60   34   35 ar   
    61   34   60 1    
    62   35   36 ar   
    63   35   61 1    
    64   36   37 ar   
    65   36   62 1    
    66   37   38 ar   
    67   37   63 1    
    68   38   64 1    
@<TRIPOS>SUBSTRUCTURE
     1 UNK         1 GROUP             0       ****    0 ROOT    
