@<TRIPOS>MOLECULE
ZINC20720052_5847
61   66    1
SMALL
USER_CHARGES


@<TRIPOS>ATOM
      1 C1          1.5025   52.4974   31.3530 C.3       1 UNK         0.0000 
      2 C2          2.1928   53.1395   30.1273 C.3       1 UNK         0.0000 
      3 C3          2.7259   52.0969   29.1249 C.3       1 UNK         0.0000 
      4 C4          1.5695   51.2974   28.4855 C.3       1 UNK         0.0000 
      5 N5          0.4993   52.1826   27.9592 N.pl3     1 UNK         0.0000 
      6 C6          0.0836   53.3890   28.7254 C.3       1 UNK         0.0000 
      7 C7          1.2771   54.1203   29.3679 C.3       1 UNK         0.0000 
      8 S8         -0.3355   51.7403   26.4678 S.o2      1 UNK         0.0000 
      9 O9         -0.2998   50.2821   26.3185 O.2       1 UNK         0.0000 
     10 O10        -1.5912   52.4965   26.3757 O.2       1 UNK         0.0000 
     11 C11         0.6861   52.3412   25.1351 C.ar      1 UNK         0.0000 
     12 C12         0.2554   52.0797   23.8373 C.ar      1 UNK         0.0000 
     13 C13         1.0164   52.5047   22.7575 C.ar      1 UNK         0.0000 
     14 C14         2.2098   53.1893   22.9740 C.ar      1 UNK         0.0000 
     15 C15         2.6745   53.4531   24.2792 C.ar      1 UNK         0.0000 
     16 C16         1.8869   53.0281   25.3549 C.ar      1 UNK         0.0000 
     17 C17         3.9584   54.2625   24.4356 C.3       1 UNK         0.0000 
     18 H18         3.6288   55.2966   24.3931 H         1 UNK         0.0000 
     19 C19         4.8922   54.1068   25.6179 C.2       1 UNK         0.0000 
     20 C20         6.1558   54.3681   25.2171 C.2       1 UNK         0.0000 
     21 C21         6.2317   54.5634   23.7053 C.3       1 UNK         0.0000 
     22 C22         4.9021   53.9446   23.2816 C.3       1 UNK         0.0000 
     23 H23         5.0959   52.8784   23.2446 H         1 UNK         0.0000 
     24 C24         4.2274   54.2800   21.9367 C.3       1 UNK         0.0000 
     25 H25         3.9657   55.3243   21.9402 H         1 UNK         0.0000 
     26 N26         2.9365   53.5900   21.8394 N.pl3     1 UNK         0.0000 
     27 C27         5.0471   53.9788   20.7023 C.ar      1 UNK         0.0000 
     28 C28         5.0861   52.7840   20.0120 C.ar      1 UNK         0.0000 
     29 N29         5.8451   52.8969   18.8821 N.pl3     1 UNK         0.0000 
     30 H30         5.9243   52.1106   18.2359 H         1 UNK         0.0000 
     31 C31         6.3905   54.1591   18.8203 C.ar      1 UNK         0.0000 
     32 C32         5.9065   54.8717   19.9659 C.ar      1 UNK         0.0000 
     33 C33         6.3030   56.2097   20.1364 C.ar      1 UNK         0.0000 
     34 C34         7.1366   56.7960   19.1853 C.ar      1 UNK         0.0000 
     35 C35         7.6010   56.0740   18.0900 C.ar      1 UNK         0.0000 
     36 C36         7.2446   54.7422   17.8795 C.ar      1 UNK         0.0000 
     37 H37         0.6493   51.8806   31.0781 H         1 UNK         0.0000 
     38 H38         1.1078   53.2569   32.0292 H         1 UNK         0.0000 
     39 H39         2.1905   51.8767   31.9270 H         1 UNK         0.0000 
     40 H40         3.0514   53.7116   30.4816 H         1 UNK         0.0000 
     41 H41         3.3161   52.5776   28.3441 H         1 UNK         0.0000 
     42 H42         3.3965   51.3998   29.6272 H         1 UNK         0.0000 
     43 H43         1.9042   50.6252   27.6961 H         1 UNK         0.0000 
     44 H44         1.1111   50.6819   29.2572 H         1 UNK         0.0000 
     45 H45        -0.4951   54.0530   28.0845 H         1 UNK         0.0000 
     46 H46        -0.5872   53.0506   29.5155 H         1 UNK         0.0000 
     47 H47         0.8928   54.8835   30.0453 H         1 UNK         0.0000 
     48 H48         1.8384   54.6475   28.5937 H         1 UNK         0.0000 
     49 H49        -0.6667   51.5401   23.6679 H         1 UNK         0.0000 
     50 H50         0.6795   52.2995   21.7519 H         1 UNK         0.0000 
     51 H51         2.2189   53.2445   26.3585 H         1 UNK         0.0000 
     52 H52         4.5541   53.9399   26.6296 H         1 UNK         0.0000 
     53 H53         7.0320   54.4077   25.8476 H         1 UNK         0.0000 
     54 H54         7.0721   54.0262   23.2616 H         1 UNK         0.0000 
     55 H55         6.3245   55.6102   23.4153 H         1 UNK         0.0000 
     56 H56         2.4489   53.7642   20.9693 H         1 UNK         0.0000 
     57 H57         4.5739   51.8502   20.2018 H         1 UNK         0.0000 
     58 H58         5.9383   56.7835   20.9743 H         1 UNK         0.0000 
     59 H59         7.4246   57.8332   19.2801 H         1 UNK         0.0000 
     60 H60         8.2468   56.5657   17.3749 H         1 UNK         0.0000 
     61 H61         7.6073   54.1947   17.0209 H         1 UNK         0.0000 
@<TRIPOS>BOND
     1    1    2 1    
     2    1   37 1    
     3    1   38 1    
     4    1   39 1    
     5    2    7 1    
     6    2    3 1    
     7    2   40 1    
     8    3    4 1    
     9    3   41 1    
    10    3   42 1    
    11    4    5 1    
    12    4   43 1    
    13    4   44 1    
    14    5    6 1    
    15    5    8 1    
    16    6    7 1    
    17    6   45 1    
    18    6   46 1    
    19    7   47 1    
    20    7   48 1    
    21    8    9 2    
    22    8   10 2    
    23    8   11 1    
    24   11   16 ar   
    25   11   12 ar   
    26   12   13 ar   
    27   12   49 1    
    28   13   14 ar   
    29   13   50 1    
    30   14   26 1    
    31   14   15 ar   
    32   15   16 ar   
    33   15   17 1    
    34   16   51 1    
    35   17   18 1    
    36   17   22 1    
    37   17   19 1    
    38   19   20 2    
    39   19   52 1    
    40   20   21 1    
    41   20   53 1    
    42   21   22 1    
    43   21   54 1    
    44   21   55 1    
    45   22   23 1    
    46   22   24 1    
    47   24   25 1    
    48   24   26 1    
    49   24   27 1    
    50   26   56 1    
    51   27   32 ar   
    52   27   28 ar   
    53   28   29 ar   
    54   28   57 1    
    55   29   30 1    
    56   29   31 ar   
    57   31   36 ar   
    58   31   32 ar   
    59   32   33 ar   
    60   33   34 ar   
    61   33   58 1    
    62   34   35 ar   
    63   34   59 1    
    64   35   36 ar   
    65   35   60 1    
    66   36   61 1    
@<TRIPOS>SUBSTRUCTURE
     1 UNK         1 GROUP             0       ****    0 ROOT    
