@<TRIPOS>MOLECULE
ZINC38104559_1787
31   32    1
SMALL
USER_CHARGES


@<TRIPOS>ATOM
      1 C1          5.5358   53.8736   28.0742 C.ar      1 UNK         0.0000 
      2 C2          6.5053   54.4934   27.2905 C.ar      1 UNK         0.0000 
      3 C3          6.1809   54.9312   26.0107 C.ar      1 UNK         0.0000 
      4 C4          4.9056   54.7376   25.4957 C.ar      1 UNK         0.0000 
      5 C5          3.9351   54.1212   26.2761 C.ar      1 UNK         0.0000 
      6 C6          4.2360   53.6976   27.5824 C.ar      1 UNK         0.0000 
      7 C7          3.1887   53.0316   28.4422 C.2       1 UNK         0.0000 
      8 O8          3.5052   52.1837   29.2809 O.2       1 UNK         0.0000 
      9 N9          1.9253   53.4349   28.1945 N.am      1 UNK         0.0000 
     10 C10         0.7604   52.7449   28.5448 C.ar      1 UNK         0.0000 
     11 C11        -0.0930   52.4142   27.4870 C.ar      1 UNK         0.0000 
     12 C12        -1.2652   51.6965   27.7243 C.ar      1 UNK         0.0000 
     13 C13        -1.5966   51.3140   29.0219 C.ar      1 UNK         0.0000 
     14 C14        -0.7805   51.6967   30.0818 C.ar      1 UNK         0.0000 
     15 C15         0.3898   52.4204   29.8642 C.ar      1 UNK         0.0000 
     16 Cl16        1.3068   52.8969   31.2521 Cl        1 UNK         0.0000 
     17 S17        -2.3236   51.2141   26.3786 S.o2      1 UNK         0.0000 
     18 O18        -3.6894   51.1174   26.9033 O.2       1 UNK         0.0000 
     19 O19        -2.0271   52.0664   25.2219 O.2       1 UNK         0.0000 
     20 N20        -1.7991   49.6021   25.9994 N.pl3     1 UNK         0.0000 
     21 F21         7.1044   55.5684   25.2634 F         1 UNK         0.0000 
     22 H22         5.8001   53.5422   29.0671 H         1 UNK         0.0000 
     23 H23         7.5003   54.6457   27.6821 H         1 UNK         0.0000 
     24 H24         4.6722   55.0691   24.4947 H         1 UNK         0.0000 
     25 H25         2.9562   53.9712   25.8429 H         1 UNK         0.0000 
     26 H26         1.8267   54.0905   27.4364 H         1 UNK         0.0000 
     27 H27         0.1699   52.6766   26.4716 H         1 UNK         0.0000 
     28 H28        -2.4796   50.7189   29.2174 H         1 UNK         0.0000 
     29 H29        -1.0458   51.3956   31.0830 H         1 UNK         0.0000 
     30 H30        -1.6956   49.0296   26.8565 H         1 UNK         0.0000 
     31 H31        -2.4971   49.1248   25.4290 H         1 UNK         0.0000 
@<TRIPOS>BOND
     1    1    6 ar   
     2    1    2 ar   
     3    1   22 1    
     4    2    3 ar   
     5    2   23 1    
     6    3    4 ar   
     7    3   21 1    
     8    4    5 ar   
     9    4   24 1    
    10    5    6 ar   
    11    5   25 1    
    12    6    7 1    
    13    7    8 2    
    14    7    9 am   BACKBONE|DICT|INTERRES
    15    9   10 1    
    16    9   26 1    
    17   10   15 ar   
    18   10   11 ar   
    19   11   12 ar   
    20   11   27 1    
    21   12   13 ar   
    22   12   17 1    
    23   13   14 ar   
    24   13   28 1    
    25   14   15 ar   
    26   14   29 1    
    27   15   16 1    
    28   17   18 2    
    29   17   19 2    
    30   17   20 1    
    31   20   30 1    
    32   20   31 1    
@<TRIPOS>SUBSTRUCTURE
     1 UNK         1 GROUP             0       ****    0 ROOT    
