@<TRIPOS>MOLECULE
ZINC08300371_3354
59   64    1
SMALL
USER_CHARGES


@<TRIPOS>ATOM
      1 C1         -5.0228   50.4693   23.0182 C.ar      1 UNK         0.0000 
      2 C2         -6.2091   49.9113   22.5516 C.ar      1 UNK         0.0000 
      3 C3         -7.4219   50.2729   23.1362 C.ar      1 UNK         0.0000 
      4 C4         -7.4571   51.1816   24.1917 C.ar      1 UNK         0.0000 
      5 C5         -6.2724   51.7398   24.6651 C.ar      1 UNK         0.0000 
      6 C6         -5.0539   51.3970   24.0718 C.ar      1 UNK         0.0000 
      7 N7         -3.8979   51.9878   24.6008 N.am      1 UNK         0.0000 
      8 C8         -2.6990   52.1641   23.9980 C.2       1 UNK         0.0000 
      9 O9         -2.5624   52.1722   22.7722 O.2       1 UNK         0.0000 
     10 N10        -1.6638   52.3851   24.8559 N.am      1 UNK         0.0000 
     11 C11        -1.6678   51.8631   26.2425 C.3       1 UNK         0.0000 
     12 C12        -0.9237   50.4995   26.2691 C.3       1 UNK         0.0000 
     13 H13        -0.9310   50.0971   27.2817 H         1 UNK         0.0000 
     14 C14         0.5295   50.7573   25.9140 C.3       1 UNK         0.0000 
     15 C15         0.5536   51.3190   24.4888 C.3       1 UNK         0.0000 
     16 H16         1.5878   51.5878   24.2754 H         1 UNK         0.0000 
     17 C17        -0.2993   52.6155   24.3258 C.3       1 UNK         0.0000 
     18 C18         0.0969   50.2383   23.4863 C.ar      1 UNK         0.0000 
     19 C19         0.6238   50.1421   22.2337 C.ar      1 UNK         0.0000 
     20 C20         0.0754   49.1359   21.3348 C.ar      1 UNK         0.0000 
     21 C21        -0.9197   48.3362   21.7672 C.ar      1 UNK         0.0000 
     22 C22        -1.4487   48.3849   23.1208 C.ar      1 UNK         0.0000 
     23 O23        -2.2826   47.5451   23.4671 O.2       1 UNK         0.0000 
     24 N24        -0.9306   49.3758   23.9353 N.pl3     1 UNK         0.0000 
     25 C25        -1.4991   49.4062   25.3216 C.3       1 UNK         0.0000 
     26 N26         1.6445   50.9665   21.8431 N.am      1 UNK         0.0000 
     27 C27         1.7572   51.6379   20.6752 C.2       1 UNK         0.0000 
     28 O28         0.9292   51.5739   19.7611 O.2       1 UNK         0.0000 
     29 C29         2.9928   52.4968   20.5322 C.ar      1 UNK         0.0000 
     30 C30         3.5040   52.7648   19.2426 C.ar      1 UNK         0.0000 
     31 C31         4.6355   53.5730   19.0582 C.ar      1 UNK         0.0000 
     32 C32         5.2327   54.1090   20.1907 C.ar      1 UNK         0.0000 
     33 C33         4.7517   53.8647   21.4428 C.ar      1 UNK         0.0000 
     34 C34         3.6347   53.0634   21.6578 C.ar      1 UNK         0.0000 
     35 O35         5.5378   54.4926   22.3574 O.3       1 UNK         0.0000 
     36 C36         6.4878   55.2291   21.6262 C.3       1 UNK         0.0000 
     37 O37         6.3344   54.8990   20.2707 O.3       1 UNK         0.0000 
     38 F38        -8.5716   49.7319   22.6790 F         1 UNK         0.0000 
     39 H39        -4.0880   50.1714   22.5624 H         1 UNK         0.0000 
     40 H40        -6.1926   49.2024   21.7379 H         1 UNK         0.0000 
     41 H41        -8.4036   51.4509   24.6381 H         1 UNK         0.0000 
     42 H42        -6.3104   52.4441   25.4849 H         1 UNK         0.0000 
     43 H43        -3.9439   52.1970   25.5861 H         1 UNK         0.0000 
     44 H44        -2.6507   51.8362   26.7129 H         1 UNK         0.0000 
     45 H45        -1.1305   52.5831   26.8617 H         1 UNK         0.0000 
     46 H46         1.1026   49.8295   25.9798 H         1 UNK         0.0000 
     47 H47         0.9864   51.4591   26.6144 H         1 UNK         0.0000 
     48 H48         0.1605   53.4275   24.8854 H         1 UNK         0.0000 
     49 H49        -0.3136   52.9714   23.2955 H         1 UNK         0.0000 
     50 H50         0.4381   49.0507   20.3200 H         1 UNK         0.0000 
     51 H51        -1.3401   47.6037   21.0952 H         1 UNK         0.0000 
     52 H52        -2.5864   49.4885   25.2734 H         1 UNK         0.0000 
     53 H53        -1.3522   48.4293   25.7893 H         1 UNK         0.0000 
     54 H54         2.4016   51.0714   22.5008 H         1 UNK         0.0000 
     55 H55         3.0351   52.3346   18.3682 H         1 UNK         0.0000 
     56 H56         5.0236   53.7572   18.0670 H         1 UNK         0.0000 
     57 H57         3.2724   52.9063   22.6640 H         1 UNK         0.0000 
     58 H58         6.3040   56.2959   21.7525 H         1 UNK         0.0000 
     59 H59         7.4928   54.9627   21.9608 H         1 UNK         0.0000 
@<TRIPOS>BOND
     1    1    6 ar   
     2    1    2 ar   
     3    1   39 1    
     4    2    3 ar   
     5    2   40 1    
     6    3    4 ar   
     7    3   38 1    
     8    4    5 ar   
     9    4   41 1    
    10    5    6 ar   
    11    5   42 1    
    12    6    7 1    
    13    7    8 am   BACKBONE|DICT|INTERRES
    14    7   43 1    
    15    8    9 2    
    16    8   10 am   BACKBONE|DICT|INTERRES
    17   10   17 1    
    18   10   11 1    
    19   11   12 1    
    20   11   44 1    
    21   11   45 1    
    22   12   13 1    
    23   12   25 1    
    24   12   14 1    
    25   14   15 1    
    26   14   46 1    
    27   14   47 1    
    28   15   16 1    
    29   15   17 1    
    30   15   18 1    
    31   17   48 1    
    32   17   49 1    
    33   18   24 ar   
    34   18   19 ar   
    35   19   20 ar   
    36   19   26 1    
    37   20   21 ar   
    38   20   50 1    
    39   21   22 ar   
    40   21   51 1    
    41   22   23 2    
    42   22   24 ar   
    43   24   25 1    
    44   25   52 1    
    45   25   53 1    
    46   26   27 am   BACKBONE|DICT|INTERRES
    47   26   54 1    
    48   27   28 2    
    49   27   29 1    
    50   29   34 ar   
    51   29   30 ar   
    52   30   31 ar   
    53   30   55 1    
    54   31   32 ar   
    55   31   56 1    
    56   32   37 1    
    57   32   33 ar   
    58   33   34 ar   
    59   33   35 1    
    60   34   57 1    
    61   35   36 1    
    62   36   37 1    
    63   36   58 1    
    64   36   59 1    
@<TRIPOS>SUBSTRUCTURE
     1 UNK         1 GROUP             0       ****    0 ROOT    
