ZINC15728475_2094
                    3D
 Schrodinger Suite 2024-2.
 49 51  0  0  1  0            999 V2000
    3.4319   53.3230   21.5219 C   0  0  0  0  0  0
    4.5379   53.8843   22.3997 C   0  0  0  0  0  0
    4.4300   53.7553   23.7869 C   0  0  0  0  0  0
    5.4421   54.2065   24.6406 C   0  0  0  0  0  0
    6.5915   54.7810   24.0726 C   0  0  0  0  0  0
    6.7025   54.9206   22.6907 C   0  0  0  0  0  0
    5.6726   54.4974   21.8521 C   0  0  0  0  0  0
    5.8493   54.8025   19.9764 Br  0  0  0  0  0  0
    5.2273   54.0144   26.0229 N   0  0  0  0  0  0
    6.0200   54.3271   27.0708 C   0  0  0  0  0  0
    7.1033   54.8955   26.9593 O   0  0  0  0  0  0
    5.5691   53.9283   28.4950 C   0  0  0  0  0  0
    4.2866   53.1997   28.5746 N   0  0  0  0  0  0
    4.2908   52.0580   29.5194 C   0  0  0  0  0  0
    2.7868   54.1457   28.6657 S   0  0  0  0  0  0
    2.4679   54.3577   30.0816 O   0  0  0  0  0  0
    2.9087   55.2842   27.7553 O   0  0  0  0  0  0
    1.5222   53.0948   27.9618 C   0  0  0  0  0  0
    0.5593   52.4789   28.7621 C   0  0  0  0  0  0
   -0.4311   51.6967   28.1699 C   0  0  0  0  0  0
   -0.4602   51.5033   26.7860 C   0  0  0  0  0  0
    0.5372   52.0947   25.9697 C   0  0  0  0  0  0
    1.5026   52.8972   26.5820 C   0  0  0  0  0  0
    0.6082   51.8593   24.5823 N   0  0  0  0  0  0
    0.4704   50.7151   23.8762 C   0  0  0  0  0  0
    0.3469   50.6968   22.6547 O   0  0  0  0  0  0
    0.4152   49.4333   24.7305 C   0  0  0  0  0  0
   -0.9756   49.1429   25.3361 C   0  0  0  0  0  0
   -1.8090   50.5852   26.0812 S   0  0  0  0  0  0
    2.9140   52.4957   22.0113 H   0  0  0  0  0  0
    3.8300   52.9164   20.5905 H   0  0  0  0  0  0
    2.7050   54.0964   21.2827 H   0  0  0  0  0  0
    3.5484   53.2878   24.1949 H   0  0  0  0  0  0
    7.4191   55.1318   24.6646 H   0  0  0  0  0  0
    7.5874   55.3798   22.2716 H   0  0  0  0  0  0
    4.3718   53.5408   26.2619 H   0  0  0  0  0  0
    6.3842   53.3143   28.8814 H   0  0  0  0  0  0
    5.5473   54.8168   29.1289 H   0  0  0  0  0  0
    5.1043   51.3771   29.2814 H   0  0  0  0  0  0
    4.4295   52.4192   30.5392 H   0  0  0  0  0  0
    3.3501   51.5116   29.4499 H   0  0  0  0  0  0
    0.5616   52.6150   29.8340 H   0  0  0  0  0  0
   -1.1858   51.2332   28.7905 H   0  0  0  0  0  0
    2.2559   53.3741   25.9761 H   0  0  0  0  0  0
    0.6188   52.6766   23.9909 H   0  0  0  0  0  0
    1.1041   49.5790   25.5629 H   0  0  0  0  0  0
    0.7623   48.5945   24.1261 H   0  0  0  0  0  0
   -0.8957   48.3485   26.0813 H   0  0  0  0  0  0
   -1.6418   48.7467   24.5698 H   0  0  0  0  0  0
  1  2  1  0  0  0
  1 30  1  0  0  0
  1 31  1  0  0  0
  1 32  1  0  0  0
  2  7  2  0  0  0
  2  3  1  0  0  0
  3  4  2  0  0  0
  3 33  1  0  0  0
  4  5  1  0  0  0
  4  9  1  0  0  0
  5  6  2  0  0  0
  5 34  1  0  0  0
  6  7  1  0  0  0
  6 35  1  0  0  0
  7  8  1  0  0  0
  9 10  1  0  0  0
  9 36  1  0  0  0
 10 11  2  0  0  0
 10 12  1  0  0  0
 12 13  1  0  0  0
 12 37  1  0  0  0
 12 38  1  0  0  0
 13 14  1  0  0  0
 13 15  1  0  0  0
 14 39  1  0  0  0
 14 40  1  0  0  0
 14 41  1  0  0  0
 15 16  2  0  0  0
 15 17  2  0  0  0
 15 18  1  0  0  0
 18 23  2  0  0  0
 18 19  1  0  0  0
 19 20  2  0  0  0
 19 42  1  0  0  0
 20 21  1  0  0  0
 20 43  1  0  0  0
 21 29  1  0  0  0
 21 22  2  0  0  0
 22 23  1  0  0  0
 22 24  1  0  0  0
 23 44  1  0  0  0
 24 25  1  0  0  0
 24 45  1  0  0  0
 25 26  2  0  0  0
 25 27  1  0  0  0
 27 28  1  0  0  0
 27 46  1  0  0  0
 27 47  1  0  0  0
 28 29  1  0  0  0
 28 48  1  0  0  0
 28 49  1  0  0  0
M  END
> <i_i_glide_confnum>
91

> <i_i_glide_lignum>
2095

> <i_i_glide_posenum>
256

> <i_i_glide_rotatable_bonds>
6

> <i_m_Source_File_Index>
3300

> <b_m_subgroup_collapsed>
0

> <r_i_docking_score>
-5.54143

> <r_i_glide_ecoul>
-7.26111

> <r_i_glide_eff_state_penalty>
0

> <r_i_glide_einternal>
5.9145

> <r_i_glide_emodel>
-64.9522

> <r_i_glide_energy>
-53.2515

> <r_i_glide_erotb>
0.410716

> <r_i_glide_esite>
-0.0554669

> <r_i_glide_evdw>
-45.9904

> <r_i_glide_gscore>
-5.54143

> <r_i_glide_hbond>
-0.260545

> <r_i_glide_ligand_efficiency>
-0.191084

> <r_i_glide_ligand_efficiency_ln>
-1.26885

> <r_i_glide_ligand_efficiency_sa>
-0.58707

> <r_i_glide_lipo>
-2.55441

> <r_i_glide_metal>
0

> <r_i_glide_rewards>
0.306961

> <s_i_glide_gridfile>
wee1_glide-grid

> <s_m_Source_File>
wee1_decoys_glide_SP.sdf

> <s_m_Source_Path>
/Users/zhangxujun/Desktop

> <s_m_entry_id>
3575

> <s_m_entry_name>
wee1_decoys_glide_SP.3300

> <s_m_subgroup_title>
wee1_decoys_glide_SP

> <s_m_subgroupid>
wee1_decoys_glide_SP


$$$$
