@<TRIPOS>MOLECULE
ZINC39633445_779
66   69    1
SMALL
USER_CHARGES


@<TRIPOS>ATOM
      1 C1          5.3217   53.6991   27.2040 C.ar      1 UNK         0.0000 
      2 C2          4.7984   53.4301   28.4658 C.ar      1 UNK         0.0000 
      3 C3          3.4244   53.4778   28.6902 C.ar      1 UNK         0.0000 
      4 C4          2.5788   53.8324   27.6319 C.ar      1 UNK         0.0000 
      5 C5          3.1031   54.0979   26.3705 C.ar      1 UNK         0.0000 
      6 C6          4.4785   54.0095   26.1223 C.ar      1 UNK         0.0000 
      7 C7          5.1007   54.2588   24.7548 C.2       1 UNK         0.0000 
      8 O8          6.2446   54.7195   24.7177 O.2       1 UNK         0.0000 
      9 N9          4.4402   53.9278   23.6053 N.am      1 UNK         0.0000 
     10 C10         5.0624   54.0967   22.2893 C.3       1 UNK         0.0000 
     11 C11         3.8805   53.9373   21.3123 C.3       1 UNK         0.0000 
     12 H12         3.3683   54.8962   21.2765 H         1 UNK         0.0000 
     13 C13         2.9899   52.8515   21.9867 C.3       1 UNK         0.0000 
     14 C14         3.1212   53.2965   23.4684 C.3       1 UNK         0.0000 
     15 C15         3.4754   51.3906   21.6817 C.3       1 UNK         0.0000 
     16 C16         2.6665   50.3003   22.4290 C.3       1 UNK         0.0000 
     17 N17         1.1763   50.4428   22.0704 N.4       1 UNK         0.0000 
     18 C18         0.6310   51.8669   22.3070 C.3       1 UNK         0.0000 
     19 C19         1.5164   52.8514   21.5185 C.3       1 UNK         0.0000 
     20 C20         4.4051   53.5948   19.8934 C.2       1 UNK         0.0000 
     21 O21         5.5588   53.2247   19.6960 O.2       1 UNK         0.0000 
     22 N22         3.5041   53.7002   18.9099 N.am      1 UNK         0.0000 
     23 C23         3.6863   53.3236   17.5034 C.3       1 UNK         0.0000 
     24 C24         2.7542   52.1410   17.1487 C.3       1 UNK         0.0000 
     25 C25         1.2899   52.4989   16.8232 C.3       1 UNK         0.0000 
     26 C26         1.0590   52.8929   15.3516 C.3       1 UNK         0.0000 
     27 C27         1.6910   54.2224   14.8974 C.3       1 UNK         0.0000 
     28 C28         3.2101   54.3695   15.1277 C.3       1 UNK         0.0000 
     29 C29         3.5979   54.5826   16.6048 C.3       1 UNK         0.0000 
     30 O30         2.9910   53.1766   29.9678 O.3       1 UNK         0.0000 
     31 C31         1.6094   52.8995   30.2078 C.3       1 UNK         0.0000 
     32 F32         1.5049   52.4813   31.4660 F         1 UNK         0.0000 
     33 F33         0.8594   53.9977   30.0820 F         1 UNK         0.0000 
     34 F34         1.1554   51.9225   29.4195 F         1 UNK         0.0000 
     35 H35         6.3916   53.6327   27.0667 H         1 UNK         0.0000 
     36 H36         5.4637   53.1666   29.2730 H         1 UNK         0.0000 
     37 H37         1.5116   53.9145   27.7668 H         1 UNK         0.0000 
     38 H38         2.4061   54.4075   25.6127 H         1 UNK         0.0000 
     39 H39         5.7768   53.2758   22.1783 H         1 UNK         0.0000 
     40 H40         5.5807   55.0482   22.1599 H         1 UNK         0.0000 
     41 H41         2.3849   54.0888   23.5953 H         1 UNK         0.0000 
     42 H42         2.8916   52.4970   24.1701 H         1 UNK         0.0000 
     43 H43         3.4615   51.1761   20.6121 H         1 UNK         0.0000 
     44 H44         4.5247   51.2972   21.9653 H         1 UNK         0.0000 
     45 H45         2.9588   49.2898   22.1357 H         1 UNK         0.0000 
     46 H46         2.7042   50.3719   23.5152 H         1 UNK         0.0000 
     47 H47         1.0554   50.2036   21.0951 H         1 UNK         0.0000 
     48 H48        -0.4007   51.8611   21.9510 H         1 UNK         0.0000 
     49 H49         0.6376   52.0407   23.3854 H         1 UNK         0.0000 
     50 H50         1.1048   53.8389   21.6841 H         1 UNK         0.0000 
     51 H51         1.4357   52.6806   20.4438 H         1 UNK         0.0000 
     52 H52         2.6079   54.1098   19.1412 H         1 UNK         0.0000 
     53 H53         4.6958   52.9214   17.3774 H         1 UNK         0.0000 
     54 H54         2.7831   51.4105   17.9601 H         1 UNK         0.0000 
     55 H55         3.1763   51.6003   16.2989 H         1 UNK         0.0000 
     56 H56         0.9279   53.2824   17.4911 H         1 UNK         0.0000 
     57 H57         0.6725   51.6242   17.0320 H         1 UNK         0.0000 
     58 H58        -0.0146   52.9450   15.1692 H         1 UNK         0.0000 
     59 H59         1.4222   52.0908   14.7065 H         1 UNK         0.0000 
     60 H60         1.1719   55.0516   15.3841 H         1 UNK         0.0000 
     61 H61         1.4920   54.3448   13.8310 H         1 UNK         0.0000 
     62 H62         3.5503   55.2391   14.5615 H         1 UNK         0.0000 
     63 H63         3.7484   53.5182   14.7072 H         1 UNK         0.0000 
     64 H64         4.5777   55.0640   16.6299 H         1 UNK         0.0000 
     65 H65         2.9332   55.3267   17.0499 H         1 UNK         0.0000 
     66 H66         0.6349   49.7743   22.6025 H         1 UNK         0.0000 
@<TRIPOS>BOND
     1    1    6 ar   
     2    1    2 ar   
     3    1   35 1    
     4    2    3 ar   
     5    2   36 1    
     6    3    4 ar   
     7    3   30 1    
     8    4    5 ar   
     9    4   37 1    
    10    5    6 ar   
    11    5   38 1    
    12    6    7 1    
    13    7    8 2    
    14    7    9 am   BACKBONE|DICT|INTERRES
    15    9   14 1    
    16    9   10 1    
    17   10   11 1    
    18   10   39 1    
    19   10   40 1    
    20   11   12 1    
    21   11   13 1    
    22   11   20 1    
    23   13   19 1    
    24   13   14 1    
    25   13   15 1    
    26   14   41 1    
    27   14   42 1    
    28   15   16 1    
    29   15   43 1    
    30   15   44 1    
    31   16   17 1    
    32   16   45 1    
    33   16   46 1    
    34   17   18 1    
    35   17   47 1    
    36   17   66 1    
    37   18   19 1    
    38   18   48 1    
    39   18   49 1    
    40   19   50 1    
    41   19   51 1    
    42   20   21 2    
    43   20   22 am   BACKBONE|DICT|INTERRES
    44   22   23 1    
    45   22   52 1    
    46   23   29 1    
    47   23   24 1    
    48   23   53 1    
    49   24   25 1    
    50   24   54 1    
    51   24   55 1    
    52   25   26 1    
    53   25   56 1    
    54   25   57 1    
    55   26   27 1    
    56   26   58 1    
    57   26   59 1    
    58   27   28 1    
    59   27   60 1    
    60   27   61 1    
    61   28   29 1    
    62   28   62 1    
    63   28   63 1    
    64   29   64 1    
    65   29   65 1    
    66   30   31 1    
    67   31   32 1    
    68   31   33 1    
    69   31   34 1    
@<TRIPOS>SUBSTRUCTURE
     1 UNK         1 GROUP             0       ****    0 ROOT    
