@<TRIPOS>MOLECULE
ZINC20022039_3566
32   33    1
SMALL
USER_CHARGES


@<TRIPOS>ATOM
      1 C1          0.2135   50.0629   23.2329 C.3       1 UNK         0.0000 
      2 C2          0.2516   50.7840   24.5745 C.ar      1 UNK         0.0000 
      3 C3          0.8833   52.0272   24.6612 C.ar      1 UNK         0.0000 
      4 C4          0.9538   52.7026   25.8780 C.ar      1 UNK         0.0000 
      5 C5          0.4010   52.1488   27.0376 C.ar      1 UNK         0.0000 
      6 C6         -0.2579   50.9184   26.9428 C.ar      1 UNK         0.0000 
      7 C7         -0.3394   50.2349   25.7238 C.ar      1 UNK         0.0000 
      8 N8         -1.0093   49.0096   25.6818 N.pl3     1 UNK         0.0000 
      9 S9          0.5442   52.9794   28.6409 S.o2      1 UNK         0.0000 
     10 O10         0.3046   54.4145   28.4814 O.2       1 UNK         0.0000 
     11 O11        -0.2278   52.2042   29.6164 O.2       1 UNK         0.0000 
     12 N12         2.2318   52.8163   29.1356 N.pl3     1 UNK         0.0000 
     13 C13         3.3306   53.4092   28.4898 C.ar      1 UNK         0.0000 
     14 C14         3.2288   54.4487   27.5569 C.ar      1 UNK         0.0000 
     15 C15         4.3468   54.8693   26.8382 C.ar      1 UNK         0.0000 
     16 C16         5.5933   54.3119   27.1011 C.ar      1 UNK         0.0000 
     17 C17         5.7227   53.3306   28.0817 C.ar      1 UNK         0.0000 
     18 C18         4.5923   52.8825   28.7681 C.ar      1 UNK         0.0000 
     19 F19         4.7044   51.8945   29.6846 F         1 UNK         0.0000 
     20 Br20        7.1044   54.8962   26.1099 Br        1 UNK         0.0000 
     21 H21         0.6267   50.6674   22.4235 H         1 UNK         0.0000 
     22 H22        -0.8154   49.8119   22.9693 H         1 UNK         0.0000 
     23 H23         0.7764   49.1296   23.2930 H         1 UNK         0.0000 
     24 H24         1.3290   52.4744   23.7843 H         1 UNK         0.0000 
     25 H25         1.4336   53.6644   25.8913 H         1 UNK         0.0000 
     26 H26        -0.7146   50.4964   27.8258 H         1 UNK         0.0000 
     27 H27        -1.2948   48.6561   26.6027 H         1 UNK         0.0000 
     28 H28        -0.6887   48.3369   25.0045 H         1 UNK         0.0000 
     29 H29         2.4284   52.0232   29.7243 H         1 UNK         0.0000 
     30 H30         2.2889   54.9265   27.3477 H         1 UNK         0.0000 
     31 H31         4.2490   55.6351   26.0825 H         1 UNK         0.0000 
     32 H32         6.6901   52.8977   28.2876 H         1 UNK         0.0000 
@<TRIPOS>BOND
     1    1    2 1    
     2    1   21 1    
     3    1   22 1    
     4    1   23 1    
     5    2    7 ar   
     6    2    3 ar   
     7    3    4 ar   
     8    3   24 1    
     9    4    5 ar   
    10    4   25 1    
    11    5    6 ar   
    12    5    9 1    
    13    6    7 ar   
    14    6   26 1    
    15    7    8 1    
    16    8   27 1    
    17    8   28 1    
    18    9   10 2    
    19    9   11 2    
    20    9   12 1    
    21   12   13 1    
    22   12   29 1    
    23   13   18 ar   
    24   13   14 ar   
    25   14   15 ar   
    26   14   30 1    
    27   15   16 ar   
    28   15   31 1    
    29   16   17 ar   
    30   16   20 1    
    31   17   18 ar   
    32   17   32 1    
    33   18   19 1    
@<TRIPOS>SUBSTRUCTURE
     1 UNK         1 GROUP             0       ****    0 ROOT    
