@<TRIPOS>MOLECULE
ZINC44018966_1444
53   56    1
SMALL
USER_CHARGES


@<TRIPOS>ATOM
      1 C1          5.8742   54.0966   28.4808 C.3       1 UNK         0.0000 
      2 C2          4.6460   53.2111   28.6433 C.2       1 UNK         0.0000 
      3 O3          4.7043   52.1705   29.2965 O.2       1 UNK         0.0000 
      4 N4          3.5353   53.6231   28.0221 N.am      1 UNK         0.0000 
      5 C5          2.2814   52.8622   27.9254 C.3       1 UNK         0.0000 
      6 H6          2.5581   51.8037   27.9263 H         1 UNK         0.0000 
      7 C7          1.5218   53.1135   26.5855 C.3       1 UNK         0.0000 
      8 H8          1.1715   54.1432   26.5857 H         1 UNK         0.0000 
      9 C9          0.2897   52.1937   26.5228 C.3       1 UNK         0.0000 
     10 H10         0.6247   51.1548   26.5022 H         1 UNK         0.0000 
     11 C11        -0.5587   52.4457   27.7686 C.3       1 UNK         0.0000 
     12 H12        -0.8949   53.4833   27.7380 H         1 UNK         0.0000 
     13 C13        -1.7937   51.5530   27.6726 C.3       1 UNK         0.0000 
     14 O14        -2.5014   51.9138   26.4809 O.3       1 UNK         0.0000 
     15 C15        -1.7185   51.7409   25.3146 C.3       1 UNK         0.0000 
     16 H16        -2.2942   52.1595   24.4898 H         1 UNK         0.0000 
     17 O17        -0.5247   52.4969   25.3777 O.3       1 UNK         0.0000 
     18 C18        -1.4859   50.2464   24.9724 C.ar      1 UNK         0.0000 
     19 C19        -0.3074   49.8312   24.3444 C.ar      1 UNK         0.0000 
     20 C20        -0.0958   48.4811   24.0893 C.ar      1 UNK         0.0000 
     21 C21        -1.0673   47.5477   24.4395 C.ar      1 UNK         0.0000 
     22 C22        -2.2557   47.9522   25.0414 C.ar      1 UNK         0.0000 
     23 C23        -2.4658   49.3018   25.3013 C.ar      1 UNK         0.0000 
     24 O24         0.1855   52.1802   28.9562 O.3       1 UNK         0.0000 
     25 C25         1.2797   53.0427   29.1115 C.3       1 UNK         0.0000 
     26 H26         0.8440   54.0456   29.1414 H         1 UNK         0.0000 
     27 O27         1.9041   52.7383   30.2918 O.3       1 UNK         0.0000 
     28 O28         2.2595   52.9539   25.3635 O.3       1 UNK         0.0000 
     29 C29         3.0797   53.9125   24.8369 C.2       1 UNK         0.0000 
     30 O30         3.5046   54.8896   25.4614 O.2       1 UNK         0.0000 
     31 C31         3.4943   53.6004   23.4351 C.ar      1 UNK         0.0000 
     32 C32         2.6803   52.8248   22.5932 C.ar      1 UNK         0.0000 
     33 C33         3.0896   52.5345   21.2948 C.ar      1 UNK         0.0000 
     34 C34         4.3010   53.0334   20.8244 C.ar      1 UNK         0.0000 
     35 C35         5.1043   53.8229   21.6402 C.ar      1 UNK         0.0000 
     36 C36         4.7080   54.0970   22.9447 C.ar      1 UNK         0.0000 
     37 H37         6.0509   54.3230   27.4288 H         1 UNK         0.0000 
     38 H38         5.7380   55.0318   29.0214 H         1 UNK         0.0000 
     39 H39         6.7600   53.6019   28.8793 H         1 UNK         0.0000 
     40 H40         3.5841   54.4671   27.4673 H         1 UNK         0.0000 
     41 H41        -1.5336   50.4968   27.6815 H         1 UNK         0.0000 
     42 H42        -2.4488   51.6969   28.5330 H         1 UNK         0.0000 
     43 H43         0.4582   50.5448   24.0802 H         1 UNK         0.0000 
     44 H44         0.8301   48.1606   23.6420 H         1 UNK         0.0000 
     45 H45        -0.8970   46.5006   24.2563 H         1 UNK         0.0000 
     46 H46        -3.0021   47.2265   25.3262 H         1 UNK         0.0000 
     47 H47        -3.3786   49.6101   25.7899 H         1 UNK         0.0000 
     48 H48         1.2426   52.7904   30.9874 H         1 UNK         0.0000 
     49 H49         1.7307   52.4381   22.9358 H         1 UNK         0.0000 
     50 H50         2.4655   51.9330   20.6494 H         1 UNK         0.0000 
     51 H51         4.6120   52.8099   19.8121 H         1 UNK         0.0000 
     52 H52         6.0326   54.2215   21.2612 H         1 UNK         0.0000 
     53 H53         5.3500   54.7051   23.5684 H         1 UNK         0.0000 
@<TRIPOS>BOND
     1    1    2 1    
     2    1   37 1    
     3    1   38 1    
     4    1   39 1    
     5    2    3 2    
     6    2    4 am   BACKBONE|DICT|INTERRES
     7    4    5 1    
     8    4   40 1    
     9    5    6 1    
    10    5   25 1    
    11    5    7 1    
    12    7    8 1    
    13    7    9 1    
    14    7   28 1    
    15    9   10 1    
    16    9   17 1    
    17    9   11 1    
    18   11   12 1    
    19   11   13 1    
    20   11   24 1    
    21   13   14 1    
    22   13   41 1    
    23   13   42 1    
    24   14   15 1    
    25   15   16 1    
    26   15   17 1    
    27   15   18 1    
    28   18   23 ar   
    29   18   19 ar   
    30   19   20 ar   
    31   19   43 1    
    32   20   21 ar   
    33   20   44 1    
    34   21   22 ar   
    35   21   45 1    
    36   22   23 ar   
    37   22   46 1    
    38   23   47 1    
    39   24   25 1    
    40   25   26 1    
    41   25   27 1    
    42   27   48 1    
    43   28   29 1    
    44   29   30 2    
    45   29   31 1    
    46   31   36 ar   
    47   31   32 ar   
    48   32   33 ar   
    49   32   49 1    
    50   33   34 ar   
    51   33   50 1    
    52   34   35 ar   
    53   34   51 1    
    54   35   36 ar   
    55   35   52 1    
    56   36   53 1    
@<TRIPOS>SUBSTRUCTURE
     1 UNK         1 GROUP             0       ****    0 ROOT    
