ZINC10031288_1117
                    3D
 Schrodinger Suite 2024-2.
 59 63  0  0  1  0            999 V2000
    3.9582   52.6271   15.6426 C   0  0  0  0  0  0
    2.4491   52.3373   17.6616 C   0  0  0  0  0  0
    2.4858   51.8736   19.1349 C   0  0  0  0  0  0
    3.4779   52.6979   19.9583 C   0  0  0  0  0  0
    4.4280   53.5210   19.3376 C   0  0  0  0  0  0
    5.4014   54.3714   20.4779 S   0  0  0  0  0  0
    4.5751   53.6020   21.8110 C   0  0  0  0  0  0
    3.5174   52.7898   21.3683 C   0  0  0  0  0  0
    2.5904   52.0942   22.2788 C   0  0  0  0  0  0
    2.0844   52.6764   23.3331 N   0  0  0  0  0  0
    1.3319   51.8248   24.0771 C   0  0  0  0  0  0
    0.6737   52.1694   25.2654 C   0  0  0  0  0  0
   -0.0198   51.1734   25.9567 C   0  0  0  0  0  0
   -0.0684   49.8648   25.4780 C   0  0  0  0  0  0
    0.5593   49.5031   24.2842 C   0  0  0  0  0  0
    1.2599   50.4967   23.5847 C   0  0  0  0  0  0
    2.1710   50.4006   22.0828 S   0  0  0  0  0  0
    4.9696   53.7453   23.1400 N   0  0  0  0  0  0
    5.9832   54.4797   23.6473 C   0  0  0  0  0  0
    6.7044   55.2351   22.9983 O   0  0  0  0  0  0
    6.2325   54.3568   25.1554 C   0  0  0  0  0  0
    5.1878   55.0809   26.0217 C   0  0  0  0  0  0
    3.5080   54.3847   26.0489 S   0  0  0  0  0  0
    3.1893   53.7577   27.6696 C   0  0  0  0  0  0
    1.9199   53.9288   28.2177 C   0  0  0  0  0  0
    1.6256   53.3921   29.4672 C   0  0  0  0  0  0
    2.6062   52.6818   30.1760 C   0  0  0  0  0  0
    3.8807   52.5402   29.6286 C   0  0  0  0  0  0
    4.1769   53.0724   28.3769 C   0  0  0  0  0  0
    2.4001   52.0966   31.4089 O   0  0  0  0  0  0
    1.0960   52.1206   31.9863 C   0  0  0  0  0  0
    4.5714   53.7246   17.8385 C   0  0  0  0  0  0
    3.3946   53.5150   15.3485 H   0  0  0  0  0  0
    5.0100   52.7044   15.3623 H   0  0  0  0  0  0
    3.5225   51.7147   15.2292 H   0  0  0  0  0  0
    1.9536   53.3012   17.5182 H   0  0  0  0  0  0
    1.9765   51.5740   17.0385 H   0  0  0  0  0  0
    2.8055   50.8297   19.1666 H   0  0  0  0  0  0
    1.4830   51.9070   19.5617 H   0  0  0  0  0  0
    0.7233   53.1760   25.6481 H   0  0  0  0  0  0
   -0.5167   51.4124   26.8864 H   0  0  0  0  0  0
   -0.6003   49.1173   26.0550 H   0  0  0  0  0  0
    0.5293   48.4841   23.9278 H   0  0  0  0  0  0
    4.3906   53.2589   23.8093 H   0  0  0  0  0  0
    7.2456   54.6686   25.4114 H   0  0  0  0  0  0
    6.1927   53.2968   25.3951 H   0  0  0  0  0  0
    5.1183   56.1091   25.6816 H   0  0  0  0  0  0
    5.5407   55.1278   27.0526 H   0  0  0  0  0  0
    1.1568   54.4652   27.6744 H   0  0  0  0  0  0
    0.6314   53.5273   29.8636 H   0  0  0  0  0  0
    4.6417   51.9987   30.1719 H   0  0  0  0  0  0
    5.1584   52.9227   27.9516 H   0  0  0  0  0  0
    1.0930   51.5022   32.8821 H   0  0  0  0  0  0
    0.3405   51.7104   31.3148 H   0  0  0  0  0  0
    0.8003   53.1294   32.2772 H   0  0  0  0  0  0
    4.0605   54.6215   17.4816 H   0  0  0  0  0  0
    5.6097   53.7156   17.5021 H   0  0  0  0  0  0
    3.9053   52.4968   17.1792 N   0  3  2  0  0  0
    4.4134   51.6406   17.4368 H   0  0  0  0  0  0
  1 33  1  0  0  0
  1 34  1  0  0  0
  1 35  1  0  0  0
  1 58  1  0  0  0
  2  3  1  0  0  0
  2 36  1  0  0  0
  2 37  1  0  0  0
  2 58  1  0  0  0
  3  4  1  0  0  0
  3 38  1  0  0  0
  3 39  1  0  0  0
  4  8  1  0  0  0
  4  5  2  0  0  0
  5  6  1  0  0  0
  5 32  1  0  0  0
  6  7  1  0  0  0
  7  8  2  0  0  0
  7 18  1  0  0  0
  8  9  1  0  0  0
  9 17  1  0  0  0
  9 10  2  0  0  0
 10 11  1  0  0  0
 11 16  2  0  0  0
 11 12  1  0  0  0
 12 13  2  0  0  0
 12 40  1  0  0  0
 13 14  1  0  0  0
 13 41  1  0  0  0
 14 15  2  0  0  0
 14 42  1  0  0  0
 15 16  1  0  0  0
 15 43  1  0  0  0
 16 17  1  0  0  0
 18 19  1  0  0  0
 18 44  1  0  0  0
 19 20  2  0  0  0
 19 21  1  0  0  0
 21 22  1  0  0  0
 21 45  1  0  0  0
 21 46  1  0  0  0
 22 23  1  0  0  0
 22 47  1  0  0  0
 22 48  1  0  0  0
 23 24  1  0  0  0
 24 29  2  0  0  0
 24 25  1  0  0  0
 25 26  2  0  0  0
 25 49  1  0  0  0
 26 27  1  0  0  0
 26 50  1  0  0  0
 27 28  2  0  0  0
 27 30  1  0  0  0
 28 29  1  0  0  0
 28 51  1  0  0  0
 29 52  1  0  0  0
 30 31  1  0  0  0
 31 53  1  0  0  0
 31 54  1  0  0  0
 31 55  1  0  0  0
 32 56  1  0  0  0
 32 57  1  0  0  0
 32 58  1  0  0  0
 58 59  1  0  0  0
M  CHG  1  58   1
M  END
> <i_i_glide_confnum>
81

> <i_i_glide_lignum>
1118

> <i_i_glide_posenum>
211

> <i_i_glide_rotatable_bonds>
8

> <i_m_Source_File_Index>
3527

> <b_m_subgroup_collapsed>
0

> <r_i_docking_score>
-6.43789

> <r_i_glide_ecoul>
-4.68859

> <r_i_glide_eff_state_penalty>
0

> <r_i_glide_einternal>
9.03266

> <r_i_glide_emodel>
-75.0769

> <r_i_glide_energy>
-55.9019

> <r_i_glide_erotb>
0.578667

> <r_i_glide_esite>
-0.0776071

> <r_i_glide_evdw>
-51.2133

> <r_i_glide_gscore>
-6.43789

> <r_i_glide_hbond>
-0.485066

> <r_i_glide_ligand_efficiency>
-0.195088

> <r_i_glide_ligand_efficiency_ln>
-1.43175

> <r_i_glide_ligand_efficiency_sa>
-0.62575

> <r_i_glide_lipo>
-2.67981

> <r_i_glide_metal>
0

> <r_i_glide_rewards>
-0.510125

> <s_i_glide_gridfile>
wee1_glide-grid

> <s_m_Source_File>
wee1_decoys_glide_SP.sdf

> <s_m_Source_Path>
/Users/zhangxujun/Desktop

> <s_m_entry_id>
3802

> <s_m_entry_name>
wee1_decoys_glide_SP.3527

> <s_m_subgroup_title>
wee1_decoys_glide_SP

> <s_m_subgroupid>
wee1_decoys_glide_SP


$$$$
