@<TRIPOS>MOLECULE
ZINC53546460_4595
53   54    1
SMALL
USER_CHARGES


@<TRIPOS>ATOM
      1 C1          3.6040   54.0964   28.0550 C.3       1 UNK         0.0000 
      2 C2          4.0096   54.0992   26.5932 C.ar      1 UNK         0.0000 
      3 C3          5.2906   54.4970   26.2148 C.ar      1 UNK         0.0000 
      4 C4          5.6527   54.4989   24.8703 C.ar      1 UNK         0.0000 
      5 C5          4.7425   54.0992   23.8792 C.ar      1 UNK         0.0000 
      6 C6          3.4465   53.6968   24.2585 C.ar      1 UNK         0.0000 
      7 C7          3.0958   53.7011   25.6174 C.ar      1 UNK         0.0000 
      8 O8          2.5652   53.3016   23.2650 O.3       1 UNK         0.0000 
      9 C9          1.7277   52.1487   23.4624 C.3       1 UNK         0.0000 
     10 H10         2.2390   51.3937   24.0632 H         1 UNK         0.0000 
     11 C11         1.4779   51.5594   22.0596 C.3       1 UNK         0.0000 
     12 C12         0.3829   52.5304   24.1159 C.2       1 UNK         0.0000 
     13 O13        -0.0014   53.6966   24.0817 O.2       1 UNK         0.0000 
     14 N14        -0.2909   51.5302   24.7249 N.am      1 UNK         0.0000 
     15 C15        -1.4731   51.6396   25.4837 C.ar      1 UNK         0.0000 
     16 C16        -1.4376   50.9880   26.7186 C.ar      1 UNK         0.0000 
     17 C17        -2.5376   51.0138   27.5661 C.ar      1 UNK         0.0000 
     18 C18        -3.6862   51.6963   27.1945 C.ar      1 UNK         0.0000 
     19 C19        -3.7586   52.3524   25.9619 C.ar      1 UNK         0.0000 
     20 C20        -2.6605   52.2976   25.0714 C.ar      1 UNK         0.0000 
     21 C21        -2.7954   52.8700   23.6624 C.3       1 UNK         0.0000 
     22 S22        -5.2736   53.2673   25.6060 S.o2      1 UNK         0.0000 
     23 O23        -6.0621   53.3296   26.8413 O.2       1 UNK         0.0000 
     24 O24        -4.8990   54.4967   24.9016 O.2       1 UNK         0.0000 
     25 N25        -6.1675   52.2639   24.4920 N.pl3     1 UNK         0.0000 
     26 C26         5.1493   54.0654   22.3947 C.3       1 UNK         0.0000 
     27 C27         6.4011   54.8970   22.0336 C.3       1 UNK         0.0000 
     28 C28         5.3158   52.6154   21.9019 C.3       1 UNK         0.0000 
     29 H29         2.7691   54.7799   28.2131 H         1 UNK         0.0000 
     30 H30         3.2716   53.0995   28.3480 H         1 UNK         0.0000 
     31 H31         4.4239   54.3899   28.7121 H         1 UNK         0.0000 
     32 H32         6.0089   54.8035   26.9615 H         1 UNK         0.0000 
     33 H33         6.6565   54.8023   24.6154 H         1 UNK         0.0000 
     34 H34         2.1075   53.4080   25.9321 H         1 UNK         0.0000 
     35 H35         0.8184   50.6912   22.0933 H         1 UNK         0.0000 
     36 H36         1.0276   52.2961   21.3918 H         1 UNK         0.0000 
     37 H37         2.4058   51.2297   21.5949 H         1 UNK         0.0000 
     38 H38         0.1852   50.6440   24.8032 H         1 UNK         0.0000 
     39 H39        -0.5578   50.4464   27.0396 H         1 UNK         0.0000 
     40 H40        -2.4959   50.4968   28.5152 H         1 UNK         0.0000 
     41 H41        -4.5202   51.7073   27.8809 H         1 UNK         0.0000 
     42 H42        -2.5881   53.9404   23.6560 H         1 UNK         0.0000 
     43 H43        -2.1441   52.3688   22.9481 H         1 UNK         0.0000 
     44 H44        -3.7989   52.7111   23.2820 H         1 UNK         0.0000 
     45 H45        -5.7796   52.2183   23.5481 H         1 UNK         0.0000 
     46 H46        -6.4514   51.3608   24.8770 H         1 UNK         0.0000 
     47 H47         4.3217   54.5158   21.8416 H         1 UNK         0.0000 
     48 H48         6.3057   55.9307   22.3642 H         1 UNK         0.0000 
     49 H49         7.3102   54.4880   22.4770 H         1 UNK         0.0000 
     50 H50         6.5538   54.9205   20.9541 H         1 UNK         0.0000 
     51 H51         4.4254   52.0203   22.0812 H         1 UNK         0.0000 
     52 H52         5.5043   52.5761   20.8284 H         1 UNK         0.0000 
     53 H53         6.1360   52.1163   22.4168 H         1 UNK         0.0000 
@<TRIPOS>BOND
     1    1    2 1    
     2    1   29 1    
     3    1   30 1    
     4    1   31 1    
     5    2    7 ar   
     6    2    3 ar   
     7    3    4 ar   
     8    3   32 1    
     9    4    5 ar   
    10    4   33 1    
    11    5    6 ar   
    12    5   26 1    
    13    6    7 ar   
    14    6    8 1    
    15    7   34 1    
    16    8    9 1    
    17    9   10 1    
    18    9   11 1    
    19    9   12 1    
    20   11   35 1    
    21   11   36 1    
    22   11   37 1    
    23   12   13 2    
    24   12   14 am   BACKBONE|DICT|INTERRES
    25   14   15 1    
    26   14   38 1    
    27   15   20 ar   
    28   15   16 ar   
    29   16   17 ar   
    30   16   39 1    
    31   17   18 ar   
    32   17   40 1    
    33   18   19 ar   
    34   18   41 1    
    35   19   20 ar   
    36   19   22 1    
    37   20   21 1    
    38   21   42 1    
    39   21   43 1    
    40   21   44 1    
    41   22   23 2    
    42   22   24 2    
    43   22   25 1    
    44   25   45 1    
    45   25   46 1    
    46   26   27 1    
    47   26   28 1    
    48   26   47 1    
    49   27   48 1    
    50   27   49 1    
    51   27   50 1    
    52   28   51 1    
    53   28   52 1    
    54   28   53 1    
@<TRIPOS>SUBSTRUCTURE
     1 UNK         1 GROUP             0       ****    0 ROOT    
