@<TRIPOS>MOLECULE
ZINC04079164_3477
64   68    1
SMALL
USER_CHARGES


@<TRIPOS>ATOM
      1 C1         -0.7029   49.9437   25.8355 C.3       1 UNK         0.0000 
      2 C2          0.4992   50.6907   26.4553 C.3       1 UNK         0.0000 
      3 N3          0.1569   51.5791   27.6831 N.4       1 UNK         0.0000 
      4 C4         -1.2153   52.2559   27.5691 C.3       1 UNK         0.0000 
      5 C5         -2.2942   51.2886   27.0745 C.3       1 UNK         0.0000 
      6 N6         -1.9851   50.6666   25.7765 N.pl3     1 UNK         0.0000 
      7 C7         -2.9724   50.3675   24.8339 C.ar      1 UNK         0.0000 
      8 N8         -4.1822   50.9617   24.9878 N.ar      1 UNK         0.0000 
      9 C9         -5.0824   50.7472   23.9976 C.ar      1 UNK         0.0000 
     10 N10        -4.8512   50.0038   22.8918 N.ar      1 UNK         0.0000 
     11 C11        -3.6136   49.4565   22.8275 C.ar      1 UNK         0.0000 
     12 N12        -2.6313   49.6142   23.7554 N.ar      1 UNK         0.0000 
     13 O13        -3.3764   48.6897   21.7033 O.3       1 UNK         0.0000 
     14 C14        -2.0945   48.0756   21.5308 C.3       1 UNK         0.0000 
     15 C15        -2.0917   47.1825   20.2818 C.3       1 UNK         0.0000 
     16 F16        -0.8967   46.6186   20.1103 F         1 UNK         0.0000 
     17 F17        -2.9851   46.1987   20.3855 F         1 UNK         0.0000 
     18 F18        -2.3682   47.8789   19.1804 F         1 UNK         0.0000 
     19 N19        -6.3336   51.3712   24.0698 N.pl3     1 UNK         0.0000 
     20 C20        -6.6622   52.2941   25.1569 C.3       1 UNK         0.0000 
     21 C21        -6.2052   53.7397   24.8962 C.3       1 UNK         0.0000 
     22 O22        -6.1895   54.4956   26.0886 O.3       1 UNK         0.0000 
     23 C23         1.3075   52.5174   28.2091 C.3       1 UNK         0.0000 
     24 C24         1.9665   53.3431   27.0557 C.3       1 UNK         0.0000 
     25 C25         3.1373   54.1915   27.6203 C.3       1 UNK         0.0000 
     26 C26         2.6106   55.1563   28.7146 C.3       1 UNK         0.0000 
     27 C27         1.9753   54.3421   29.8700 C.3       1 UNK         0.0000 
     28 C28         0.7945   53.4979   29.3161 C.3       1 UNK         0.0000 
     29 C29         3.0528   53.4007   30.4777 C.3       1 UNK         0.0000 
     30 C30         3.5602   52.4218   29.3940 C.3       1 UNK         0.0000 
     31 C31         4.1976   53.2396   28.2378 C.3       1 UNK         0.0000 
     32 C32         2.3609   51.5983   28.8596 C.3       1 UNK         0.0000 
     33 H33        -0.9359   49.0992   26.4818 H         1 UNK         0.0000 
     34 H34        -0.4154   49.5063   24.8790 H         1 UNK         0.0000 
     35 H35         0.9512   51.3182   25.6920 H         1 UNK         0.0000 
     36 H36         1.1932   49.9460   26.8448 H         1 UNK         0.0000 
     37 H37        -1.1150   53.1486   26.9538 H         1 UNK         0.0000 
     38 H38        -1.4421   52.4964   28.6045 H         1 UNK         0.0000 
     39 H39        -3.2619   51.7894   27.0839 H         1 UNK         0.0000 
     40 H40        -2.3886   50.4627   27.7821 H         1 UNK         0.0000 
     41 H41        -1.3272   48.8456   21.4320 H         1 UNK         0.0000 
     42 H42        -1.8406   47.4696   22.4030 H         1 UNK         0.0000 
     43 H43        -6.9153   51.3424   23.2445 H         1 UNK         0.0000 
     44 H44        -6.2356   51.9382   26.0962 H         1 UNK         0.0000 
     45 H45        -7.7356   52.2679   25.3449 H         1 UNK         0.0000 
     46 H46        -6.7747   54.1969   24.0861 H         1 UNK         0.0000 
     47 H47        -5.1910   53.7283   24.4917 H         1 UNK         0.0000 
     48 H48        -5.5638   54.0941   26.6970 H         1 UNK         0.0000 
     49 H49         2.3842   52.7058   26.2784 H         1 UNK         0.0000 
     50 H50         1.2384   53.9888   26.5697 H         1 UNK         0.0000 
     51 H51         3.5922   54.7694   26.8139 H         1 UNK         0.0000 
     52 H52         3.4277   55.7664   29.1009 H         1 UNK         0.0000 
     53 H53         1.8846   55.8528   28.2915 H         1 UNK         0.0000 
     54 H54         1.5981   55.0284   30.6309 H         1 UNK         0.0000 
     55 H55         0.0431   54.1809   28.9197 H         1 UNK         0.0000 
     56 H56         0.3190   52.9505   30.1328 H         1 UNK         0.0000 
     57 H57         3.9058   53.9669   30.8573 H         1 UNK         0.0000 
     58 H58         2.6331   52.8574   31.3237 H         1 UNK         0.0000 
     59 H59         4.3081   51.7517   29.8208 H         1 UNK         0.0000 
     60 H60         4.5983   52.5695   27.4753 H         1 UNK         0.0000 
     61 H61         5.0515   53.8123   28.6047 H         1 UNK         0.0000 
     62 H62         1.9047   51.0203   29.6606 H         1 UNK         0.0000 
     63 H63         2.7043   50.8969   28.1170 H         1 UNK         0.0000 
     64 H64        -0.0257   50.8926   28.4040 H         1 UNK         0.0000 
@<TRIPOS>BOND
     1    1    6 1    
     2    1    2 1    
     3    1   33 1    
     4    1   34 1    
     5    2    3 1    
     6    2   35 1    
     7    2   36 1    
     8    3    4 1    
     9    3   23 1    
    10    3   64 1    
    11    4    5 1    
    12    4   37 1    
    13    4   38 1    
    14    5    6 1    
    15    5   39 1    
    16    5   40 1    
    17    6    7 1    
    18    7   12 ar   
    19    7    8 ar   
    20    8    9 ar   
    21    9   10 ar   
    22    9   19 1    
    23   10   11 ar   
    24   11   12 ar   
    25   11   13 1    
    26   13   14 1    
    27   14   15 1    
    28   14   41 1    
    29   14   42 1    
    30   15   16 1    
    31   15   17 1    
    32   15   18 1    
    33   19   20 1    
    34   19   43 1    
    35   20   21 1    
    36   20   44 1    
    37   20   45 1    
    38   21   22 1    
    39   21   46 1    
    40   21   47 1    
    41   22   48 1    
    42   23   28 1    
    43   23   32 1    
    44   23   24 1    
    45   24   25 1    
    46   24   49 1    
    47   24   50 1    
    48   25   31 1    
    49   25   26 1    
    50   25   51 1    
    51   26   27 1    
    52   26   52 1    
    53   26   53 1    
    54   27   28 1    
    55   27   29 1    
    56   27   54 1    
    57   28   55 1    
    58   28   56 1    
    59   29   30 1    
    60   29   57 1    
    61   29   58 1    
    62   30   31 1    
    63   30   32 1    
    64   30   59 1    
    65   31   60 1    
    66   31   61 1    
    67   32   62 1    
    68   32   63 1    
@<TRIPOS>SUBSTRUCTURE
     1 UNK         1 GROUP             0       ****    0 ROOT    
