ZINC39686734_397
                    3D
 Schrodinger Suite 2024-2.
 75 79  0  0  1  0            999 V2000
    0.3017   52.6956   27.3940 C   0  0  0  0  0  0
    1.6675   53.0357   26.8429 C   0  0  0  0  0  0
    2.1885   53.3456   25.5920 C   0  0  0  0  0  0
    3.5340   53.6988   25.8480 C   0  0  0  0  0  0
    3.8198   53.5422   27.1286 N   0  0  0  0  0  0
    2.6549   53.1221   27.7628 O   0  0  0  0  0  0
    4.6213   54.1400   24.8990 C   0  0  0  0  0  0
    4.6248   53.7389   23.5534 C   0  0  0  0  0  0
    5.6608   54.1077   22.7015 C   0  0  0  0  0  0
    6.7020   54.8917   23.1857 C   0  0  0  0  0  0
    6.7105   55.3076   24.5141 C   0  0  0  0  0  0
    5.6792   54.9311   25.3680 C   0  0  0  0  0  0
    1.4777   53.4639   24.3426 C   0  0  0  0  0  0
    1.6021   54.4967   23.6828 O   0  0  0  0  0  0
    0.6902   52.4331   23.9417 N   0  0  0  0  0  0
   -0.0102   52.5081   22.6611 C   0  0  0  0  0  0
   -0.2409   51.0389   22.2756 C   0  0  1  0  0  0
    0.6425   50.6757   21.7449 H   0  0  0  0  0  0
   -0.3996   50.3074   23.6384 C   0  0  0  0  0  0
    0.6631   51.0663   24.4774 C   0  0  0  0  0  0
   -1.8262   50.4361   24.2618 C   0  0  0  0  0  0
   -1.8948   49.8736   25.6978 C   0  0  0  0  0  0
   -1.4377   48.3971   25.6804 N   0  3  0  0  0  0
   -0.1021   48.1294   24.9402 C   0  0  0  0  0  0
   -0.1576   48.7843   23.5441 C   0  0  0  0  0  0
   -1.4494   51.0149   21.3042 C   0  0  0  0  0  0
   -2.4574   51.6849   21.5334 O   0  0  0  0  0  0
   -1.2849   50.3327   20.1582 N   0  0  0  0  0  0
   -2.2463   50.2314   19.0485 C   0  0  1  0  0  0
   -1.7513   49.5578   18.3442 H   0  0  0  0  0  0
   -3.5693   49.5486   19.4810 C   0  0  0  0  0  0
   -2.4588   51.5913   18.3242 C   0  0  0  0  0  0
   -3.0500   51.5841   16.9041 C   0  0  0  0  0  0
   -3.3413   50.3879   16.2270 C   0  0  0  0  0  0
   -3.8653   50.4098   14.9370 C   0  0  0  0  0  0
   -4.1117   51.6241   14.3032 C   0  0  0  0  0  0
   -3.8205   52.8167   14.9586 C   0  0  0  0  0  0
   -3.2833   52.8151   16.2593 C   0  0  0  0  0  0
   -2.9583   53.9755   16.9469 O   0  0  0  0  0  0
   -3.0866   55.2326   16.2916 C   0  0  0  0  0  0
   -0.4862   52.8341   26.6541 H   0  0  0  0  0  0
    0.2580   51.6705   27.7568 H   0  0  0  0  0  0
    0.0509   53.3418   28.2344 H   0  0  0  0  0  0
    3.8407   53.1139   23.1564 H   0  0  0  0  0  0
    5.6531   53.7871   21.6697 H   0  0  0  0  0  0
    7.5115   55.1818   22.5302 H   0  0  0  0  0  0
    7.5173   55.9275   24.8738 H   0  0  0  0  0  0
    5.7072   55.2605   26.3978 H   0  0  0  0  0  0
    0.5483   53.0118   21.8674 H   0  0  0  0  0  0
   -0.9678   52.9778   22.8881 H   0  0  0  0  0  0
    0.5843   50.9493   25.5533 H   0  0  0  0  0  0
    1.6371   50.6355   24.2388 H   0  0  0  0  0  0
   -2.1031   51.4906   24.3203 H   0  0  0  0  0  0
   -2.5906   49.9733   23.6331 H   0  0  0  0  0  0
   -1.2537   50.3831   26.4147 H   0  0  0  0  0  0
   -2.9095   49.8702   26.0991 H   0  0  0  0  0  0
   -1.3761   48.1018   26.6608 H   0  0  0  0  0  0
    0.6944   48.5156   25.5794 H   0  0  0  0  0  0
   -0.0080   47.0458   24.8784 H   0  0  0  0  0  0
   -0.8838   48.3006   22.8881 H   0  0  0  0  0  0
    0.8156   48.6076   23.0809 H   0  0  0  0  0  0
   -0.4022   49.8695   20.0094 H   0  0  0  0  0  0
   -4.2876   49.5191   18.6634 H   0  0  0  0  0  0
   -3.4062   48.5145   19.7879 H   0  0  0  0  0  0
   -4.0657   50.0884   20.2894 H   0  0  0  0  0  0
   -1.4932   52.0986   18.2451 H   0  0  0  0  0  0
   -3.0782   52.2341   18.9511 H   0  0  0  0  0  0
   -3.1612   49.4226   16.6744 H   0  0  0  0  0  0
   -4.0836   49.4820   14.4282 H   0  0  0  0  0  0
   -4.5170   51.6408   13.3031 H   0  0  0  0  0  0
   -4.0216   53.7389   14.4345 H   0  0  0  0  0  0
   -2.7200   56.0306   16.9375 H   0  0  0  0  0  0
   -2.5004   55.2705   15.3707 H   0  0  0  0  0  0
   -4.1283   55.4520   16.0553 H   0  0  0  0  0  0
   -2.1678   47.8395   25.2613 H   0  0  0  0  0  0
  1  2  1  0  0  0
  1 41  1  0  0  0
  1 42  1  0  0  0
  1 43  1  0  0  0
  2  6  1  0  0  0
  2  3  2  0  0  0
  3  4  1  0  0  0
  3 13  1  0  0  0
  4  5  2  0  0  0
  4  7  1  0  0  0
  5  6  1  0  0  0
  7 12  2  0  0  0
  7  8  1  0  0  0
  8  9  2  0  0  0
  8 44  1  0  0  0
  9 10  1  0  0  0
  9 45  1  0  0  0
 10 11  2  0  0  0
 10 46  1  0  0  0
 11 12  1  0  0  0
 11 47  1  0  0  0
 12 48  1  0  0  0
 13 14  2  0  0  0
 13 15  1  0  0  0
 15 20  1  0  0  0
 15 16  1  0  0  0
 16 17  1  0  0  0
 16 49  1  0  0  0
 16 50  1  0  0  0
 17 18  1  0  0  0
 17 19  1  0  0  0
 17 26  1  0  0  0
 19 25  1  0  0  0
 19 20  1  0  0  0
 19 21  1  0  0  0
 20 51  1  0  0  0
 20 52  1  0  0  0
 21 22  1  0  0  0
 21 53  1  0  0  0
 21 54  1  0  0  0
 22 23  1  0  0  0
 22 55  1  0  0  0
 22 56  1  0  0  0
 23 24  1  0  0  0
 23 57  1  0  0  0
 23 75  1  0  0  0
 24 25  1  0  0  0
 24 58  1  0  0  0
 24 59  1  0  0  0
 25 60  1  0  0  0
 25 61  1  0  0  0
 26 27  2  0  0  0
 26 28  1  0  0  0
 28 29  1  0  0  0
 28 62  1  0  0  0
 29 30  1  0  0  0
 29 31  1  0  0  0
 29 32  1  0  0  0
 31 63  1  0  0  0
 31 64  1  0  0  0
 31 65  1  0  0  0
 32 33  1  0  0  0
 32 66  1  0  0  0
 32 67  1  0  0  0
 33 38  2  0  0  0
 33 34  1  0  0  0
 34 35  2  0  0  0
 34 68  1  0  0  0
 35 36  1  0  0  0
 35 69  1  0  0  0
 36 37  2  0  0  0
 36 70  1  0  0  0
 37 38  1  0  0  0
 37 71  1  0  0  0
 38 39  1  0  0  0
 39 40  1  0  0  0
 40 72  1  0  0  0
 40 73  1  0  0  0
 40 74  1  0  0  0
M  CHG  1  23   1
M  END
> <i_i_glide_confnum>
320

> <i_i_glide_lignum>
398

> <i_i_glide_posenum>
301

> <i_i_glide_rotatable_bonds>
9

> <i_m_Source_File_Index>
3986

> <b_m_subgroup_collapsed>
0

> <r_i_docking_score>
-5.22319

> <r_i_glide_ecoul>
-6.69163

> <r_i_glide_eff_state_penalty>
0

> <r_i_glide_einternal>
3.94831

> <r_i_glide_emodel>
-58.0734

> <r_i_glide_energy>
-43.4352

> <r_i_glide_erotb>
0.613047

> <r_i_glide_esite>
-0.102825

> <r_i_glide_evdw>
-36.7435

> <r_i_glide_gscore>
-5.22319

> <r_i_glide_hbond>
-0.2

> <r_i_glide_ligand_efficiency>
-0.137452

> <r_i_glide_ligand_efficiency_ln>
-1.12627

> <r_i_glide_ligand_efficiency_sa>
-0.462111

> <r_i_glide_lipo>
-2.18981

> <r_i_glide_metal>
0

> <r_i_glide_rewards>
-0.502679

> <s_i_glide_gridfile>
wee1_glide-grid

> <s_m_Source_File>
wee1_decoys_glide_SP.sdf

> <s_m_Source_Path>
/Users/zhangxujun/Desktop

> <s_m_entry_id>
4261

> <s_m_entry_name>
wee1_decoys_glide_SP.3986

> <s_m_subgroup_title>
wee1_decoys_glide_SP

> <s_m_subgroupid>
wee1_decoys_glide_SP


$$$$
