ZINC36395877_1626
                    3D
 Schrodinger Suite 2024-2.
 34 35  0  0  1  0            999 V2000
    7.1048   54.4895   24.5862 C   0  0  0  0  0  0
    6.1033   54.3091   25.7084 C   0  0  0  0  0  0
    6.4824   53.6975   26.9056 C   0  0  0  0  0  0
    5.5313   53.4625   27.8972 C   0  0  0  0  0  0
    4.1997   53.8347   27.6958 C   0  0  0  0  0  0
    3.8437   54.4967   26.5130 C   0  0  0  0  0  0
    4.7877   54.7226   25.5205 C   0  0  0  0  0  0
    3.0039   53.4729   29.0054 S   0  0  0  0  0  0
    3.1596   52.0376   29.2758 O   0  0  0  0  0  0
    3.3761   54.3962   30.0811 O   0  0  0  0  0  0
    1.6448   53.8588   28.3239 N   0  5  0  0  0  0
    0.8169   52.8706   27.8614 C   0  0  0  0  0  0
    0.8117   52.5246   26.5009 C   0  0  0  0  0  0
   -0.0923   51.5909   25.9868 C   0  0  0  0  0  0
   -0.9946   50.9669   26.8480 C   0  0  0  0  0  0
   -1.0034   51.2969   28.2007 C   0  0  0  0  0  0
   -0.1058   52.2337   28.7075 C   0  0  0  0  0  0
   -0.1616   52.5369   30.0280 F   0  0  0  0  0  0
   -0.1422   51.2531   24.2269 S   0  0  0  0  0  0
   -0.8761   50.0019   24.0204 O   0  0  0  0  0  0
   -0.5655   52.4975   23.5773 O   0  0  0  0  0  0
    1.5040   50.9666   23.7387 N   0  0  0  0  0  0
    7.5689   53.5333   24.3426 H   0  0  0  0  0  0
    7.9042   55.1671   24.8822 H   0  0  0  0  0  0
    6.6455   54.8736   23.6752 H   0  0  0  0  0  0
    7.5021   53.3764   27.0595 H   0  0  0  0  0  0
    5.8214   52.9695   28.8135 H   0  0  0  0  0  0
    2.8342   54.8306   26.3406 H   0  0  0  0  0  0
    4.4881   55.2049   24.6018 H   0  0  0  0  0  0
    1.4950   53.0148   25.8241 H   0  0  0  0  0  0
   -1.6972   50.2319   26.4806 H   0  0  0  0  0  0
   -1.7092   50.8191   28.8643 H   0  0  0  0  0  0
    1.7484   49.9743   23.6854 H   0  0  0  0  0  0
    1.7726   51.4936   22.9055 H   0  0  0  0  0  0
  1  2  1  0  0  0
  1 23  1  0  0  0
  1 24  1  0  0  0
  1 25  1  0  0  0
  2  7  2  0  0  0
  2  3  1  0  0  0
  3  4  2  0  0  0
  3 26  1  0  0  0
  4  5  1  0  0  0
  4 27  1  0  0  0
  5  6  2  0  0  0
  5  8  1  0  0  0
  6  7  1  0  0  0
  6 28  1  0  0  0
  7 29  1  0  0  0
  8  9  2  0  0  0
  8 10  2  0  0  0
  8 11  1  0  0  0
 11 12  1  0  0  0
 12 17  2  0  0  0
 12 13  1  0  0  0
 13 14  2  0  0  0
 13 30  1  0  0  0
 14 15  1  0  0  0
 14 19  1  0  0  0
 15 16  2  0  0  0
 15 31  1  0  0  0
 16 17  1  0  0  0
 16 32  1  0  0  0
 17 18  1  0  0  0
 19 20  2  0  0  0
 19 21  2  0  0  0
 19 22  1  0  0  0
 22 33  1  0  0  0
 22 34  1  0  0  0
M  CHG  1  11  -1
M  END
> <i_i_glide_confnum>
6

> <i_i_glide_lignum>
1627

> <i_i_glide_posenum>
82

> <i_i_glide_rotatable_bonds>
4

> <i_m_Source_File_Index>
3870

> <b_m_subgroup_collapsed>
0

> <r_i_docking_score>
-3.01873

> <r_i_glide_ecoul>
-8.22153

> <r_i_glide_eff_state_penalty>
0

> <r_i_glide_einternal>
12.977

> <r_i_glide_emodel>
-34.5227

> <r_i_glide_energy>
-40.4795

> <r_i_glide_erotb>
0.482776

> <r_i_glide_esite>
-0.0974387

> <r_i_glide_evdw>
-32.258

> <r_i_glide_gscore>
-3.01873

> <r_i_glide_hbond>
0

> <r_i_glide_ligand_efficiency>
-0.137215

> <r_i_glide_ligand_efficiency_ln>
-0.737887

> <r_i_glide_ligand_efficiency_sa>
-0.384481

> <r_i_glide_lipo>
-2.00616

> <r_i_glide_metal>
0

> <r_i_glide_rewards>
1.44822

> <s_i_glide_gridfile>
wee1_glide-grid

> <s_m_Source_File>
wee1_decoys_glide_SP.sdf

> <s_m_Source_Path>
/Users/zhangxujun/Desktop

> <s_m_entry_id>
4145

> <s_m_entry_name>
wee1_decoys_glide_SP.3870

> <s_m_subgroup_title>
wee1_decoys_glide_SP

> <s_m_subgroupid>
wee1_decoys_glide_SP


$$$$
