ZINC12485510_3154
                    3D
 Schrodinger Suite 2024-2.
 66 69  0  0  1  0            999 V2000
    5.1020   53.8924   29.1591 C   0  0  0  0  0  0
    4.5056   53.9849   27.7783 C   0  0  0  0  0  0
    3.1226   53.9652   27.6223 C   0  0  0  0  0  0
    2.5753   54.0448   26.3500 C   0  0  0  0  0  0
    3.4019   54.1553   25.2321 C   0  0  0  0  0  0
    4.7915   54.1772   25.3948 C   0  0  0  0  0  0
    5.3431   54.0898   26.6683 C   0  0  0  0  0  0
    2.7701   54.3885   23.8646 C   0  0  0  0  0  0
    2.8555   53.2587   22.8994 N   0  0  0  0  0  0
    2.0395   52.0192   23.1965 C   0  0  2  0  0  0
    2.6569   51.4918   23.9213 H   0  0  0  0  0  0
    1.7908   51.1461   21.9735 C   0  0  0  0  0  0
    1.2941   51.7051   20.7875 C   0  0  0  0  0  0
    1.1298   50.9162   19.6530 C   0  0  0  0  0  0
    1.4594   49.5611   19.6958 C   0  0  0  0  0  0
    1.9226   48.9929   20.8811 C   0  0  0  0  0  0
    2.0908   49.7804   22.0180 C   0  0  0  0  0  0
    1.3260   48.7037   18.4520 C   0  0  0  0  0  0
    0.6715   52.2242   23.9002 C   0  0  0  0  0  0
   -0.0088   53.2296   23.6911 O   0  0  0  0  0  0
    0.3049   51.2421   24.7392 N   0  0  0  0  0  0
   -0.8642   51.2785   25.6182 C   0  0  0  0  0  0
   -0.4536   51.4645   27.0644 C   0  0  0  0  0  0
    0.7620   51.5384   27.7325 C   0  0  0  0  0  0
    0.4825   51.6981   29.0878 C   0  0  0  0  0  0
   -0.8951   51.6964   29.1963 C   0  0  0  0  0  0
   -1.4616   51.5719   27.9692 O   0  0  0  0  0  0
    3.9454   53.2306   22.0636 C   0  0  0  0  0  0
    4.3958   52.1875   21.5801 O   0  0  0  0  0  0
    4.6380   54.5595   21.7035 C   0  0  0  0  0  0
    5.5089   54.4244   20.5418 N   0  0  0  0  0  0
    6.4806   55.2972   20.2263 C   0  0  0  0  0  0
    6.7051   56.3352   20.8563 O   0  0  0  0  0  0
    7.3117   54.9016   19.1173 C   0  0  0  0  0  0
    8.6070   55.3485   18.8484 C   0  0  0  0  0  0
    9.1545   54.7826   17.6927 C   0  0  0  0  0  0
    8.2710   53.9319   17.0431 C   0  0  0  0  0  0
    6.7427   53.8322   17.8545 S   0  0  0  0  0  0
    4.3655   54.0838   29.9398 H   0  0  0  0  0  0
    5.5146   52.8926   29.2817 H   0  0  0  0  0  0
    5.9056   54.6201   29.2805 H   0  0  0  0  0  0
    2.4679   53.8892   28.4788 H   0  0  0  0  0  0
    1.5012   54.0504   26.2365 H   0  0  0  0  0  0
    5.4575   54.2691   24.5529 H   0  0  0  0  0  0
    6.4167   54.1051   26.7909 H   0  0  0  0  0  0
    3.2319   55.2966   23.4926 H   0  0  0  0  0  0
    1.7393   54.7136   23.9863 H   0  0  0  0  0  0
    1.0626   52.7605   20.7405 H   0  0  0  0  0  0
    0.7729   51.3678   18.7388 H   0  0  0  0  0  0
    2.1994   47.9503   20.9013 H   0  0  0  0  0  0
    2.4856   49.3334   22.9197 H   0  0  0  0  0  0
    0.6439   49.1497   17.7266 H   0  0  0  0  0  0
    2.3040   48.5660   17.9865 H   0  0  0  0  0  0
    0.9282   47.7195   18.7042 H   0  0  0  0  0  0
    0.8903   50.4236   24.8119 H   0  0  0  0  0  0
   -1.3679   50.3171   25.5141 H   0  0  0  0  0  0
   -1.5851   52.0383   25.3075 H   0  0  0  0  0  0
    1.7405   51.4669   27.2852 H   0  0  0  0  0  0
    1.1920   51.7652   29.8989 H   0  0  0  0  0  0
   -1.5694   51.7093   30.0386 H   0  0  0  0  0  0
    3.8744   55.2951   21.4868 H   0  0  0  0  0  0
    5.2436   54.8966   22.5409 H   0  0  0  0  0  0
    5.3878   53.5835   19.9930 H   0  0  0  0  0  0
    9.1480   56.0401   19.4810 H   0  0  0  0  0  0
   10.1571   54.9888   17.3451 H   0  0  0  0  0  0
    8.4391   53.3708   16.1355 H   0  0  0  0  0  0
  1  2  1  0  0  0
  1 39  1  0  0  0
  1 40  1  0  0  0
  1 41  1  0  0  0
  2  7  2  0  0  0
  2  3  1  0  0  0
  3  4  2  0  0  0
  3 42  1  0  0  0
  4  5  1  0  0  0
  4 43  1  0  0  0
  5  6  2  0  0  0
  5  8  1  0  0  0
  6  7  1  0  0  0
  6 44  1  0  0  0
  7 45  1  0  0  0
  8  9  1  0  0  0
  8 46  1  0  0  0
  8 47  1  0  0  0
  9 10  1  0  0  0
  9 28  1  0  0  0
 10 11  1  0  0  0
 10 12  1  0  0  0
 10 19  1  0  0  0
 12 17  2  0  0  0
 12 13  1  0  0  0
 13 14  2  0  0  0
 13 48  1  0  0  0
 14 15  1  0  0  0
 14 49  1  0  0  0
 15 16  2  0  0  0
 15 18  1  0  0  0
 16 17  1  0  0  0
 16 50  1  0  0  0
 17 51  1  0  0  0
 18 52  1  0  0  0
 18 53  1  0  0  0
 18 54  1  0  0  0
 19 20  2  0  0  0
 19 21  1  0  0  0
 21 22  1  0  0  0
 21 55  1  0  0  0
 22 23  1  0  0  0
 22 56  1  0  0  0
 22 57  1  0  0  0
 23 27  1  0  0  0
 23 24  2  0  0  0
 24 25  1  0  0  0
 24 58  1  0  0  0
 25 26  2  0  0  0
 25 59  1  0  0  0
 26 27  1  0  0  0
 26 60  1  0  0  0
 28 29  2  0  0  0
 28 30  1  0  0  0
 30 31  1  0  0  0
 30 61  1  0  0  0
 30 62  1  0  0  0
 31 32  1  0  0  0
 31 63  1  0  0  0
 32 33  2  0  0  0
 32 34  1  0  0  0
 34 38  1  0  0  0
 34 35  2  0  0  0
 35 36  1  0  0  0
 35 64  1  0  0  0
 36 37  2  0  0  0
 36 65  1  0  0  0
 37 38  1  0  0  0
 37 66  1  0  0  0
M  END
> <i_i_glide_confnum>
399

> <i_i_glide_lignum>
3155

> <i_i_glide_posenum>
132

> <i_i_glide_rotatable_bonds>
13

> <i_m_Source_File_Index>
4066

> <b_m_subgroup_collapsed>
0

> <r_i_docking_score>
-5.6278

> <r_i_glide_ecoul>
-4.70433

> <r_i_glide_eff_state_penalty>
0

> <r_i_glide_einternal>
20.4258

> <r_i_glide_emodel>
-62.3541

> <r_i_glide_energy>
-53.7263

> <r_i_glide_erotb>
0.849004

> <r_i_glide_esite>
0

> <r_i_glide_evdw>
-49.022

> <r_i_glide_gscore>
-5.6278

> <r_i_glide_hbond>
-0.114525

> <r_i_glide_ligand_efficiency>
-0.152103

> <r_i_glide_ligand_efficiency_ln>
-1.22054

> <r_i_glide_ligand_efficiency_sa>
-0.50684

> <r_i_glide_lipo>
-2.74592

> <r_i_glide_metal>
0

> <r_i_glide_rewards>
-0.459612

> <s_i_glide_gridfile>
wee1_glide-grid

> <s_m_Source_File>
wee1_decoys_glide_SP.sdf

> <s_m_Source_Path>
/Users/zhangxujun/Desktop

> <s_m_entry_id>
4341

> <s_m_entry_name>
wee1_decoys_glide_SP.4066

> <s_m_subgroup_title>
wee1_decoys_glide_SP

> <s_m_subgroupid>
wee1_decoys_glide_SP


$$$$
