@<TRIPOS>MOLECULE
ZINC14991263_1193
75   79    1
SMALL
USER_CHARGES


@<TRIPOS>ATOM
      1 C1          0.3045   53.9126   31.8460 C.3       1 UNK         0.0000 
      2 C2          0.5903   53.8155   30.3429 C.3       1 UNK         0.0000 
      3 H3         -0.0078   54.5693   29.8283 H         1 UNK         0.0000 
      4 C4          0.2356   52.4122   29.8140 C.3       1 UNK         0.0000 
      5 N5          0.7388   52.3021   28.4315 N.am      1 UNK         0.0000 
      6 C6          2.1861   52.5589   28.2791 C.3       1 UNK         0.0000 
      7 C7          2.4462   53.9874   28.8108 C.3       1 UNK         0.0000 
      8 H8          1.9487   54.7326   28.1841 H         1 UNK         0.0000 
      9 O9          1.9818   54.0822   30.1542 O.3       1 UNK         0.0000 
     10 C10         3.9456   54.3098   28.8218 C.3       1 UNK         0.0000 
     11 C11        -0.1135   51.9485   27.4266 C.2       1 UNK         0.0000 
     12 O12        -1.3043   51.6966   27.6103 O.2       1 UNK         0.0000 
     13 C13         0.4104   51.8563   26.0811 C.2       1 UNK         0.0000 
     14 C14         1.1047   52.7730   25.2855 C.2       1 UNK         0.0000 
     15 C15         1.3350   52.1263   24.0319 C.ar      1 UNK         0.0000 
     16 C16         1.9899   52.4438   22.8326 C.ar      1 UNK         0.0000 
     17 C17         2.0335   51.4921   21.7920 C.ar      1 UNK         0.0000 
     18 C18         1.3770   50.2586   21.9625 C.ar      1 UNK         0.0000 
     19 C19         0.7018   49.9194   23.1321 C.ar      1 UNK         0.0000 
     20 C20         0.7029   50.8698   24.1496 C.ar      1 UNK         0.0000 
     21 O21         0.1148   50.7272   25.3735 O.3       1 UNK         0.0000 
     22 C22         2.7827   51.7454   20.4590 C.3       1 UNK         0.0000 
     23 C23         1.7649   52.0336   19.3265 C.3       1 UNK         0.0000 
     24 C24         2.3900   52.3872   17.9643 C.3       1 UNK         0.0000 
     25 N25         3.3158   53.6111   18.1546 N.4       1 UNK         0.0000 
     26 C26         4.4504   53.2838   19.1544 C.3       1 UNK         0.0000 
     27 C27         3.8161   52.9088   20.5046 C.3       1 UNK         0.0000 
     28 C28         3.8888   54.0431   16.7813 C.3       1 UNK         0.0000 
     29 C29         4.7598   55.2925   16.8266 C.ar      1 UNK         0.0000 
     30 C30         6.1497   55.1670   16.8098 C.ar      1 UNK         0.0000 
     31 C31         6.9523   56.3020   16.8470 C.ar      1 UNK         0.0000 
     32 C32         6.3724   57.5737   16.8876 C.ar      1 UNK         0.0000 
     33 C33         4.9782   57.6993   16.8827 C.ar      1 UNK         0.0000 
     34 C34         4.1733   56.5609   16.8535 C.ar      1 UNK         0.0000 
     35 C35         7.2384   58.8335   16.9572 C.3       1 UNK         0.0000 
     36 C36         7.5620   59.1915   18.4206 C.3       1 UNK         0.0000 
     37 C37         8.5150   58.7666   16.0964 C.3       1 UNK         0.0000 
     38 O38         3.5044   50.5844   20.0819 O.3       1 UNK         0.0000 
     39 H39        -0.7353   53.6972   32.0809 H         1 UNK         0.0000 
     40 H40         0.9049   53.1943   32.4076 H         1 UNK         0.0000 
     41 H41         0.5324   54.9053   32.2288 H         1 UNK         0.0000 
     42 H42        -0.8292   52.2027   29.9260 H         1 UNK         0.0000 
     43 H43         0.7600   51.6902   30.4326 H         1 UNK         0.0000 
     44 H44         2.7354   51.8439   28.8919 H         1 UNK         0.0000 
     45 H45         2.5778   52.4240   27.2737 H         1 UNK         0.0000 
     46 H46         4.3612   54.2962   27.8139 H         1 UNK         0.0000 
     47 H47         4.1333   55.2975   29.2436 H         1 UNK         0.0000 
     48 H48         4.5038   53.5888   29.4205 H         1 UNK         0.0000 
     49 H49         1.4159   53.7600   25.5889 H         1 UNK         0.0000 
     50 H50         2.4674   53.4051   22.7499 H         1 UNK         0.0000 
     51 H51         1.4094   49.5286   21.1649 H         1 UNK         0.0000 
     52 H52         0.2150   48.9635   23.2564 H         1 UNK         0.0000 
     53 H53         1.0770   52.8191   19.6491 H         1 UNK         0.0000 
     54 H54         1.1122   51.1681   19.2050 H         1 UNK         0.0000 
     55 H55         1.6080   52.6795   17.2621 H         1 UNK         0.0000 
     56 H56         2.9810   51.5685   17.5394 H         1 UNK         0.0000 
     57 H57         5.0717   52.4967   18.7227 H         1 UNK         0.0000 
     58 H58         5.0419   54.1929   19.2732 H         1 UNK         0.0000 
     59 H59         4.6011   52.6627   21.2246 H         1 UNK         0.0000 
     60 H60         3.3595   53.8089   20.9126 H         1 UNK         0.0000 
     61 H61         3.0251   54.2038   16.1351 H         1 UNK         0.0000 
     62 H62         4.4428   53.1791   16.4048 H         1 UNK         0.0000 
     63 H63         6.6143   54.1914   16.7783 H         1 UNK         0.0000 
     64 H64         8.0273   56.1816   16.8544 H         1 UNK         0.0000 
     65 H65         4.5196   58.6784   16.9071 H         1 UNK         0.0000 
     66 H66         3.0990   56.6722   16.8558 H         1 UNK         0.0000 
     67 H67         6.6479   59.6517   16.5358 H         1 UNK         0.0000 
     68 H68         6.6510   59.2863   19.0153 H         1 UNK         0.0000 
     69 H69         8.0884   60.1406   18.4836 H         1 UNK         0.0000 
     70 H70         8.1887   58.4270   18.8818 H         1 UNK         0.0000 
     71 H71         8.2890   58.4553   15.0747 H         1 UNK         0.0000 
     72 H72         8.9959   59.7448   16.0390 H         1 UNK         0.0000 
     73 H73         9.2514   58.0700   16.4992 H         1 UNK         0.0000 
     74 H74         4.0386   50.7493   19.2887 H         1 UNK         0.0000 
     75 H75         2.7661   54.3766   18.5292 H         1 UNK         0.0000 
@<TRIPOS>BOND
     1    1    2 1    
     2    1   39 1    
     3    1   40 1    
     4    1   41 1    
     5    2    3 1    
     6    2    9 1    
     7    2    4 1    
     8    4    5 1    
     9    4   42 1    
    10    4   43 1    
    11    5    6 1    
    12    5   11 am   BACKBONE|DICT|INTERRES
    13    6    7 1    
    14    6   44 1    
    15    6   45 1    
    16    7    8 1    
    17    7    9 1    
    18    7   10 1    
    19   10   46 1    
    20   10   47 1    
    21   10   48 1    
    22   11   12 2    
    23   11   13 1    
    24   13   21 1    
    25   13   14 2    
    26   14   15 1    
    27   14   49 1    
    28   15   20 ar   
    29   15   16 ar   
    30   16   17 ar   
    31   16   50 1    
    32   17   18 ar   
    33   17   22 1    
    34   18   19 ar   
    35   18   51 1    
    36   19   20 ar   
    37   19   52 1    
    38   20   21 1    
    39   22   27 1    
    40   22   23 1    
    41   22   38 1    
    42   23   24 1    
    43   23   53 1    
    44   23   54 1    
    45   24   25 1    
    46   24   55 1    
    47   24   56 1    
    48   25   26 1    
    49   25   28 1    
    50   25   75 1    
    51   26   27 1    
    52   26   57 1    
    53   26   58 1    
    54   27   59 1    
    55   27   60 1    
    56   28   29 1    
    57   28   61 1    
    58   28   62 1    
    59   29   34 ar   
    60   29   30 ar   
    61   30   31 ar   
    62   30   63 1    
    63   31   32 ar   
    64   31   64 1    
    65   32   33 ar   
    66   32   35 1    
    67   33   34 ar   
    68   33   65 1    
    69   34   66 1    
    70   35   36 1    
    71   35   37 1    
    72   35   67 1    
    73   36   68 1    
    74   36   69 1    
    75   36   70 1    
    76   37   71 1    
    77   37   72 1    
    78   37   73 1    
    79   38   74 1    
@<TRIPOS>SUBSTRUCTURE
     1 UNK         1 GROUP             0       ****    0 ROOT    
