@<TRIPOS>MOLECULE
ZINC20352483_3449
48   49    1
SMALL
USER_CHARGES


@<TRIPOS>ATOM
      1 C1          0.8778   51.4447   27.8508 C.3       1 UNK         0.0000 
      2 C2          1.6110   52.7135   28.2586 C.ar      1 UNK         0.0000 
      3 C3          2.7468   53.1160   27.5520 C.ar      1 UNK         0.0000 
      4 C4          3.4375   54.2755   27.9128 C.ar      1 UNK         0.0000 
      5 C5          2.9654   55.0500   28.9732 C.ar      1 UNK         0.0000 
      6 C6          1.8340   54.6579   29.6815 C.ar      1 UNK         0.0000 
      7 C7          1.1706   53.4813   29.3423 C.ar      1 UNK         0.0000 
      8 I8         -0.4683   52.8962   30.4929 I         1 UNK         0.0000 
      9 N9          4.5786   54.7012   27.2247 N.pl3     1 UNK         0.0000 
     10 C10         5.5940   53.8759   26.6179 C.3       1 UNK         0.0000 
     11 H11         5.1720   52.9161   26.3194 H         1 UNK         0.0000 
     12 C12         6.7763   53.5924   27.5619 C.3       1 UNK         0.0000 
     13 C13         6.0411   54.6467   25.3497 C.2       1 UNK         0.0000 
     14 O14         6.7034   55.6864   25.4567 O.2       1 UNK         0.0000 
     15 N15         5.6292   54.0968   24.1904 N.am      1 UNK         0.0000 
     16 N16         5.9088   54.5987   22.9724 N.2       1 UNK         0.0000 
     17 C17         5.3823   53.9212   22.0312 C.2       1 UNK         0.0000 
     18 C18         5.5044   54.2357   20.5924 C.ar      1 UNK         0.0000 
     19 C19         4.9729   53.3002   19.6922 C.ar      1 UNK         0.0000 
     20 C20         5.0952   53.4682   18.3183 C.ar      1 UNK         0.0000 
     21 C21         5.7401   54.5874   17.8090 C.ar      1 UNK         0.0000 
     22 C22         6.2525   55.5611   18.6702 C.ar      1 UNK         0.0000 
     23 C23         6.1467   55.3830   20.0634 C.ar      1 UNK         0.0000 
     24 O24         6.6837   56.3348   20.8997 O.3       1 UNK         0.0000 
     25 C25         6.9193   56.7934   18.0520 C.3       1 UNK         0.0000 
     26 C26         5.9724   57.8242   17.4486 C.2       1 UNK         0.0000 
     27 C27         4.6440   57.6979   17.2816 C.2       1 UNK         0.0000 
     28 H28        -0.0146   51.6838   27.2710 H         1 UNK         0.0000 
     29 H29         1.5048   50.7630   27.2799 H         1 UNK         0.0000 
     30 H30         0.5609   50.8957   28.7338 H         1 UNK         0.0000 
     31 H31         3.0804   52.5240   26.7155 H         1 UNK         0.0000 
     32 H32         3.4706   55.9578   29.2628 H         1 UNK         0.0000 
     33 H33         1.4815   55.2584   30.5072 H         1 UNK         0.0000 
     34 H34         4.9459   55.5754   27.5761 H         1 UNK         0.0000 
     35 H35         7.4814   52.9000   27.1042 H         1 UNK         0.0000 
     36 H36         7.3170   54.4969   27.8440 H         1 UNK         0.0000 
     37 H37         6.4258   53.1254   28.4815 H         1 UNK         0.0000 
     38 H38         5.0677   53.2592   24.1957 H         1 UNK         0.0000 
     39 H39         4.7945   53.0243   22.2276 H         1 UNK         0.0000 
     40 H40         4.4771   52.4029   20.0384 H         1 UNK         0.0000 
     41 H41         4.7046   52.7144   17.6479 H         1 UNK         0.0000 
     42 H42         5.8260   54.7079   16.7384 H         1 UNK         0.0000 
     43 H43         6.5946   56.0445   21.8153 H         1 UNK         0.0000 
     44 H44         7.5948   56.4621   17.2609 H         1 UNK         0.0000 
     45 H45         7.5595   57.2967   18.7776 H         1 UNK         0.0000 
     46 H46         6.4386   58.7447   17.1242 H         1 UNK         0.0000 
     47 H47         4.1065   56.8106   17.5777 H         1 UNK         0.0000 
     48 H48         4.0711   58.5017   16.8396 H         1 UNK         0.0000 
@<TRIPOS>BOND
     1    1    2 1    
     2    1   28 1    
     3    1   29 1    
     4    1   30 1    
     5    2    7 ar   
     6    2    3 ar   
     7    3    4 ar   
     8    3   31 1    
     9    4    5 ar   
    10    4    9 1    
    11    5    6 ar   
    12    5   32 1    
    13    6    7 ar   
    14    6   33 1    
    15    7    8 1    
    16    9   10 1    
    17    9   34 1    
    18   10   11 1    
    19   10   12 1    
    20   10   13 1    
    21   12   35 1    
    22   12   36 1    
    23   12   37 1    
    24   13   14 2    
    25   13   15 am   BACKBONE|DICT|INTERRES
    26   15   16 1    
    27   15   38 1    
    28   16   17 2    
    29   17   18 1    
    30   17   39 1    
    31   18   23 ar   
    32   18   19 ar   
    33   19   20 ar   
    34   19   40 1    
    35   20   21 ar   
    36   20   41 1    
    37   21   22 ar   
    38   21   42 1    
    39   22   23 ar   
    40   22   25 1    
    41   23   24 1    
    42   24   43 1    
    43   25   26 1    
    44   25   44 1    
    45   25   45 1    
    46   26   27 2    
    47   26   46 1    
    48   27   47 1    
    49   27   48 1    
@<TRIPOS>SUBSTRUCTURE
     1 UNK         1 GROUP             0       ****    0 ROOT    
