@<TRIPOS>MOLECULE
ZINC25781939_2406
50   53    1
SMALL
USER_CHARGES


@<TRIPOS>ATOM
      1 C1          4.1344   57.7663   16.9983 C.ar      1 UNK         0.0000 
      2 C2          4.2946   56.5525   17.6643 C.ar      1 UNK         0.0000 
      3 C3          5.5693   56.0114   17.8657 C.ar      1 UNK         0.0000 
      4 C4          6.6817   56.7260   17.3998 C.ar      1 UNK         0.0000 
      5 C5          6.5402   57.9647   16.7576 C.ar      1 UNK         0.0000 
      6 C6          5.2506   58.4755   16.5600 C.ar      1 UNK         0.0000 
      7 N7          7.7313   58.7183   16.2977 N.pl3     1 UNK         0.0000 
      8 O8          8.8308   58.4002   16.7432 O.co2     1 UNK         0.0000 
      9 O9          7.5757   59.6248   15.4837 O.co2     1 UNK         0.0000 
     10 C10         5.7340   54.6377   18.5519 C.3       1 UNK         0.0000 
     11 H11         6.6955   54.2810   18.1721 H         1 UNK         0.0000 
     12 C12         4.6967   53.6164   18.0913 C.2       1 UNK         0.0000 
     13 C13         3.8859   52.9576   18.9445 C.2       1 UNK         0.0000 
     14 N14         3.9916   53.1044   20.3406 N.pl3     1 UNK         0.0000 
     15 C15         4.9636   53.9655   20.9057 C.2       1 UNK         0.0000 
     16 C16         5.8233   54.6751   20.1032 C.2       1 UNK         0.0000 
     17 C17         6.9518   55.4543   20.6676 C.2       1 UNK         0.0000 
     18 O18         7.9058   55.8377   19.9952 O.2       1 UNK         0.0000 
     19 C19         6.9810   55.6648   22.1769 C.3       1 UNK         0.0000 
     20 C20         6.4937   54.4334   22.9435 C.3       1 UNK         0.0000 
     21 C21         5.1094   53.9802   22.4519 C.3       1 UNK         0.0000 
     22 C22         3.1645   52.3236   21.1977 C.ar      1 UNK         0.0000 
     23 C23         3.2512   50.9247   21.1900 C.ar      1 UNK         0.0000 
     24 C24         2.4749   50.1524   22.0544 C.ar      1 UNK         0.0000 
     25 C25         1.6258   50.7734   22.9679 C.ar      1 UNK         0.0000 
     26 C26         1.5290   52.1692   23.0036 C.ar      1 UNK         0.0000 
     27 C27         2.2670   52.9289   22.0847 C.ar      1 UNK         0.0000 
     28 C28         0.6766   52.8521   24.0722 C.3       1 UNK         0.0000 
     29 F29         1.1048   54.0966   24.2879 F         1 UNK         0.0000 
     30 F30        -0.5964   52.8969   23.6806 F         1 UNK         0.0000 
     31 F31         0.7421   52.1900   25.2285 F         1 UNK         0.0000 
     32 N32         2.9145   52.0967   18.4708 N.pl3     1 UNK         0.0000 
     33 C33         4.5731   53.4193   16.6788 C.1       1 UNK         0.0000 
     34 N34         4.4508   53.2853   15.5360 N.1       1 UNK         0.0000 
     35 H35         3.1473   58.1773   16.8486 H         1 UNK         0.0000 
     36 H36         3.4181   56.0262   18.0125 H         1 UNK         0.0000 
     37 H37         7.6716   56.3116   17.5342 H         1 UNK         0.0000 
     38 H38         5.1062   59.4352   16.0805 H         1 UNK         0.0000 
     39 H39         6.3049   56.4914   22.3597 H         1 UNK         0.0000 
     40 H40         7.9735   55.9931   22.4817 H         1 UNK         0.0000 
     41 H41         6.4378   54.6728   24.0067 H         1 UNK         0.0000 
     42 H42         7.2253   53.6261   22.8816 H         1 UNK         0.0000 
     43 H43         4.3045   54.5585   22.9067 H         1 UNK         0.0000 
     44 H44         5.0202   52.9706   22.8508 H         1 UNK         0.0000 
     45 H45         3.9284   50.4382   20.5036 H         1 UNK         0.0000 
     46 H46         2.5581   49.0755   22.0368 H         1 UNK         0.0000 
     47 H47         1.0628   50.1646   23.6638 H         1 UNK         0.0000 
     48 H48         2.1841   54.0068   22.0841 H         1 UNK         0.0000 
     49 H49         2.8594   51.9297   17.4762 H         1 UNK         0.0000 
     50 H50         2.5955   51.3397   19.0552 H         1 UNK         0.0000 
@<TRIPOS>BOND
     1    1    6 ar   
     2    1    2 ar   
     3    1   35 1    
     4    2    3 ar   
     5    2   36 1    
     6    3    4 ar   
     7    3   10 1    
     8    4    5 ar   
     9    4   37 1    
    10    5    6 ar   
    11    5    7 1    
    12    6   38 1    
    13    7    8 2    
    14    7    9 1    
    15   10   11 1    
    16   10   16 1    
    17   10   12 1    
    18   12   13 2    
    19   12   33 1    
    20   13   14 1    
    21   13   32 1    
    22   14   15 1    
    23   14   22 1    
    24   15   21 1    
    25   15   16 2    
    26   16   17 1    
    27   17   18 2    
    28   17   19 1    
    29   19   20 1    
    30   19   39 1    
    31   19   40 1    
    32   20   21 1    
    33   20   41 1    
    34   20   42 1    
    35   21   43 1    
    36   21   44 1    
    37   22   27 ar   
    38   22   23 ar   
    39   23   24 ar   
    40   23   45 1    
    41   24   25 ar   
    42   24   46 1    
    43   25   26 ar   
    44   25   47 1    
    45   26   27 ar   
    46   26   28 1    
    47   27   48 1    
    48   28   29 1    
    49   28   30 1    
    50   28   31 1    
    51   32   49 1    
    52   32   50 1    
    53   33   34 3    
@<TRIPOS>SUBSTRUCTURE
     1 UNK         1 GROUP             0       ****    0 ROOT    
