@<TRIPOS>MOLECULE
ZINC20762449_3260
59   62    1
SMALL
USER_CHARGES


@<TRIPOS>ATOM
      1 C1          6.6498   54.6565   25.8090 C.3       1 UNK         0.0000 
      2 C2          5.1951   54.3363   25.5171 C.ar      1 UNK         0.0000 
      3 C3          4.7262   54.2942   24.2064 C.ar      1 UNK         0.0000 
      4 C4          3.3843   54.0118   23.9352 C.ar      1 UNK         0.0000 
      5 C5          2.4945   53.7263   24.9915 C.ar      1 UNK         0.0000 
      6 C6          2.9684   53.7904   26.3262 C.ar      1 UNK         0.0000 
      7 C7          4.3136   54.0903   26.5667 C.ar      1 UNK         0.0000 
      8 C8          2.0680   53.6399   27.5472 C.3       1 UNK         0.0000 
      9 N9          1.1425   53.4949   24.6502 N.am      1 UNK         0.0000 
     10 C10         0.3345   52.4967   25.0690 C.2       1 UNK         0.0000 
     11 O11         0.7045   51.5964   25.8203 O.2       1 UNK         0.0000 
     12 C12        -1.1330   52.5395   24.5498 C.3       1 UNK         0.0000 
     13 H13        -1.2673   53.5162   24.0814 H         1 UNK         0.0000 
     14 C14        -2.1592   52.3870   25.7198 C.3       1 UNK         0.0000 
     15 C15        -2.2861   50.9558   26.3215 C.3       1 UNK         0.0000 
     16 C16        -2.3506   49.8492   25.2418 C.3       1 UNK         0.0000 
     17 N17        -1.3081   50.0859   24.2179 N.pl3     1 UNK         0.0000 
     18 C18        -1.3767   51.3960   23.5310 C.3       1 UNK         0.0000 
     19 S19        -0.4831   48.7332   23.4485 S.o2      1 UNK         0.0000 
     20 O20         0.4753   49.2499   22.4643 O.2       1 UNK         0.0000 
     21 O21        -0.0956   47.7679   24.4812 O.2       1 UNK         0.0000 
     22 C22        -1.8094   47.9415   22.5186 C.2       1 UNK         0.0000 
     23 C23        -2.3165   48.3345   21.2897 C.2       1 UNK         0.0000 
     24 C24        -3.2683   47.4314   20.7933 C.2       1 UNK         0.0000 
     25 C25        -3.4812   46.3304   21.6284 C.2       1 UNK         0.0000 
     26 S26        -2.5504   46.4930   23.0954 S.3       1 UNK         0.0000 
     27 C27        -4.3208   45.1479   21.4046 C.ar      1 UNK         0.0000 
     28 C28        -5.4245   45.1132   20.4641 C.ar      1 UNK         0.0000 
     29 C29        -6.1785   43.9950   20.3054 C.ar      1 UNK         0.0000 
     30 C30        -5.9084   42.7654   21.0367 C.ar      1 UNK         0.0000 
     31 O31        -6.4961   41.6965   20.8817 O.2       1 UNK         0.0000 
     32 N32        -4.8710   42.9303   21.9044 N.pl3     1 UNK         0.0000 
     33 H33        -4.6061   42.1309   22.4649 H         1 UNK         0.0000 
     34 N34        -4.0856   44.0679   22.0821 N.2       1 UNK         0.0000 
     35 C35         2.9288   54.0199   22.4802 C.3       1 UNK         0.0000 
     36 H36         6.7155   55.5677   26.4044 H         1 UNK         0.0000 
     37 H37         7.2351   54.7882   24.8974 H         1 UNK         0.0000 
     38 H38         7.1003   53.8509   26.3906 H         1 UNK         0.0000 
     39 H39         5.4070   54.4969   23.3923 H         1 UNK         0.0000 
     40 H40         4.6791   54.1432   27.5824 H         1 UNK         0.0000 
     41 H41         1.9942   52.5948   27.8480 H         1 UNK         0.0000 
     42 H42         2.4482   54.2149   28.3924 H         1 UNK         0.0000 
     43 H43         1.0704   54.0272   27.3538 H         1 UNK         0.0000 
     44 H44         0.7918   54.0825   23.9109 H         1 UNK         0.0000 
     45 H45        -1.9936   53.1491   26.4826 H         1 UNK         0.0000 
     46 H46        -3.1292   52.7129   25.3415 H         1 UNK         0.0000 
     47 H47        -1.4376   50.7516   26.9766 H         1 UNK         0.0000 
     48 H48        -3.1615   50.8931   26.9685 H         1 UNK         0.0000 
     49 H49        -2.2300   48.8540   25.6734 H         1 UNK         0.0000 
     50 H50        -3.3233   49.8965   24.7510 H         1 UNK         0.0000 
     51 H51        -2.3893   51.4829   23.1345 H         1 UNK         0.0000 
     52 H52        -0.6973   51.4361   22.6785 H         1 UNK         0.0000 
     53 H53        -1.9876   49.2180   20.7611 H         1 UNK         0.0000 
     54 H54        -3.7505   47.5585   19.8349 H         1 UNK         0.0000 
     55 H55        -5.6799   45.9906   19.8878 H         1 UNK         0.0000 
     56 H56        -7.0069   43.9949   19.6117 H         1 UNK         0.0000 
     57 H57         2.3422   53.1291   22.2537 H         1 UNK         0.0000 
     58 H58         2.3049   54.8932   22.2902 H         1 UNK         0.0000 
     59 H59         3.7663   54.0309   21.7824 H         1 UNK         0.0000 
@<TRIPOS>BOND
     1    1    2 1    
     2    1   36 1    
     3    1   37 1    
     4    1   38 1    
     5    2    7 ar   
     6    2    3 ar   
     7    3    4 ar   
     8    3   39 1    
     9    4    5 ar   
    10    4   35 1    
    11    5    6 ar   
    12    5    9 1    
    13    6    7 ar   
    14    6    8 1    
    15    7   40 1    
    16    8   41 1    
    17    8   42 1    
    18    8   43 1    
    19    9   10 am   BACKBONE|DICT|INTERRES
    20    9   44 1    
    21   10   11 2    
    22   10   12 1    
    23   12   13 1    
    24   12   18 1    
    25   12   14 1    
    26   14   15 1    
    27   14   45 1    
    28   14   46 1    
    29   15   16 1    
    30   15   47 1    
    31   15   48 1    
    32   16   17 1    
    33   16   49 1    
    34   16   50 1    
    35   17   18 1    
    36   17   19 1    
    37   18   51 1    
    38   18   52 1    
    39   19   20 2    
    40   19   21 2    
    41   19   22 1    
    42   22   26 1    
    43   22   23 2    
    44   23   24 1    
    45   23   53 1    
    46   24   25 2    
    47   24   54 1    
    48   25   26 1    
    49   25   27 1    
    50   27   34 ar   
    51   27   28 ar   
    52   28   29 ar   
    53   28   55 1    
    54   29   30 ar   
    55   29   56 1    
    56   30   31 2    
    57   30   32 ar   
    58   32   33 1    
    59   32   34 ar   
    60   35   57 1    
    61   35   58 1    
    62   35   59 1    
@<TRIPOS>SUBSTRUCTURE
     1 UNK         1 GROUP             0       ****    0 ROOT    
