@<TRIPOS>MOLECULE
ZINC65083487_3400
57   60    1
SMALL
USER_CHARGES


@<TRIPOS>ATOM
      1 C1          7.7147   51.6767   14.2190 C.3       1 UNK         0.0000 
      2 C2          6.7794   52.5303   15.0552 C.ar      1 UNK         0.0000 
      3 C3          7.2410   53.7267   15.6069 C.ar      1 UNK         0.0000 
      4 C4          6.3892   54.5095   16.3823 C.ar      1 UNK         0.0000 
      5 C5          5.0750   54.0931   16.6047 C.ar      1 UNK         0.0000 
      6 C6          4.6125   52.8967   16.0540 C.ar      1 UNK         0.0000 
      7 C7          5.4621   52.1223   15.2693 C.ar      1 UNK         0.0000 
      8 S8          3.9911   55.0748   17.6397 S.o2      1 UNK         0.0000 
      9 O9          2.6125   54.7201   17.2811 O.2       1 UNK         0.0000 
     10 O10         4.4629   56.4625   17.5580 O.2       1 UNK         0.0000 
     11 N11         4.3084   54.4972   19.2843 N.pl3     1 UNK         0.0000 
     12 C12         3.7614   53.1737   19.6899 C.3       1 UNK         0.0000 
     13 C13         3.4369   53.1441   21.2098 C.3       1 UNK         0.0000 
     14 C14         4.5776   53.8002   21.9873 C.2       1 UNK         0.0000 
     15 C15         5.5670   54.5652   21.3616 C.2       1 UNK         0.0000 
     16 S16         6.7044   55.1186   22.5526 S.3       1 UNK         0.0000 
     17 C17         5.7251   54.3573   23.7637 C.2       1 UNK         0.0000 
     18 N18         4.6837   53.6990   23.2978 N.2       1 UNK         0.0000 
     19 N19         6.1279   54.4968   25.0913 N.am      1 UNK         0.0000 
     20 C20         5.4327   54.2710   26.2322 C.2       1 UNK         0.0000 
     21 O21         6.0134   54.3614   27.3101 O.2       1 UNK         0.0000 
     22 N22         4.1243   53.9609   26.0944 N.am      1 UNK         0.0000 
     23 C23         3.1866   53.4291   27.0055 C.ar      1 UNK         0.0000 
     24 C24         3.4745   53.1161   28.3468 C.ar      1 UNK         0.0000 
     25 C25         2.5112   52.4976   29.1628 C.ar      1 UNK         0.0000 
     26 C26         1.2543   52.2242   28.6287 C.ar      1 UNK         0.0000 
     27 C27         0.9569   52.5318   27.3039 C.ar      1 UNK         0.0000 
     28 C28         1.9185   53.1283   26.4736 C.ar      1 UNK         0.0000 
     29 O29         1.6924   53.4191   25.1361 O.3       1 UNK         0.0000 
     30 C30         0.5467   52.8831   24.4832 C.3       1 UNK         0.0000 
     31 O31         2.7117   52.1125   30.4747 O.3       1 UNK         0.0000 
     32 C32         4.0014   52.2564   31.0518 C.3       1 UNK         0.0000 
     33 C33         5.6331   54.8360   19.8692 C.3       1 UNK         0.0000 
     34 H34         8.4438   51.1758   14.8576 H         1 UNK         0.0000 
     35 H35         7.1742   50.9264   13.6400 H         1 UNK         0.0000 
     36 H36         8.2627   52.2995   13.5110 H         1 UNK         0.0000 
     37 H37         8.2594   54.0467   15.4406 H         1 UNK         0.0000 
     38 H38         6.7522   55.4321   16.8123 H         1 UNK         0.0000 
     39 H39         3.6035   52.5565   16.2390 H         1 UNK         0.0000 
     40 H40         5.0986   51.1914   14.8575 H         1 UNK         0.0000 
     41 H41         2.8821   52.9396   19.0893 H         1 UNK         0.0000 
     42 H42         4.5363   52.4290   19.4960 H         1 UNK         0.0000 
     43 H43         3.2696   52.1162   21.5338 H         1 UNK         0.0000 
     44 H44         2.5132   53.6960   21.3869 H         1 UNK         0.0000 
     45 H45         7.0660   54.8420   25.2179 H         1 UNK         0.0000 
     46 H46         3.7569   54.0346   25.1572 H         1 UNK         0.0000 
     47 H47         4.4509   53.3215   28.7506 H         1 UNK         0.0000 
     48 H48         0.5037   51.7490   29.2444 H         1 UNK         0.0000 
     49 H49        -0.0268   52.2852   26.9350 H         1 UNK         0.0000 
     50 H50         0.5894   53.1372   23.4241 H         1 UNK         0.0000 
     51 H51         0.5159   51.7948   24.5599 H         1 UNK         0.0000 
     52 H52        -0.3807   53.2945   24.8817 H         1 UNK         0.0000 
     53 H53         3.9885   51.8686   32.0704 H         1 UNK         0.0000 
     54 H54         4.3031   53.3028   31.1006 H         1 UNK         0.0000 
     55 H55         4.7522   51.6966   30.4931 H         1 UNK         0.0000 
     56 H56         5.8535   55.8817   19.6524 H         1 UNK         0.0000 
     57 H57         6.3920   54.2170   19.3892 H         1 UNK         0.0000 
@<TRIPOS>BOND
     1    1    2 1    
     2    1   34 1    
     3    1   35 1    
     4    1   36 1    
     5    2    7 ar   
     6    2    3 ar   
     7    3    4 ar   
     8    3   37 1    
     9    4    5 ar   
    10    4   38 1    
    11    5    6 ar   
    12    5    8 1    
    13    6    7 ar   
    14    6   39 1    
    15    7   40 1    
    16    8    9 2    
    17    8   10 2    
    18    8   11 1    
    19   11   33 1    
    20   11   12 1    
    21   12   13 1    
    22   12   41 1    
    23   12   42 1    
    24   13   14 1    
    25   13   43 1    
    26   13   44 1    
    27   14   18 1    
    28   14   15 2    
    29   15   16 1    
    30   15   33 1    
    31   16   17 1    
    32   17   18 2    
    33   17   19 am   BACKBONE|DICT|INTERRES
    34   19   20 am   BACKBONE|DICT|INTERRES
    35   19   45 1    
    36   20   21 2    
    37   20   22 am   BACKBONE|DICT|INTERRES
    38   22   23 1    
    39   22   46 1    
    40   23   28 ar   
    41   23   24 ar   
    42   24   25 ar   
    43   24   47 1    
    44   25   26 ar   
    45   25   31 1    
    46   26   27 ar   
    47   26   48 1    
    48   27   28 ar   
    49   27   49 1    
    50   28   29 1    
    51   29   30 1    
    52   30   50 1    
    53   30   51 1    
    54   30   52 1    
    55   31   32 1    
    56   32   53 1    
    57   32   54 1    
    58   32   55 1    
    59   33   56 1    
    60   33   57 1    
@<TRIPOS>SUBSTRUCTURE
     1 UNK         1 GROUP             0       ****    0 ROOT    
