@<TRIPOS>MOLECULE
ZINC04147673_3352
61   65    1
SMALL
USER_CHARGES


@<TRIPOS>ATOM
      1 C1          0.0119   51.2955   28.0376 C.3       1 UNK         0.0000 
      2 N2         -0.0819   52.2921   29.1040 N.pl3     1 UNK         0.0000 
      3 C3         -0.6172   51.8323   30.3865 C.3       1 UNK         0.0000 
      4 C4          0.7578   53.4351   29.0870 C.ar      1 UNK         0.0000 
      5 C5          0.6576   54.4146   30.0907 C.ar      1 UNK         0.0000 
      6 C6          1.4744   55.5436   30.0831 C.ar      1 UNK         0.0000 
      7 C7          2.4302   55.6964   29.0905 C.ar      1 UNK         0.0000 
      8 C8          2.5541   54.7431   28.0813 C.ar      1 UNK         0.0000 
      9 C9          1.7110   53.6317   28.0722 C.ar      1 UNK         0.0000 
     10 O10         3.4987   54.8931   27.0966 O.3       1 UNK         0.0000 
     11 C11         4.7872   54.4780   27.3281 C.ar      1 UNK         0.0000 
     12 N12         5.2533   53.9971   28.4598 N.2       1 UNK         0.0000 
     13 N13         6.5861   53.6964   28.1970 N.2       1 UNK         0.0000 
     14 N14         6.8986   54.0139   26.8903 N.2       1 UNK         0.0000 
     15 N15         5.7679   54.5077   26.3689 N.pl3     1 UNK         0.0000 
     16 C16         5.6674   54.9154   24.9630 C.3       1 UNK         0.0000 
     17 H17         5.1040   55.8443   24.9911 H         1 UNK         0.0000 
     18 C18         6.9988   55.1253   24.2336 C.3       1 UNK         0.0000 
     19 O19         6.6498   54.9876   22.8615 O.3       1 UNK         0.0000 
     20 C20         5.6885   53.9395   22.7524 C.3       1 UNK         0.0000 
     21 H21         6.1911   52.9902   22.5572 H         1 UNK         0.0000 
     22 C22         4.9697   53.8825   24.0973 C.3       1 UNK         0.0000 
     23 H23         5.0788   52.8967   24.5284 H         1 UNK         0.0000 
     24 O24         3.5908   54.1417   23.8302 O.3       1 UNK         0.0000 
     25 C25         3.3162   53.8120   22.4688 C.3       1 UNK         0.0000 
     26 C26         4.5931   54.2153   21.7398 C.3       1 UNK         0.0000 
     27 H27         4.5201   55.2965   21.6325 H         1 UNK         0.0000 
     28 N28         4.7934   53.5842   20.4276 N.am      1 UNK         0.0000 
     29 C29         5.5020   54.1612   19.4418 C.2       1 UNK         0.0000 
     30 O30         5.8731   55.3358   19.4971 O.2       1 UNK         0.0000 
     31 N31         5.8001   53.3032   18.4426 N.am      1 UNK         0.0000 
     32 C32         6.5897   53.5767   17.3095 C.ar      1 UNK         0.0000 
     33 C33         6.7277   54.8505   16.7317 C.ar      1 UNK         0.0000 
     34 C34         7.5414   55.0299   15.6140 C.ar      1 UNK         0.0000 
     35 C35         8.2200   53.9465   15.0584 C.ar      1 UNK         0.0000 
     36 C36         8.0830   52.6665   15.6106 C.ar      1 UNK         0.0000 
     37 C37         7.2561   52.4962   16.7291 C.ar      1 UNK         0.0000 
     38 C38         8.8275   51.4756   15.0044 C.3       1 UNK         0.0000 
     39 F39         9.9656   51.8591   14.4270 F         1 UNK         0.0000 
     40 F40         8.0536   50.9105   14.0805 F         1 UNK         0.0000 
     41 F41         9.1223   50.5615   15.9316 F         1 UNK         0.0000 
     42 H42        -0.0683   51.7649   27.0573 H         1 UNK         0.0000 
     43 H43         0.9762   50.7879   28.0809 H         1 UNK         0.0000 
     44 H44        -0.7770   50.5446   28.1027 H         1 UNK         0.0000 
     45 H45         0.1913   51.6967   31.1054 H         1 UNK         0.0000 
     46 H46        -1.2920   52.5612   30.8207 H         1 UNK         0.0000 
     47 H47        -1.1645   50.8967   30.2984 H         1 UNK         0.0000 
     48 H48        -0.0644   54.3250   30.8870 H         1 UNK         0.0000 
     49 H49         1.3777   56.2888   30.8611 H         1 UNK         0.0000 
     50 H50         3.0824   56.5540   29.1146 H         1 UNK         0.0000 
     51 H51         1.8369   52.9165   27.2743 H         1 UNK         0.0000 
     52 H52         7.4523   56.0968   24.4292 H         1 UNK         0.0000 
     53 H53         7.7550   54.3738   24.4702 H         1 UNK         0.0000 
     54 H54         2.4316   54.3198   22.0824 H         1 UNK         0.0000 
     55 H55         3.0811   52.7516   22.3607 H         1 UNK         0.0000 
     56 H56         4.3709   52.6802   20.2657 H         1 UNK         0.0000 
     57 H57         5.5069   52.3356   18.5299 H         1 UNK         0.0000 
     58 H58         6.2069   55.7084   17.1315 H         1 UNK         0.0000 
     59 H59         7.6438   56.0122   15.1793 H         1 UNK         0.0000 
     60 H60         8.8467   54.1061   14.1917 H         1 UNK         0.0000 
     61 H61         7.1300   51.5109   17.1581 H         1 UNK         0.0000 
@<TRIPOS>BOND
     1    1    2 1    
     2    1   42 1    
     3    1   43 1    
     4    1   44 1    
     5    2    3 1    
     6    2    4 1    
     7    3   45 1    
     8    3   46 1    
     9    3   47 1    
    10    4    9 ar   
    11    4    5 ar   
    12    5    6 ar   
    13    5   48 1    
    14    6    7 ar   
    15    6   49 1    
    16    7    8 ar   
    17    7   50 1    
    18    8    9 ar   
    19    8   10 1    
    20    9   51 1    
    21   10   11 1    
    22   11   15 ar   
    23   11   12 ar   
    24   12   13 ar   
    25   13   14 ar   
    26   14   15 ar   
    27   15   16 1    
    28   16   17 1    
    29   16   22 1    
    30   16   18 1    
    31   18   19 1    
    32   18   52 1    
    33   18   53 1    
    34   19   20 1    
    35   20   21 1    
    36   20   26 1    
    37   20   22 1    
    38   22   23 1    
    39   22   24 1    
    40   24   25 1    
    41   25   26 1    
    42   25   54 1    
    43   25   55 1    
    44   26   27 1    
    45   26   28 1    
    46   28   29 am   BACKBONE|DICT|INTERRES
    47   28   56 1    
    48   29   30 2    
    49   29   31 am   BACKBONE|DICT|INTERRES
    50   31   32 1    
    51   31   57 1    
    52   32   37 ar   
    53   32   33 ar   
    54   33   34 ar   
    55   33   58 1    
    56   34   35 ar   
    57   34   59 1    
    58   35   36 ar   
    59   35   60 1    
    60   36   37 ar   
    61   36   38 1    
    62   37   61 1    
    63   38   39 1    
    64   38   40 1    
    65   38   41 1    
@<TRIPOS>SUBSTRUCTURE
     1 UNK         1 GROUP             0       ****    0 ROOT    
