@<TRIPOS>MOLECULE
ZINC36637435_1087
68   71    1
SMALL
USER_CHARGES


@<TRIPOS>ATOM
      1 C1         -3.3493   48.5348   17.8197 C.3       1 UNK         0.0000 
      2 C2         -2.9530   47.7505   19.0808 C.3       1 UNK         0.0000 
      3 H3         -3.7576   47.0308   19.2504 H         1 UNK         0.0000 
      4 C4         -1.6200   46.9861   18.9060 C.3       1 UNK         0.0000 
      5 C5         -1.2787   46.1699   20.1725 C.3       1 UNK         0.0000 
      6 C6         -1.3667   47.0069   21.4719 C.3       1 UNK         0.0000 
      7 C7         -2.6787   47.8140   21.5545 C.3       1 UNK         0.0000 
      8 N8         -2.8651   48.6026   20.3158 N.pl3     1 UNK         0.0000 
      9 S9         -3.5951   50.2196   20.5123 S.o2      1 UNK         0.0000 
     10 O10        -4.8325   50.0652   21.2820 O.2       1 UNK         0.0000 
     11 O11        -3.5986   50.9536   19.2448 O.2       1 UNK         0.0000 
     12 C12        -2.4274   51.0979   21.5405 C.ar      1 UNK         0.0000 
     13 C13        -2.8506   51.7554   22.6947 C.ar      1 UNK         0.0000 
     14 C14        -1.9420   52.4986   23.4409 C.ar      1 UNK         0.0000 
     15 C15        -0.5825   52.4967   23.0966 C.ar      1 UNK         0.0000 
     16 C16        -0.1768   51.8454   21.9233 C.ar      1 UNK         0.0000 
     17 C17        -1.0940   51.1529   21.1439 C.ar      1 UNK         0.0000 
     18 C18         0.4698   53.2352   23.8938 C.2       1 UNK         0.0000 
     19 O19         1.1050   54.0953   23.2821 O.2       1 UNK         0.0000 
     20 N20         0.7217   52.8956   25.2010 N.am      1 UNK         0.0000 
     21 C21        -0.2575   52.1784   26.0547 C.3       1 UNK         0.0000 
     22 C22         0.0801   50.7016   26.3042 C.3       1 UNK         0.0000 
     23 N23        -0.1643   49.8648   25.0237 N.4       1 UNK         0.0000 
     24 C24         1.1065   49.7011   24.1550 C.3       1 UNK         0.0000 
     25 C25        -0.7655   48.4987   25.3908 C.3       1 UNK         0.0000 
     26 C26         1.8654   53.3896   25.8681 C.2       1 UNK         0.0000 
     27 N27         1.9041   53.5782   27.1616 N.2       1 UNK         0.0000 
     28 C28         3.1313   53.9580   27.5975 C.ar      1 UNK         0.0000 
     29 C29         3.4812   54.2494   28.9333 C.ar      1 UNK         0.0000 
     30 C30         4.8206   54.4919   29.2138 C.ar      1 UNK         0.0000 
     31 C31         5.7935   54.4872   28.2161 C.ar      1 UNK         0.0000 
     32 C32         5.4644   54.2788   26.8815 C.ar      1 UNK         0.0000 
     33 C33         4.1244   54.0163   26.5829 C.ar      1 UNK         0.0000 
     34 S34         3.3892   53.7005   25.0310 S.3       1 UNK         0.0000 
     35 O35         2.5576   54.2344   29.9548 O.3       1 UNK         0.0000 
     36 C36         1.5026   55.1901   29.8565 C.3       1 UNK         0.0000 
     37 H37        -3.3701   47.8781   16.9508 H         1 UNK         0.0000 
     38 H38        -4.3491   48.9641   17.8975 H         1 UNK         0.0000 
     39 H39        -2.6350   49.3283   17.6012 H         1 UNK         0.0000 
     40 H40        -0.8080   47.6935   18.7279 H         1 UNK         0.0000 
     41 H41        -1.6771   46.3088   18.0526 H         1 UNK         0.0000 
     42 H42        -0.2813   45.7346   20.0696 H         1 UNK         0.0000 
     43 H43        -1.9707   45.3277   20.2462 H         1 UNK         0.0000 
     44 H44        -0.5166   47.6889   21.5313 H         1 UNK         0.0000 
     45 H45        -1.2943   46.3560   22.3428 H         1 UNK         0.0000 
     46 H46        -2.6952   48.4724   22.4215 H         1 UNK         0.0000 
     47 H47        -3.5154   47.1205   21.6429 H         1 UNK         0.0000 
     48 H48        -3.8912   51.7287   22.9833 H         1 UNK         0.0000 
     49 H49        -2.3204   53.0768   24.2718 H         1 UNK         0.0000 
     50 H50         0.8566   51.8777   21.6027 H         1 UNK         0.0000 
     51 H51        -0.7727   50.6678   20.2319 H         1 UNK         0.0000 
     52 H52        -0.3090   52.6674   27.0281 H         1 UNK         0.0000 
     53 H53        -1.2825   52.2525   25.7226 H         1 UNK         0.0000 
     54 H54         1.1034   50.5246   26.6390 H         1 UNK         0.0000 
     55 H55        -0.5862   50.3112   27.0781 H         1 UNK         0.0000 
     56 H56         1.9028   49.2963   24.7711 H         1 UNK         0.0000 
     57 H57         0.8708   49.0399   23.3202 H         1 UNK         0.0000 
     58 H58         1.4231   50.6743   23.7896 H         1 UNK         0.0000 
     59 H59        -0.0945   48.0967   26.1426 H         1 UNK         0.0000 
     60 H60        -1.7568   48.6745   25.8132 H         1 UNK         0.0000 
     61 H61        -0.8189   47.8745   24.4974 H         1 UNK         0.0000 
     62 H62         5.1074   54.7101   30.2271 H         1 UNK         0.0000 
     63 H63         6.8231   54.6584   28.4829 H         1 UNK         0.0000 
     64 H64         6.2197   54.2924   26.1078 H         1 UNK         0.0000 
     65 H65         1.0032   55.2742   30.8223 H         1 UNK         0.0000 
     66 H66         0.7470   54.8945   29.1279 H         1 UNK         0.0000 
     67 H67         1.8747   56.1818   29.5916 H         1 UNK         0.0000 
     68 H68        -0.8547   50.3499   24.4675 H         1 UNK         0.0000 
@<TRIPOS>BOND
     1    1    2 1    
     2    1   37 1    
     3    1   38 1    
     4    1   39 1    
     5    2    3 1    
     6    2    8 1    
     7    2    4 1    
     8    4    5 1    
     9    4   40 1    
    10    4   41 1    
    11    5    6 1    
    12    5   42 1    
    13    5   43 1    
    14    6    7 1    
    15    6   44 1    
    16    6   45 1    
    17    7    8 1    
    18    7   46 1    
    19    7   47 1    
    20    8    9 1    
    21    9   10 2    
    22    9   11 2    
    23    9   12 1    
    24   12   17 ar   
    25   12   13 ar   
    26   13   14 ar   
    27   13   48 1    
    28   14   15 ar   
    29   14   49 1    
    30   15   16 ar   
    31   15   18 1    
    32   16   17 ar   
    33   16   50 1    
    34   17   51 1    
    35   18   19 2    
    36   18   20 am   BACKBONE|DICT|INTERRES
    37   20   21 1    
    38   20   26 am   BACKBONE|DICT|INTERRES
    39   21   22 1    
    40   21   52 1    
    41   21   53 1    
    42   22   23 1    
    43   22   54 1    
    44   22   55 1    
    45   23   24 1    
    46   23   25 1    
    47   23   68 1    
    48   24   56 1    
    49   24   57 1    
    50   24   58 1    
    51   25   59 1    
    52   25   60 1    
    53   25   61 1    
    54   26   34 1    
    55   26   27 2    
    56   27   28 1    
    57   28   33 ar   
    58   28   29 ar   
    59   29   30 ar   
    60   29   35 1    
    61   30   31 ar   
    62   30   62 1    
    63   31   32 ar   
    64   31   63 1    
    65   32   33 ar   
    66   32   64 1    
    67   33   34 1    
    68   35   36 1    
    69   36   65 1    
    70   36   66 1    
    71   36   67 1    
@<TRIPOS>SUBSTRUCTURE
     1 UNK         1 GROUP             0       ****    0 ROOT    
