@<TRIPOS>MOLECULE
ZINC11394997_1885
48   50    1
SMALL
USER_CHARGES


@<TRIPOS>ATOM
      1 C1          2.6679   53.6819   27.9445 C.3       1 UNK         0.0000 
      2 C2          1.4218   52.9440   27.5149 C.2       1 UNK         0.0000 
      3 C3          0.1864   52.8978   28.1492 C.2       1 UNK         0.0000 
      4 S4         -0.9016   51.9148   27.2177 S.3       1 UNK         0.0000 
      5 C5          0.3879   51.6383   26.0817 C.2       1 UNK         0.0000 
      6 N6          1.5044   52.2468   26.3977 N.2       1 UNK         0.0000 
      7 C7          0.2055   50.7236   24.9348 C.2       1 UNK         0.0000 
      8 C8          0.1131   49.4163   25.2473 C.2       1 UNK         0.0000 
      9 N9         -0.3009   48.4662   24.3554 N.pl3     1 UNK         0.0000 
     10 C10        -0.8140   48.8019   23.1273 C.2       1 UNK         0.0000 
     11 C11        -0.6874   50.0609   22.6519 C.2       1 UNK         0.0000 
     12 C12         0.0349   51.1912   23.4478 C.3       1 UNK         0.0000 
     13 C13        -0.8200   52.4808   23.3602 C.3       1 UNK         0.0000 
     14 C14        -0.0770   53.7333   23.8208 C.3       1 UNK         0.0000 
     15 C15         1.2785   53.9397   23.1246 C.3       1 UNK         0.0000 
     16 C16         2.1759   52.6940   23.1855 C.3       1 UNK         0.0000 
     17 C17         1.4215   51.4168   22.7650 C.3       1 UNK         0.0000 
     18 C18        -1.2442   50.3715   21.3705 C.1       1 UNK         0.0000 
     19 N19        -1.7096   50.6663   20.3518 N.1       1 UNK         0.0000 
     20 S20        -1.6954   47.4733   22.3160 S.3       1 UNK         0.0000 
     21 C21        -2.7893   46.7919   23.6047 C.3       1 UNK         0.0000 
     22 C22        -3.6349   47.8562   24.3294 C.3       1 UNK         0.0000 
     23 C23        -3.6961   45.7009   23.0128 C.3       1 UNK         0.0000 
     24 N24         0.3048   48.8967   26.4817 N.pl3     1 UNK         0.0000 
     25 H25         2.5195   54.2204   28.8805 H         1 UNK         0.0000 
     26 H26         3.5086   53.0037   28.0962 H         1 UNK         0.0000 
     27 H27         2.9776   54.4182   27.2015 H         1 UNK         0.0000 
     28 H28        -0.1203   53.3691   29.0707 H         1 UNK         0.0000 
     29 H29        -0.3893   47.5188   24.6855 H         1 UNK         0.0000 
     30 H30        -1.7407   52.3618   23.9340 H         1 UNK         0.0000 
     31 H31        -1.1361   52.6663   22.3342 H         1 UNK         0.0000 
     32 H32         0.0849   53.6968   24.8817 H         1 UNK         0.0000 
     33 H33        -0.7432   54.5747   23.6817 H         1 UNK         0.0000 
     34 H34         1.7955   54.7996   23.5522 H         1 UNK         0.0000 
     35 H35         1.1053   54.1754   22.0816 H         1 UNK         0.0000 
     36 H36         2.5997   52.5765   24.1787 H         1 UNK         0.0000 
     37 H37         3.0368   52.8377   22.5310 H         1 UNK         0.0000 
     38 H38         1.2844   51.4735   21.6832 H         1 UNK         0.0000 
     39 H39         2.0620   50.5478   22.9279 H         1 UNK         0.0000 
     40 H40        -2.1414   46.3208   24.3450 H         1 UNK         0.0000 
     41 H41        -4.2819   47.4031   25.0816 H         1 UNK         0.0000 
     42 H42        -3.0144   48.5839   24.8525 H         1 UNK         0.0000 
     43 H43        -4.2700   48.4032   23.6317 H         1 UNK         0.0000 
     44 H44        -4.3115   45.2328   23.7815 H         1 UNK         0.0000 
     45 H45        -4.3733   46.1178   22.2658 H         1 UNK         0.0000 
     46 H46        -3.1152   44.9182   22.5247 H         1 UNK         0.0000 
     47 H47         0.1530   49.4716   27.2974 H         1 UNK         0.0000 
     48 H48         0.3043   47.8936   26.6443 H         1 UNK         0.0000 
@<TRIPOS>BOND
     1    1    2 1    
     2    1   25 1    
     3    1   26 1    
     4    1   27 1    
     5    2    6 1    
     6    2    3 2    
     7    3    4 1    
     8    3   28 1    
     9    4    5 1    
    10    5    6 2    
    11    5    7 1    
    12    7   12 1    
    13    7    8 2    
    14    8    9 1    
    15    8   24 1    
    16    9   10 1    
    17    9   29 1    
    18   10   11 2    
    19   10   20 1    
    20   11   12 1    
    21   11   18 1    
    22   12   17 1    
    23   12   13 1    
    24   13   14 1    
    25   13   30 1    
    26   13   31 1    
    27   14   15 1    
    28   14   32 1    
    29   14   33 1    
    30   15   16 1    
    31   15   34 1    
    32   15   35 1    
    33   16   17 1    
    34   16   36 1    
    35   16   37 1    
    36   17   38 1    
    37   17   39 1    
    38   18   19 3    
    39   20   21 1    
    40   21   22 1    
    41   21   23 1    
    42   21   40 1    
    43   22   41 1    
    44   22   42 1    
    45   22   43 1    
    46   23   44 1    
    47   23   45 1    
    48   23   46 1    
    49   24   47 1    
    50   24   48 1    
@<TRIPOS>SUBSTRUCTURE
     1 UNK         1 GROUP             0       ****    0 ROOT    
