@<TRIPOS>MOLECULE
ZINC20153726_213
58   61    1
SMALL
USER_CHARGES


@<TRIPOS>ATOM
      1 C1          3.8368   54.3723   24.1582 C.3       1 UNK         0.0000 
      2 C2          2.8898   53.4308   23.4261 C.ar      1 UNK         0.0000 
      3 C3          3.0564   53.2022   22.0655 C.ar      1 UNK         0.0000 
      4 C4          2.2059   52.3198   21.3889 C.ar      1 UNK         0.0000 
      5 N5          1.1948   51.6730   22.0387 N.ar      1 UNK         0.0000 
      6 C6          1.0103   51.8737   23.3745 C.ar      1 UNK         0.0000 
      7 C7          1.8470   52.7531   24.1207 C.ar      1 UNK         0.0000 
      8 C8          1.6142   52.8968   25.5080 C.ar      1 UNK         0.0000 
      9 C9          0.5779   52.2167   26.1581 C.ar      1 UNK         0.0000 
     10 C10        -0.2310   51.3564   25.4136 C.ar      1 UNK         0.0000 
     11 C11        -0.0298   51.1808   24.0423 C.ar      1 UNK         0.0000 
     12 N12         0.3144   52.3183   27.5461 N.pl3     1 UNK         0.0000 
     13 C13         0.7125   53.2191   28.4982 C.2       1 UNK         0.0000 
     14 S14         0.3056   52.8946   30.0781 S.2       1 UNK         0.0000 
     15 N15         1.4030   54.3203   28.0764 N.pl3     1 UNK         0.0000 
     16 C16         2.1440   55.2787   28.9046 C.3       1 UNK         0.0000 
     17 C17         3.6155   54.8897   29.1908 C.3       1 UNK         0.0000 
     18 H18         4.1405   55.6968   29.6816 H         1 UNK         0.0000 
     19 C19         4.4955   54.4113   28.0263 C.3       1 UNK         0.0000 
     20 C20         5.3369   53.3348   28.6672 C.3       1 UNK         0.0000 
     21 C21         4.3009   52.6619   29.5518 C.3       1 UNK         0.0000 
     22 O22         3.5806   53.7698   30.0823 O.3       1 UNK         0.0000 
     23 N23         2.3272   52.0968   20.0144 N.pl3     1 UNK         0.0000 
     24 C24         3.2429   52.8976   19.1700 C.3       1 UNK         0.0000 
     25 C25         2.8726   52.9797   17.6786 C.3       1 UNK         0.0000 
     26 N26         2.7044   51.5563   17.1354 N.4       1 UNK         0.0000 
     27 C27         1.6057   50.8210   17.9189 C.3       1 UNK         0.0000 
     28 C28         1.9870   50.7878   19.4135 C.3       1 UNK         0.0000 
     29 C29         2.3992   51.5567   15.6243 C.3       1 UNK         0.0000 
     30 H30         4.5201   54.8789   23.4759 H         1 UNK         0.0000 
     31 H31         3.2779   55.1405   24.6937 H         1 UNK         0.0000 
     32 H32         4.4383   53.8168   24.8781 H         1 UNK         0.0000 
     33 H33         3.8619   53.7059   21.5571 H         1 UNK         0.0000 
     34 H34         2.2976   53.5239   26.0369 H         1 UNK         0.0000 
     35 H35        -1.0255   50.8064   25.9006 H         1 UNK         0.0000 
     36 H36        -0.6628   50.5064   23.4836 H         1 UNK         0.0000 
     37 H37        -0.2453   51.5572   27.9060 H         1 UNK         0.0000 
     38 H38         1.4538   54.4670   27.0803 H         1 UNK         0.0000 
     39 H39         1.6157   55.4907   29.8346 H         1 UNK         0.0000 
     40 H40         2.1362   56.2255   28.3664 H         1 UNK         0.0000 
     41 H41         5.0825   55.2159   27.5810 H         1 UNK         0.0000 
     42 H42         3.9116   53.9631   27.2306 H         1 UNK         0.0000 
     43 H43         6.1290   53.7783   29.2757 H         1 UNK         0.0000 
     44 H44         5.7883   52.6525   27.9448 H         1 UNK         0.0000 
     45 H45         4.7162   52.0492   30.3524 H         1 UNK         0.0000 
     46 H46         3.6257   52.0221   28.9792 H         1 UNK         0.0000 
     47 H47         3.3604   53.9144   19.5441 H         1 UNK         0.0000 
     48 H48         4.2087   52.3912   19.2449 H         1 UNK         0.0000 
     49 H49         3.6982   53.4179   17.1141 H         1 UNK         0.0000 
     50 H50         1.9477   53.5320   17.4983 H         1 UNK         0.0000 
     51 H51         1.5999   49.8056   17.5145 H         1 UNK         0.0000 
     52 H52         0.6533   51.3199   17.7288 H         1 UNK         0.0000 
     53 H53         2.9114   50.2101   19.4919 H         1 UNK         0.0000 
     54 H54         1.2271   50.2490   19.9808 H         1 UNK         0.0000 
     55 H55         1.4568   52.0836   15.4593 H         1 UNK         0.0000 
     56 H56         3.2334   52.0549   15.1264 H         1 UNK         0.0000 
     57 H57         2.3411   50.5119   15.3100 H         1 UNK         0.0000 
     58 H58         3.5739   51.0391   17.2800 H         1 UNK         0.0000 
@<TRIPOS>BOND
     1    1    2 1    
     2    1   30 1    
     3    1   31 1    
     4    1   32 1    
     5    2    7 ar   
     6    2    3 ar   
     7    3    4 ar   
     8    3   33 1    
     9    4    5 ar   
    10    4   23 1    
    11    5    6 ar   
    12    6   11 ar   
    13    6    7 ar   
    14    7    8 ar   
    15    8    9 ar   
    16    8   34 1    
    17    9   10 ar   
    18    9   12 1    
    19   10   11 ar   
    20   10   35 1    
    21   11   36 1    
    22   12   13 1    
    23   12   37 1    
    24   13   14 2    
    25   13   15 1    
    26   15   16 1    
    27   15   38 1    
    28   16   17 1    
    29   16   39 1    
    30   16   40 1    
    31   17   18 1    
    32   17   22 1    
    33   17   19 1    
    34   19   20 1    
    35   19   41 1    
    36   19   42 1    
    37   20   21 1    
    38   20   43 1    
    39   20   44 1    
    40   21   22 1    
    41   21   45 1    
    42   21   46 1    
    43   23   28 1    
    44   23   24 1    
    45   24   25 1    
    46   24   47 1    
    47   24   48 1    
    48   25   26 1    
    49   25   49 1    
    50   25   50 1    
    51   26   27 1    
    52   26   29 1    
    53   26   58 1    
    54   27   28 1    
    55   27   51 1    
    56   27   52 1    
    57   28   53 1    
    58   28   54 1    
    59   29   55 1    
    60   29   56 1    
    61   29   57 1    
@<TRIPOS>SUBSTRUCTURE
     1 UNK         1 GROUP             0       ****    0 ROOT    
