@<TRIPOS>MOLECULE
ZINC00524899_3592
39   42    1
SMALL
USER_CHARGES


@<TRIPOS>ATOM
      1 C1         -3.4948   53.2964   24.0969 C.ar      1 UNK         0.0000 
      2 C2         -4.5760   53.5275   24.9405 C.ar      1 UNK         0.0000 
      3 C3         -4.7306   52.7564   26.0901 C.ar      1 UNK         0.0000 
      4 C4         -3.8063   51.7570   26.4033 C.ar      1 UNK         0.0000 
      5 C5         -2.7146   51.5039   25.5490 C.ar      1 UNK         0.0000 
      6 C6         -2.5808   52.2894   24.3912 C.ar      1 UNK         0.0000 
      7 C7         -1.6805   50.4126   25.9019 C.3       1 UNK         0.0000 
      8 H8         -2.2305   49.5952   26.3712 H         1 UNK         0.0000 
      9 C9         -0.6292   50.9420   26.9050 C.3       1 UNK         0.0000 
     10 C10         0.2952   52.0338   26.3025 C.3       1 UNK         0.0000 
     11 H11        -0.3420   52.8965   26.1185 H         1 UNK         0.0000 
     12 N12         0.7028   51.5418   24.9704 N.pl3     1 UNK         0.0000 
     13 C13         0.1307   50.5036   24.2639 C.ar      1 UNK         0.0000 
     14 N14         0.7253   50.3441   23.1116 N.2       1 UNK         0.0000 
     15 C15         1.5999   51.3354   23.1133 C.ar      1 UNK         0.0000 
     16 N16         1.6374   52.0956   24.1853 N.2       1 UNK         0.0000 
     17 N17         2.4128   51.5696   22.0492 N.pl3     1 UNK         0.0000 
     18 N18        -0.9583   49.8110   24.7664 N.pl3     1 UNK         0.0000 
     19 C19         1.4201   52.5574   27.2189 C.ar      1 UNK         0.0000 
     20 C20         1.6910   51.9817   28.4699 C.ar      1 UNK         0.0000 
     21 C21         2.6654   52.5304   29.3004 C.ar      1 UNK         0.0000 
     22 C22         3.3763   53.6519   28.8856 C.ar      1 UNK         0.0000 
     23 C23         3.1304   54.2253   27.6433 C.ar      1 UNK         0.0000 
     24 C24         2.1517   53.6825   26.8171 C.ar      1 UNK         0.0000 
     25 F25         4.3033   54.1973   29.7018 F         1 UNK         0.0000 
     26 Cl26       -4.0445   50.8699   27.8708 Cl        1 UNK         0.0000 
     27 H27        -3.3595   53.9043   23.2177 H         1 UNK         0.0000 
     28 H28        -5.2901   54.3021   24.7034 H         1 UNK         0.0000 
     29 H29        -5.5684   52.9405   26.7465 H         1 UNK         0.0000 
     30 H30        -1.7607   52.1459   23.7066 H         1 UNK         0.0000 
     31 H31        -1.1168   51.3195   27.8050 H         1 UNK         0.0000 
     32 H32        -0.0378   50.0948   27.2558 H         1 UNK         0.0000 
     33 H33         2.3780   50.9901   21.2238 H         1 UNK         0.0000 
     34 H34         3.0281   52.3688   22.0260 H         1 UNK         0.0000 
     35 H35        -1.5009   49.1885   24.1874 H         1 UNK         0.0000 
     36 H36         1.1448   51.1226   28.8276 H         1 UNK         0.0000 
     37 H37         2.8609   52.0988   30.2694 H         1 UNK         0.0000 
     38 H38         3.6922   55.0911   27.3275 H         1 UNK         0.0000 
     39 H39         1.9577   54.1360   25.8572 H         1 UNK         0.0000 
@<TRIPOS>BOND
     1    1    6 ar   
     2    1    2 ar   
     3    1   27 1    
     4    2    3 ar   
     5    2   28 1    
     6    3    4 ar   
     7    3   29 1    
     8    4    5 ar   
     9    4   26 1    
    10    5    6 ar   
    11    5    7 1    
    12    6   30 1    
    13    7    8 1    
    14    7   18 1    
    15    7    9 1    
    16    9   10 1    
    17    9   31 1    
    18    9   32 1    
    19   10   11 1    
    20   10   12 1    
    21   10   19 1    
    22   12   16 ar   
    23   12   13 ar   
    24   13   14 ar   
    25   13   18 1    
    26   14   15 ar   
    27   15   16 ar   
    28   15   17 1    
    29   17   33 1    
    30   17   34 1    
    31   18   35 1    
    32   19   24 ar   
    33   19   20 ar   
    34   20   21 ar   
    35   20   36 1    
    36   21   22 ar   
    37   21   37 1    
    38   22   23 ar   
    39   22   25 1    
    40   23   24 ar   
    41   23   38 1    
    42   24   39 1    
@<TRIPOS>SUBSTRUCTURE
     1 UNK         1 GROUP             0       ****    0 ROOT    
