ZINC09866034_2748
                    3D
 Schrodinger Suite 2024-2.
 59 62  0  0  1  0            999 V2000
    1.0136   53.6133   28.8180 C   0  0  0  0  0  0
    2.4767   53.8192   28.4917 C   0  0  0  0  0  0
    2.9220   54.0889   27.2856 N   0  0  0  0  0  0
    4.2393   54.2232   27.2231 C   0  0  0  0  0  0
    4.8823   54.0736   28.4546 C   0  0  0  0  0  0
    3.7262   53.7007   29.6832 S   0  0  0  0  0  0
    4.9283   54.4893   25.9199 C   0  0  0  0  0  0
    6.1795   55.1091   25.9221 C   0  0  0  0  0  0
    6.8597   55.3148   24.7289 C   0  0  0  0  0  0
    6.3162   54.8964   23.5185 C   0  0  0  0  0  0
    5.0603   54.2727   23.5067 C   0  0  0  0  0  0
    4.3628   54.0956   24.7004 C   0  0  0  0  0  0
    7.1036   55.1362   22.3747 N   0  0  0  0  0  0
    6.6845   55.2959   21.1025 C   0  0  0  0  0  0
    5.5017   55.2743   20.7741 O   0  0  0  0  0  0
    7.7867   55.5469   20.0445 C   0  0  0  0  0  0
    7.2326   56.0474   18.7603 N   0  0  0  0  0  0
    6.5573   55.2717   17.8804 C   0  0  0  0  0  0
    6.4766   54.0414   17.8659 O   0  0  0  0  0  0
    5.8116   56.2398   16.9568 C   0  0  1  0  0  0
    6.1973   55.9286   15.4741 C   0  0  0  0  0  0
    5.0332   55.3310   14.6505 C   0  0  1  0  0  0
    4.7191   54.3912   15.1099 H   0  0  0  0  0  0
    3.8499   56.3261   14.6759 C   0  0  0  0  0  0
    3.3265   56.6810   16.1087 C   0  0  0  0  0  0
    4.2736   56.1572   17.2380 C   0  0  0  0  0  0
    3.2343   58.2211   16.2501 C   0  0  0  0  0  0
    1.9544   55.9902   16.2901 C   0  0  0  0  0  0
    5.4812   55.0577   13.2018 C   0  0  0  0  0  0
    6.3448   57.4819   17.4322 N   0  0  0  0  0  0
    7.1805   57.3697   18.4621 C   0  0  0  0  0  0
    7.9012   58.2655   18.8817 O   0  0  0  0  0  0
    0.8370   52.6133   29.2202 H   0  0  0  0  0  0
    0.6647   54.3250   29.5687 H   0  0  0  0  0  0
    0.3648   53.7150   27.9509 H   0  0  0  0  0  0
    5.9365   54.1312   28.6878 H   0  0  0  0  0  0
    6.6270   55.4387   26.8490 H   0  0  0  0  0  0
    7.8126   55.8197   24.7368 H   0  0  0  0  0  0
    4.6144   53.9198   22.5883 H   0  0  0  0  0  0
    3.3996   53.6076   24.6761 H   0  0  0  0  0  0
    8.0856   55.2914   22.5694 H   0  0  0  0  0  0
    8.2955   54.6008   19.8545 H   0  0  0  0  0  0
    8.5456   56.2286   20.4335 H   0  0  0  0  0  0
    7.1018   55.3212   15.3755 H   0  0  0  0  0  0
    6.4547   56.8622   14.9673 H   0  0  0  0  0  0
    4.2617   57.2219   14.2052 H   0  0  0  0  0  0
    3.0474   56.0314   13.9985 H   0  0  0  0  0  0
    4.0001   56.5423   18.2235 H   0  0  0  0  0  0
    4.0572   55.0906   17.3539 H   0  0  0  0  0  0
    3.0008   58.5211   17.2717 H   0  0  0  0  0  0
    4.1732   58.7119   15.9930 H   0  0  0  0  0  0
    2.4642   58.6432   15.6026 H   0  0  0  0  0  0
    1.5391   56.1760   17.2803 H   0  0  0  0  0  0
    1.2256   56.3603   15.5667 H   0  0  0  0  0  0
    2.0201   54.9076   16.1583 H   0  0  0  0  0  0
    5.8096   55.9682   12.6988 H   0  0  0  0  0  0
    4.6699   54.6283   12.6128 H   0  0  0  0  0  0
    6.3093   54.3491   13.1765 H   0  0  0  0  0  0
    5.8885   58.3541   17.2092 H   0  0  0  0  0  0
  1  2  1  0  0  0
  1 33  1  0  0  0
  1 34  1  0  0  0
  1 35  1  0  0  0
  2  6  1  0  0  0
  2  3  2  0  0  0
  3  4  1  0  0  0
  4  5  2  0  0  0
  4  7  1  0  0  0
  5  6  1  0  0  0
  5 36  1  0  0  0
  7 12  2  0  0  0
  7  8  1  0  0  0
  8  9  2  0  0  0
  8 37  1  0  0  0
  9 10  1  0  0  0
  9 38  1  0  0  0
 10 11  2  0  0  0
 10 13  1  0  0  0
 11 12  1  0  0  0
 11 39  1  0  0  0
 12 40  1  0  0  0
 13 14  1  0  0  0
 13 41  1  0  0  0
 14 15  2  0  0  0
 14 16  1  0  0  0
 16 17  1  0  0  0
 16 42  1  0  0  0
 16 43  1  0  0  0
 17 31  1  0  0  0
 17 18  1  0  0  0
 18 19  2  0  0  0
 18 20  1  0  0  0
 20 26  1  0  0  0
 20 21  1  0  0  0
 20 30  1  0  0  0
 21 22  1  0  0  0
 21 44  1  0  0  0
 21 45  1  0  0  0
 22 23  1  0  0  0
 22 24  1  0  0  0
 22 29  1  0  0  0
 24 25  1  0  0  0
 24 46  1  0  0  0
 24 47  1  0  0  0
 25 26  1  0  0  0
 25 27  1  0  0  0
 25 28  1  0  0  0
 26 48  1  0  0  0
 26 49  1  0  0  0
 27 50  1  0  0  0
 27 51  1  0  0  0
 27 52  1  0  0  0
 28 53  1  0  0  0
 28 54  1  0  0  0
 28 55  1  0  0  0
 29 56  1  0  0  0
 29 57  1  0  0  0
 29 58  1  0  0  0
 30 31  1  0  0  0
 30 59  1  0  0  0
 31 32  2  0  0  0
M  END
> <i_i_glide_confnum>
108

> <i_i_glide_lignum>
2749

> <i_i_glide_posenum>
316

> <i_i_glide_rotatable_bonds>
5

> <i_m_Source_File_Index>
1757

> <b_m_subgroup_collapsed>
0

> <r_i_docking_score>
-5.55878

> <r_i_glide_ecoul>
-2.67374

> <r_i_glide_eff_state_penalty>
0

> <r_i_glide_einternal>
1.61358

> <r_i_glide_emodel>
-56.4982

> <r_i_glide_energy>
-41.6494

> <r_i_glide_erotb>
0.514385

> <r_i_glide_esite>
-0.0307836

> <r_i_glide_evdw>
-38.9757

> <r_i_glide_gscore>
-5.55878

> <r_i_glide_hbond>
-0.355234

> <r_i_glide_ligand_efficiency>
-0.179315

> <r_i_glide_ligand_efficiency_ln>
-1.25367

> <r_i_glide_ligand_efficiency_sa>
-0.563298

> <r_i_glide_lipo>
-2.62468

> <r_i_glide_metal>
0

> <r_i_glide_rewards>
-0.712619

> <s_i_glide_gridfile>
wee1_glide-grid

> <s_m_Source_File>
wee1_decoys_glide_SP.sdf

> <s_m_Source_Path>
/Users/zhangxujun/Desktop

> <s_m_entry_id>
2032

> <s_m_entry_name>
wee1_decoys_glide_SP.1757

> <s_m_subgroup_title>
wee1_decoys_glide_SP

> <s_m_subgroupid>
wee1_decoys_glide_SP


$$$$
