@<TRIPOS>MOLECULE
ZINC31211417_1535
50   53    1
SMALL
USER_CHARGES


@<TRIPOS>ATOM
      1 C1         -0.8082   51.6967   28.4653 C.3       1 UNK         0.0000 
      2 C2          0.3088   52.6982   28.6222 C.2       1 UNK         0.0000 
      3 C3          0.7060   53.5556   29.6370 C.2       1 UNK         0.0000 
      4 C4          1.8454   54.2193   29.1779 C.2       1 UNK         0.0000 
      5 C5          2.1064   53.7401   27.9022 C.2       1 UNK         0.0000 
      6 O6          1.1509   52.8331   27.5645 O.3       1 UNK         0.0000 
      7 C7          3.1616   53.9819   26.9403 C.2       1 UNK         0.0000 
      8 N8          4.3514   54.4028   27.2855 N.2       1 UNK         0.0000 
      9 C9          5.1819   54.4947   26.2622 C.2       1 UNK         0.0000 
     10 C10         4.6320   54.1919   25.0073 C.2       1 UNK         0.0000 
     11 S11         2.9671   53.6969   25.2410 S.3       1 UNK         0.0000 
     12 C12         5.2988   54.0967   23.7282 C.2       1 UNK         0.0000 
     13 O13         6.5269   54.0034   23.6611 O.2       1 UNK         0.0000 
     14 N14         4.4776   54.1371   22.6546 N.am      1 UNK         0.0000 
     15 N15         4.9834   53.8839   21.3744 N.am      1 UNK         0.0000 
     16 C16         5.5044   54.8448   20.5756 C.2       1 UNK         0.0000 
     17 O17         5.9050   55.9715   20.8813 O.2       1 UNK         0.0000 
     18 C18         5.4358   54.2577   19.1734 C.3       1 UNK         0.0000 
     19 C19         6.7923   54.4170   18.4323 C.3       1 UNK         0.0000 
     20 C20         6.7146   53.8016   17.0168 C.3       1 UNK         0.0000 
     21 C21         5.6102   54.4933   16.1792 C.3       1 UNK         0.0000 
     22 C22         4.2510   54.4071   16.9163 C.3       1 UNK         0.0000 
     23 C23         4.3570   55.0047   18.3372 C.3       1 UNK         0.0000 
     24 C24         5.5242   53.9136   14.7571 C.3       1 UNK         0.0000 
     25 N25         5.0876   52.8968   19.4836 N.am      1 UNK         0.0000 
     26 C26         4.7459   52.6977   20.7593 C.2       1 UNK         0.0000 
     27 O27         4.4602   51.6227   21.2820 O.2       1 UNK         0.0000 
     28 C28         6.6021   54.8964   26.6024 C.3       1 UNK         0.0000 
     29 H29        -1.3328   51.5194   29.4042 H         1 UNK         0.0000 
     30 H30        -0.4366   50.7299   28.1244 H         1 UNK         0.0000 
     31 H31        -1.5461   52.0273   27.7349 H         1 UNK         0.0000 
     32 H32         0.2295   53.6719   30.5997 H         1 UNK         0.0000 
     33 H33         2.4258   54.9581   29.7104 H         1 UNK         0.0000 
     34 H34         3.4711   54.1932   22.6887 H         1 UNK         0.0000 
     35 H35         7.1420   55.4510   18.4299 H         1 UNK         0.0000 
     36 H36         7.5683   53.8683   18.9661 H         1 UNK         0.0000 
     37 H37         6.5214   52.7277   17.0777 H         1 UNK         0.0000 
     38 H38         7.6769   53.8834   16.5111 H         1 UNK         0.0000 
     39 H39         5.8723   55.5512   16.1098 H         1 UNK         0.0000 
     40 H40         3.9234   53.3673   16.9637 H         1 UNK         0.0000 
     41 H41         3.4761   54.9196   16.3429 H         1 UNK         0.0000 
     42 H42         3.3813   54.8693   18.8065 H         1 UNK         0.0000 
     43 H43         4.5112   56.0858   18.3349 H         1 UNK         0.0000 
     44 H44         5.2649   52.8541   14.7738 H         1 UNK         0.0000 
     45 H45         4.7680   54.4293   14.1646 H         1 UNK         0.0000 
     46 H46         6.4750   54.0135   14.2319 H         1 UNK         0.0000 
     47 H47         4.8194   52.2489   18.7488 H         1 UNK         0.0000 
     48 H48         7.2639   54.0290   26.5803 H         1 UNK         0.0000 
     49 H49         6.9906   55.6168   25.8812 H         1 UNK         0.0000 
     50 H50         6.7026   55.3489   27.5921 H         1 UNK         0.0000 
@<TRIPOS>BOND
     1    1    2 1    
     2    1   29 1    
     3    1   30 1    
     4    1   31 1    
     5    2    6 1    
     6    2    3 2    
     7    3    4 1    
     8    3   32 1    
     9    4    5 2    
    10    4   33 1    
    11    5    6 1    
    12    5    7 1    
    13    7   11 1    
    14    7    8 2    
    15    8    9 1    
    16    9   10 2    
    17    9   28 1    
    18   10   11 1    
    19   10   12 1    
    20   12   13 2    
    21   12   14 am   BACKBONE|DICT|INTERRES
    22   14   15 1    
    23   14   34 1    
    24   15   26 am   BACKBONE|DICT|INTERRES
    25   15   16 am   BACKBONE|DICT|INTERRES
    26   16   17 2    
    27   16   18 1    
    28   18   23 1    
    29   18   19 1    
    30   18   25 1    
    31   19   20 1    
    32   19   35 1    
    33   19   36 1    
    34   20   21 1    
    35   20   37 1    
    36   20   38 1    
    37   21   22 1    
    38   21   24 1    
    39   21   39 1    
    40   22   23 1    
    41   22   40 1    
    42   22   41 1    
    43   23   42 1    
    44   23   43 1    
    45   24   44 1    
    46   24   45 1    
    47   24   46 1    
    48   25   26 am   BACKBONE|DICT|INTERRES
    49   25   47 1    
    50   26   27 2    
    51   28   48 1    
    52   28   49 1    
    53   28   50 1    
@<TRIPOS>SUBSTRUCTURE
     1 UNK         1 GROUP             0       ****    0 ROOT    
