@<TRIPOS>MOLECULE
ZINC19636546_2756
56   60    1
SMALL
USER_CHARGES


@<TRIPOS>ATOM
      1 C1         -1.1717   50.8958   26.4047 C.3       1 UNK         0.0000 
      2 C2          0.0881   51.6657   26.7043 C.2       1 UNK         0.0000 
      3 C3          0.8107   51.9252   27.8428 C.2       1 UNK         0.0000 
      4 C4          1.9084   52.7103   27.4496 C.2       1 UNK         0.0000 
      5 N5          1.8563   52.8993   26.1440 N.2       1 UNK         0.0000 
      6 O6          0.7137   52.2599   25.6634 O.3       1 UNK         0.0000 
      7 C7          2.9475   53.1625   28.3792 C.2       1 UNK         0.0000 
      8 O8          2.9202   52.7047   29.5303 O.2       1 UNK         0.0000 
      9 N9          3.9160   54.0603   28.0017 N.am      1 UNK         0.0000 
     10 C10         4.9789   54.3988   28.9666 C.3       1 UNK         0.0000 
     11 C11         6.2634   53.6966   28.4762 C.3       1 UNK         0.0000 
     12 C12         6.6644   54.1447   27.0640 C.3       1 UNK         0.0000 
     13 C13         5.4561   53.9679   26.1100 C.3       1 UNK         0.0000 
     14 H14         5.2772   52.8974   26.0054 H         1 UNK         0.0000 
     15 C15         4.1753   54.6412   26.6654 C.3       1 UNK         0.0000 
     16 C16         5.7622   54.5227   24.7056 C.2       1 UNK         0.0000 
     17 O17         6.4840   55.5121   24.5735 O.2       1 UNK         0.0000 
     18 N18         5.1612   53.8608   23.6959 N.am      1 UNK         0.0000 
     19 C19         5.1928   54.0962   22.3139 C.ar      1 UNK         0.0000 
     20 C20         4.2132   53.4402   21.5639 C.ar      1 UNK         0.0000 
     21 C21         4.1353   53.6264   20.1850 C.ar      1 UNK         0.0000 
     22 C22         5.0311   54.4782   19.5448 C.ar      1 UNK         0.0000 
     23 C23         6.0316   55.1255   20.2767 C.ar      1 UNK         0.0000 
     24 C24         6.1257   54.9163   21.6580 C.ar      1 UNK         0.0000 
     25 C25         6.9829   56.0287   19.5810 C.ar      1 UNK         0.0000 
     26 C26         8.3624   56.0966   19.6427 C.ar      1 UNK         0.0000 
     27 C27         8.7949   57.1549   18.7780 C.ar      1 UNK         0.0000 
     28 C28        10.0439   57.6984   18.4340 C.ar      1 UNK         0.0000 
     29 C29        10.0923   58.7838   17.5591 C.ar      1 UNK         0.0000 
     30 C30         8.9253   59.3373   17.0367 C.ar      1 UNK         0.0000 
     31 C31         7.6643   58.8306   17.3521 C.ar      1 UNK         0.0000 
     32 C32         7.6184   57.7345   18.2192 C.ar      1 UNK         0.0000 
     33 N33         6.5562   57.0118   18.7175 N.pl3     1 UNK         0.0000 
     34 H34         5.5787   57.1593   18.5109 H         1 UNK         0.0000 
     35 H35        -1.6265   50.4975   27.3116 H         1 UNK         0.0000 
     36 H36        -1.9191   51.5155   25.9112 H         1 UNK         0.0000 
     37 H37        -0.9694   50.0439   25.7554 H         1 UNK         0.0000 
     38 H38         0.5761   51.5787   28.8404 H         1 UNK         0.0000 
     39 H39         5.1305   55.4737   28.9560 H         1 UNK         0.0000 
     40 H40         4.7044   54.1956   30.0023 H         1 UNK         0.0000 
     41 H41         7.0819   53.8990   29.1683 H         1 UNK         0.0000 
     42 H42         6.1164   52.6154   28.4812 H         1 UNK         0.0000 
     43 H43         6.9529   55.1927   27.1599 H         1 UNK         0.0000 
     44 H44         7.5046   53.5223   26.7601 H         1 UNK         0.0000 
     45 H45         3.3210   54.6834   25.9978 H         1 UNK         0.0000 
     46 H46         4.3877   55.6967   26.8093 H         1 UNK         0.0000 
     47 H47         4.5441   53.1130   23.9727 H         1 UNK         0.0000 
     48 H48         3.4923   52.7920   22.0405 H         1 UNK         0.0000 
     49 H49         3.3710   53.1212   19.6126 H         1 UNK         0.0000 
     50 H50         4.9533   54.6193   18.4762 H         1 UNK         0.0000 
     51 H51         6.9131   55.4135   22.2040 H         1 UNK         0.0000 
     52 H52         8.9883   55.4537   20.2416 H         1 UNK         0.0000 
     53 H53        10.9546   57.2960   18.8525 H         1 UNK         0.0000 
     54 H54        11.0482   59.2068   17.2850 H         1 UNK         0.0000 
     55 H55         8.9931   60.1825   16.3695 H         1 UNK         0.0000 
     56 H56         6.7676   59.2828   16.9478 H         1 UNK         0.0000 
@<TRIPOS>BOND
     1    1    2 1    
     2    1   35 1    
     3    1   36 1    
     4    1   37 1    
     5    2    6 1    
     6    2    3 2    
     7    3    4 1    
     8    3   38 1    
     9    4    5 2    
    10    4    7 1    
    11    5    6 1    
    12    7    8 2    
    13    7    9 am   BACKBONE|DICT|INTERRES
    14    9   15 1    
    15    9   10 1    
    16   10   11 1    
    17   10   39 1    
    18   10   40 1    
    19   11   12 1    
    20   11   41 1    
    21   11   42 1    
    22   12   13 1    
    23   12   43 1    
    24   12   44 1    
    25   13   14 1    
    26   13   15 1    
    27   13   16 1    
    28   15   45 1    
    29   15   46 1    
    30   16   17 2    
    31   16   18 am   BACKBONE|DICT|INTERRES
    32   18   19 1    
    33   18   47 1    
    34   19   24 ar   
    35   19   20 ar   
    36   20   21 ar   
    37   20   48 1    
    38   21   22 ar   
    39   21   49 1    
    40   22   23 ar   
    41   22   50 1    
    42   23   24 ar   
    43   23   25 1    
    44   24   51 1    
    45   25   33 ar   
    46   25   26 ar   
    47   26   27 ar   
    48   26   52 1    
    49   27   32 ar   
    50   27   28 ar   
    51   28   29 ar   
    52   28   53 1    
    53   29   30 ar   
    54   29   54 1    
    55   30   31 ar   
    56   30   55 1    
    57   31   32 ar   
    58   31   56 1    
    59   32   33 ar   
    60   33   34 1    
@<TRIPOS>SUBSTRUCTURE
     1 UNK         1 GROUP             0       ****    0 ROOT    
