@<TRIPOS>MOLECULE
ZINC38596951_3055
71   74    1
SMALL
USER_CHARGES


@<TRIPOS>ATOM
      1 C1          8.4183   50.2469   11.6475 C.3       1 UNK         0.0000 
      2 C2          7.8410   49.7120   12.9673 C.3       1 UNK         0.0000 
      3 O3          8.2573   50.4974   14.0801 O.3       1 UNK         0.0000 
      4 C4          9.5188   50.3589   14.6350 C.ar      1 UNK         0.0000 
      5 C5         10.4743   49.4442   14.1624 C.ar      1 UNK         0.0000 
      6 C6         11.7054   49.2968   14.7971 C.ar      1 UNK         0.0000 
      7 C7         11.9989   50.0495   15.9291 C.ar      1 UNK         0.0000 
      8 C8         11.0716   50.9712   16.4090 C.ar      1 UNK         0.0000 
      9 C9          9.8484   51.1508   15.7579 C.ar      1 UNK         0.0000 
     10 N10         8.9867   52.1160   16.3068 N.am      1 UNK         0.0000 
     11 C11         8.3417   53.0921   15.6290 C.2       1 UNK         0.0000 
     12 O12         8.3765   53.2531   14.4030 O.2       1 UNK         0.0000 
     13 C13         7.5696   53.9921   16.5192 C.2       1 UNK         0.0000 
     14 O14         7.9029   54.2142   17.6865 O.2       1 UNK         0.0000 
     15 N15         6.4949   54.5252   15.8996 N.am      1 UNK         0.0000 
     16 C16         5.4756   55.4457   16.4259 C.3       1 UNK         0.0000 
     17 H17         6.0249   56.2958   16.8239 H         1 UNK         0.0000 
     18 C18         4.7000   56.0636   15.2480 C.3       1 UNK         0.0000 
     19 C19         4.4892   54.8802   17.5278 C.3       1 UNK         0.0000 
     20 H20         3.8182   55.7047   17.7788 H         1 UNK         0.0000 
     21 C21         3.5738   53.7525   17.0044 C.2       1 UNK         0.0000 
     22 C22         2.2399   53.4972   17.3499 C.2       1 UNK         0.0000 
     23 C23         1.6692   52.3748   16.7463 C.2       1 UNK         0.0000 
     24 C24         2.5531   51.7231   15.9129 C.2       1 UNK         0.0000 
     25 S25         4.0903   52.5092   15.8810 S.3       1 UNK         0.0000 
     26 N26         5.1609   54.5478   18.8165 N.3       1 UNK         0.0000 
     27 C27         4.2976   53.8630   19.7993 C.3       1 UNK         0.0000 
     28 C28         5.1030   53.4120   21.0344 C.3       1 UNK         0.0000 
     29 N29         5.7301   54.6559   21.7069 N.4       1 UNK         0.0000 
     30 C30         6.6565   55.3460   20.6802 C.3       1 UNK         0.0000 
     31 C31         5.8592   55.7104   19.4111 C.3       1 UNK         0.0000 
     32 C32         6.4999   54.3036   23.0084 C.3       1 UNK         0.0000 
     33 C33         5.7095   54.3559   24.3137 C.ar      1 UNK         0.0000 
     34 C34         4.3129   54.2698   24.3550 C.ar      1 UNK         0.0000 
     35 C35         3.6491   54.2816   25.5794 C.ar      1 UNK         0.0000 
     36 C36         4.3766   54.3926   26.7611 C.ar      1 UNK         0.0000 
     37 C37         5.7650   54.4972   26.7324 C.ar      1 UNK         0.0000 
     38 C38         6.4263   54.4776   25.5075 C.ar      1 UNK         0.0000 
     39 H39         8.0129   49.7013   10.7961 H         1 UNK         0.0000 
     40 H40         8.1706   51.3007   11.5199 H         1 UNK         0.0000 
     41 H41         9.5039   50.1603   11.6095 H         1 UNK         0.0000 
     42 H42         8.0598   48.6546   13.1192 H         1 UNK         0.0000 
     43 H43         6.7534   49.7803   12.9246 H         1 UNK         0.0000 
     44 H44        10.2873   48.8377   13.2924 H         1 UNK         0.0000 
     45 H45        12.4259   48.5933   14.4052 H         1 UNK         0.0000 
     46 H46        12.9482   49.9257   16.4294 H         1 UNK         0.0000 
     47 H47        11.3208   51.5588   17.2811 H         1 UNK         0.0000 
     48 H48         8.9479   52.1636   17.3153 H         1 UNK         0.0000 
     49 H49         6.3759   54.2562   14.9337 H         1 UNK         0.0000 
     50 H50         3.9120   56.7253   15.6081 H         1 UNK         0.0000 
     51 H51         5.3460   56.6722   14.6159 H         1 UNK         0.0000 
     52 H52         4.2148   55.3069   14.6321 H         1 UNK         0.0000 
     53 H53         1.6931   54.1019   18.0587 H         1 UNK         0.0000 
     54 H54         0.6579   52.0419   16.9272 H         1 UNK         0.0000 
     55 H55         2.4032   50.8114   15.3525 H         1 UNK         0.0000 
     56 H56         3.5050   54.5459   20.1124 H         1 UNK         0.0000 
     57 H57         3.8511   52.9634   19.3747 H         1 UNK         0.0000 
     58 H58         5.8930   52.7126   20.7534 H         1 UNK         0.0000 
     59 H59         4.4457   52.9395   21.7613 H         1 UNK         0.0000 
     60 H60         7.4936   54.6860   20.4509 H         1 UNK         0.0000 
     61 H61         7.0196   56.2553   21.1610 H         1 UNK         0.0000 
     62 H62         6.5771   56.1726   18.7387 H         1 UNK         0.0000 
     63 H63         5.1044   56.4471   19.6815 H         1 UNK         0.0000 
     64 H64         6.9353   53.3117   22.8819 H         1 UNK         0.0000 
     65 H65         7.3259   55.0153   23.0725 H         1 UNK         0.0000 
     66 H66         3.7257   54.1910   23.4546 H         1 UNK         0.0000 
     67 H67         2.5718   54.1992   25.6121 H         1 UNK         0.0000 
     68 H68         3.8594   54.4000   27.7103 H         1 UNK         0.0000 
     69 H69         6.3225   54.5862   27.6544 H         1 UNK         0.0000 
     70 H70         7.5038   54.5372   25.4893 H         1 UNK         0.0000 
     71 H71         4.9853   55.2952   21.9510 H         1 UNK         0.0000 
@<TRIPOS>BOND
     1    1    2 1    
     2    1   39 1    
     3    1   40 1    
     4    1   41 1    
     5    2    3 1    
     6    2   42 1    
     7    2   43 1    
     8    3    4 1    
     9    4    9 ar   
    10    4    5 ar   
    11    5    6 ar   
    12    5   44 1    
    13    6    7 ar   
    14    6   45 1    
    15    7    8 ar   
    16    7   46 1    
    17    8    9 ar   
    18    8   47 1    
    19    9   10 1    
    20   10   11 am   BACKBONE|DICT|INTERRES
    21   10   48 1    
    22   11   12 2    
    23   11   13 1    
    24   13   14 2    
    25   13   15 am   BACKBONE|DICT|INTERRES
    26   15   16 1    
    27   15   49 1    
    28   16   17 1    
    29   16   18 1    
    30   16   19 1    
    31   18   50 1    
    32   18   51 1    
    33   18   52 1    
    34   19   20 1    
    35   19   21 1    
    36   19   26 1    
    37   21   25 1    
    38   21   22 2    
    39   22   23 1    
    40   22   53 1    
    41   23   24 2    
    42   23   54 1    
    43   24   25 1    
    44   24   55 1    
    45   26   31 1    
    46   26   27 1    
    47   27   28 1    
    48   27   56 1    
    49   27   57 1    
    50   28   29 1    
    51   28   58 1    
    52   28   59 1    
    53   29   30 1    
    54   29   32 1    
    55   29   71 1    
    56   30   31 1    
    57   30   60 1    
    58   30   61 1    
    59   31   62 1    
    60   31   63 1    
    61   32   33 1    
    62   32   64 1    
    63   32   65 1    
    64   33   38 ar   
    65   33   34 ar   
    66   34   35 ar   
    67   34   66 1    
    68   35   36 ar   
    69   35   67 1    
    70   36   37 ar   
    71   36   68 1    
    72   37   38 ar   
    73   37   69 1    
    74   38   70 1    
@<TRIPOS>SUBSTRUCTURE
     1 UNK         1 GROUP             0       ****    0 ROOT    
