@<TRIPOS>MOLECULE
ZINC19594869_6151
34   36    1
SMALL
USER_CHARGES


@<TRIPOS>ATOM
      1 C1          1.5130   52.8966   22.4318 C.2       1 UNK         0.0000 
      2 C2          2.2878   53.8184   23.1367 C.2       1 UNK         0.0000 
      3 C3          2.4912   53.3009   24.4144 C.2       1 UNK         0.0000 
      4 O4          1.8713   52.0926   24.4877 O.3       1 UNK         0.0000 
      5 C5          1.2698   51.8506   23.2982 C.2       1 UNK         0.0000 
      6 C6          3.2974   53.7366   25.6124 C.ar      1 UNK         0.0000 
      7 C7          2.7215   53.7260   26.9104 C.ar      1 UNK         0.0000 
      8 C8          3.5415   54.0974   27.9948 C.ar      1 UNK         0.0000 
      9 N9          4.8282   54.4810   27.8428 N.ar      1 UNK         0.0000 
     10 C10         5.3696   54.4963   26.6107 C.ar      1 UNK         0.0000 
     11 C11         4.6523   54.1292   25.4600 C.ar      1 UNK         0.0000 
     12 C12         5.3254   54.1178   24.1517 C.1       1 UNK         0.0000 
     13 N13         5.8586   54.1081   23.1251 N.1       1 UNK         0.0000 
     14 N14         6.7050   54.8965   26.5881 N.pl3     1 UNK         0.0000 
     15 C15         3.0474   54.1273   29.4395 C.3       1 UNK         0.0000 
     16 C16         2.6712   52.7529   30.0194 C.3       1 UNK         0.0000 
     17 C17         1.2931   52.2424   29.5739 C.3       1 UNK         0.0000 
     18 C18         1.1267   52.0245   28.0630 C.3       1 UNK         0.0000 
     19 C19         1.2799   53.2979   27.2086 C.3       1 UNK         0.0000 
     20 H20         1.1827   52.9660   21.4048 H         1 UNK         0.0000 
     21 H21         2.6890   54.7412   22.7458 H         1 UNK         0.0000 
     22 H22         0.7417   50.9142   23.2084 H         1 UNK         0.0000 
     23 H23         7.2152   54.7821   25.7241 H         1 UNK         0.0000 
     24 H24         7.1420   55.0861   27.4810 H         1 UNK         0.0000 
     25 H25         3.8264   54.5564   30.0723 H         1 UNK         0.0000 
     26 H26         2.2101   54.8212   29.5166 H         1 UNK         0.0000 
     27 H27         3.4440   52.0213   29.7700 H         1 UNK         0.0000 
     28 H28         2.6656   52.8155   31.1080 H         1 UNK         0.0000 
     29 H29         1.0961   51.3018   30.0801 H         1 UNK         0.0000 
     30 H30         0.5220   52.9263   29.9304 H         1 UNK         0.0000 
     31 H31         1.8195   51.2577   27.7090 H         1 UNK         0.0000 
     32 H32         0.1289   51.6145   27.8951 H         1 UNK         0.0000 
     33 H33         0.7600   54.1311   27.6799 H         1 UNK         0.0000 
     34 H34         0.7196   53.1540   26.2879 H         1 UNK         0.0000 
@<TRIPOS>BOND
     1    1    5 2    
     2    1    2 1    
     3    1   20 1    
     4    2    3 2    
     5    2   21 1    
     6    3    4 1    
     7    3    6 1    
     8    4    5 1    
     9    5   22 1    
    10    6   11 ar   
    11    6    7 ar   
    12    7   19 1    
    13    7    8 ar   
    14    8    9 ar   
    15    8   15 1    
    16    9   10 ar   
    17   10   11 ar   
    18   10   14 1    
    19   11   12 1    
    20   12   13 3    
    21   14   23 1    
    22   14   24 1    
    23   15   16 1    
    24   15   25 1    
    25   15   26 1    
    26   16   17 1    
    27   16   27 1    
    28   16   28 1    
    29   17   18 1    
    30   17   29 1    
    31   17   30 1    
    32   18   19 1    
    33   18   31 1    
    34   18   32 1    
    35   19   33 1    
    36   19   34 1    
@<TRIPOS>SUBSTRUCTURE
     1 UNK         1 GROUP             0       ****    0 ROOT    
