@<TRIPOS>MOLECULE
ZINC16572403_676
50   53    1
SMALL
USER_CHARGES


@<TRIPOS>ATOM
      1 C1          2.2065   53.4375   25.4469 C.3       1 UNK         0.0000 
      2 C2          3.2571   53.7924   26.4888 C.ar      1 UNK         0.0000 
      3 C3          2.9019   53.7127   27.8412 C.ar      1 UNK         0.0000 
      4 C4          3.8258   54.0154   28.8355 C.ar      1 UNK         0.0000 
      5 C5          5.1108   54.4088   28.4898 C.ar      1 UNK         0.0000 
      6 C6          5.4763   54.4961   27.1487 C.ar      1 UNK         0.0000 
      7 C7          4.5595   54.1874   26.1216 C.ar      1 UNK         0.0000 
      8 N8          4.8647   54.2631   24.7351 N.am      1 UNK         0.0000 
      9 C9          6.0495   54.4967   24.1262 C.2       1 UNK         0.0000 
     10 O10         7.1042   54.6131   24.7493 O.2       1 UNK         0.0000 
     11 N11         6.0053   54.6765   22.7755 N.am      1 UNK         0.0000 
     12 C12         7.1401   55.2819   22.0683 C.3       1 UNK         0.0000 
     13 C13         6.5618   55.8497   20.7830 C.3       1 UNK         0.0000 
     14 C14         5.4562   54.8663   20.4591 C.3       1 UNK         0.0000 
     15 C15         4.8707   54.4660   21.8298 C.3       1 UNK         0.0000 
     16 H16         4.0725   55.1636   22.0853 H         1 UNK         0.0000 
     17 C17         4.3151   53.0340   21.7814 C.2       1 UNK         0.0000 
     18 O18         5.1040   52.0964   21.6809 O.2       1 UNK         0.0000 
     19 N19         2.9749   52.9186   21.8604 N.am      1 UNK         0.0000 
     20 C20         2.2895   51.7137   21.9141 C.2       1 UNK         0.0000 
     21 N21         2.6259   50.5738   21.3423 N.2       1 UNK         0.0000 
     22 N22         1.7487   49.5442   21.6621 N.2       1 UNK         0.0000 
     23 C23         0.8049   49.9263   22.4935 C.2       1 UNK         0.0000 
     24 S24         0.8519   51.6208   22.8876 S.3       1 UNK         0.0000 
     25 C25        -0.2293   49.0295   23.0723 C.ar      1 UNK         0.0000 
     26 C26        -0.3535   48.9184   24.4599 C.ar      1 UNK         0.0000 
     27 C27        -1.2928   48.0491   25.0069 C.ar      1 UNK         0.0000 
     28 C28        -2.1092   47.2979   24.1653 C.ar      1 UNK         0.0000 
     29 C29        -2.0002   47.4124   22.7812 C.ar      1 UNK         0.0000 
     30 C30        -1.0574   48.2778   22.2329 C.ar      1 UNK         0.0000 
     31 Br31       -3.3806   46.0969   24.9130 Br        1 UNK         0.0000 
     32 H32         1.2117   53.3355   25.8775 H         1 UNK         0.0000 
     33 H33         2.1465   54.2055   24.6767 H         1 UNK         0.0000 
     34 H34         2.4792   52.4997   24.9705 H         1 UNK         0.0000 
     35 H35         1.9025   53.4101   28.1233 H         1 UNK         0.0000 
     36 H36         3.5423   53.9469   29.8746 H         1 UNK         0.0000 
     37 H37         5.8310   54.6549   29.2566 H         1 UNK         0.0000 
     38 H38         6.4827   54.8231   26.9515 H         1 UNK         0.0000 
     39 H39         4.0723   54.1119   24.1331 H         1 UNK         0.0000 
     40 H40         7.8772   54.5051   21.8648 H         1 UNK         0.0000 
     41 H41         7.6310   56.0677   22.6453 H         1 UNK         0.0000 
     42 H42         7.2982   55.9547   19.9867 H         1 UNK         0.0000 
     43 H43         6.1255   56.8291   20.9791 H         1 UNK         0.0000 
     44 H44         5.8885   54.0005   19.9520 H         1 UNK         0.0000 
     45 H45         4.7093   55.2947   19.7894 H         1 UNK         0.0000 
     46 H46         2.4226   53.7591   21.9499 H         1 UNK         0.0000 
     47 H47         0.2915   49.4856   25.1167 H         1 UNK         0.0000 
     48 H48        -1.3735   47.9529   26.0814 H         1 UNK         0.0000 
     49 H49        -2.6422   46.8337   22.1340 H         1 UNK         0.0000 
     50 H50        -0.9610   48.3604   21.1586 H         1 UNK         0.0000 
@<TRIPOS>BOND
     1    1    2 1    
     2    1   32 1    
     3    1   33 1    
     4    1   34 1    
     5    2    7 ar   
     6    2    3 ar   
     7    3    4 ar   
     8    3   35 1    
     9    4    5 ar   
    10    4   36 1    
    11    5    6 ar   
    12    5   37 1    
    13    6    7 ar   
    14    6   38 1    
    15    7    8 1    
    16    8    9 am   BACKBONE|DICT|INTERRES
    17    8   39 1    
    18    9   10 2    
    19    9   11 am   BACKBONE|DICT|INTERRES
    20   11   15 1    
    21   11   12 1    
    22   12   13 1    
    23   12   40 1    
    24   12   41 1    
    25   13   14 1    
    26   13   42 1    
    27   13   43 1    
    28   14   15 1    
    29   14   44 1    
    30   14   45 1    
    31   15   16 1    
    32   15   17 1    
    33   17   18 2    
    34   17   19 am   BACKBONE|DICT|INTERRES
    35   19   20 am   BACKBONE|DICT|INTERRES
    36   19   46 1    
    37   20   24 1    
    38   20   21 2    
    39   21   22 1    
    40   22   23 2    
    41   23   24 1    
    42   23   25 1    
    43   25   30 ar   
    44   25   26 ar   
    45   26   27 ar   
    46   26   47 1    
    47   27   28 ar   
    48   27   48 1    
    49   28   29 ar   
    50   28   31 1    
    51   29   30 ar   
    52   29   49 1    
    53   30   50 1    
@<TRIPOS>SUBSTRUCTURE
     1 UNK         1 GROUP             0       ****    0 ROOT    
