@<TRIPOS>MOLECULE
ZINC03011520_5098
52   55    1
SMALL
USER_CHARGES


@<TRIPOS>ATOM
      1 C1          4.4529   52.8932   28.7347 C.3       1 UNK         0.0000 
      2 C2          3.7651   54.1382   28.1600 C.3       1 UNK         0.0000 
      3 C3          3.4373   53.9717   26.6806 C.2       1 UNK         0.0000 
      4 C4          2.2248   53.4351   26.2269 C.2       1 UNK         0.0000 
      5 S5          2.1680   53.3888   24.4920 S.3       1 UNK         0.0000 
      6 C6          3.7766   54.0406   24.3567 C.2       1 UNK         0.0000 
      7 C7          4.3090   54.3135   25.6173 C.2       1 UNK         0.0000 
      8 C8          5.6441   54.8653   25.8129 C.1       1 UNK         0.0000 
      9 N9          6.7044   55.2973   25.9641 N.1       1 UNK         0.0000 
     10 N10         4.4137   54.2769   23.1373 N.am      1 UNK         0.0000 
     11 C11         4.0593   53.8607   21.9028 C.2       1 UNK         0.0000 
     12 O12         3.1299   53.0912   21.6533 O.2       1 UNK         0.0000 
     13 C13         4.8789   54.4239   20.8497 C.ar      1 UNK         0.0000 
     14 C14         6.2014   54.8969   20.9665 C.ar      1 UNK         0.0000 
     15 C15         6.5949   55.2744   19.6981 C.ar      1 UNK         0.0000 
     16 N16         5.4689   55.1167   18.9050 N.pl3     1 UNK         0.0000 
     17 N17         4.4903   54.5009   19.5908 N.2       1 UNK         0.0000 
     18 C18         5.3728   55.3746   17.4531 C.3       1 UNK         0.0000 
     19 H19         5.3954   54.4085   16.9500 H         1 UNK         0.0000 
     20 C20         6.6301   56.1911   17.0417 C.3       1 UNK         0.0000 
     21 C21         7.9408   55.7371   17.7310 C.3       1 UNK         0.0000 
     22 H22         8.6976   56.4851   17.4905 H         1 UNK         0.0000 
     23 N23         7.7723   55.7965   19.1893 N.pl3     1 UNK         0.0000 
     24 C24         8.4921   54.4091   17.1850 C.ar      1 UNK         0.0000 
     25 C25         7.8195   53.1971   17.3832 C.ar      1 UNK         0.0000 
     26 C26         8.3431   52.0091   16.8781 C.ar      1 UNK         0.0000 
     27 C27         9.5444   52.0210   16.1755 C.ar      1 UNK         0.0000 
     28 C28        10.2219   53.2209   15.9669 C.ar      1 UNK         0.0000 
     29 C29         9.6945   54.4132   16.4667 C.ar      1 UNK         0.0000 
     30 Cl30       10.1915   50.5407   15.5631 Cl        1 UNK         0.0000 
     31 C31         4.0551   56.0550   17.0093 C.3       1 UNK         0.0000 
     32 F32         4.0600   56.2827   15.6951 F         1 UNK         0.0000 
     33 F33         2.9762   55.3196   17.2770 F         1 UNK         0.0000 
     34 F34         3.9045   57.2364   17.6069 F         1 UNK         0.0000 
     35 C35         1.0532   52.9224   27.0359 C.3       1 UNK         0.0000 
     36 H36         4.7015   53.0287   29.7861 H         1 UNK         0.0000 
     37 H37         3.8081   52.0192   28.6560 H         1 UNK         0.0000 
     38 H38         5.3792   52.6677   28.2031 H         1 UNK         0.0000 
     39 H39         4.4067   55.0033   28.3289 H         1 UNK         0.0000 
     40 H40         2.8615   54.3452   28.7376 H         1 UNK         0.0000 
     41 H41         5.2815   54.7841   23.1900 H         1 UNK         0.0000 
     42 H42         6.8210   54.9299   21.8523 H         1 UNK         0.0000 
     43 H43         6.7446   56.1817   15.9570 H         1 UNK         0.0000 
     44 H44         6.4674   57.2453   17.2783 H         1 UNK         0.0000 
     45 H45         8.6458   55.6222   19.6658 H         1 UNK         0.0000 
     46 H46         6.9037   53.1395   17.9500 H         1 UNK         0.0000 
     47 H47         7.8194   51.0799   17.0423 H         1 UNK         0.0000 
     48 H48        11.1536   53.2262   15.4193 H         1 UNK         0.0000 
     49 H49        10.2323   55.3353   16.2973 H         1 UNK         0.0000 
     50 H50         1.3484   52.0961   27.6846 H         1 UNK         0.0000 
     51 H51         0.6361   53.7007   27.6777 H         1 UNK         0.0000 
     52 H52         0.2342   52.5576   26.4135 H         1 UNK         0.0000 
@<TRIPOS>BOND
     1    1    2 1    
     2    1   36 1    
     3    1   37 1    
     4    1   38 1    
     5    2    3 1    
     6    2   39 1    
     7    2   40 1    
     8    3    7 1    
     9    3    4 2    
    10    4    5 1    
    11    4   35 1    
    12    5    6 1    
    13    6    7 2    
    14    6   10 am   BACKBONE|DICT|INTERRES
    15    7    8 1    
    16    8    9 3    
    17   10   11 am   BACKBONE|DICT|INTERRES
    18   10   41 1    
    19   11   12 2    
    20   11   13 1    
    21   13   17 ar   
    22   13   14 ar   
    23   14   15 ar   
    24   14   42 1    
    25   15   23 1    
    26   15   16 ar   
    27   16   17 ar   
    28   16   18 1    
    29   18   19 1    
    30   18   20 1    
    31   18   31 1    
    32   20   21 1    
    33   20   43 1    
    34   20   44 1    
    35   21   22 1    
    36   21   23 1    
    37   21   24 1    
    38   23   45 1    
    39   24   29 ar   
    40   24   25 ar   
    41   25   26 ar   
    42   25   46 1    
    43   26   27 ar   
    44   26   47 1    
    45   27   28 ar   
    46   27   30 1    
    47   28   29 ar   
    48   28   48 1    
    49   29   49 1    
    50   31   32 1    
    51   31   33 1    
    52   31   34 1    
    53   35   50 1    
    54   35   51 1    
    55   35   52 1    
@<TRIPOS>SUBSTRUCTURE
     1 UNK         1 GROUP             0       ****    0 ROOT    
