@<TRIPOS>MOLECULE
ZINC23554891_5086
57   60    1
SMALL
USER_CHARGES


@<TRIPOS>ATOM
      1 C1          2.1853   49.7155   21.9091 C.2       1 UNK         0.0000 
      2 C2          1.7896   50.1850   23.1615 C.2       1 UNK         0.0000 
      3 C3          1.0294   51.3566   23.1292 C.2       1 UNK         0.0000 
      4 S4          0.8195   51.8637   21.4738 S.3       1 UNK         0.0000 
      5 C5          1.7501   50.5296   20.8795 C.2       1 UNK         0.0000 
      6 C6          0.4697   52.1941   24.2745 C.3       1 UNK         0.0000 
      7 H7         -0.3056   52.8731   23.9199 H         1 UNK         0.0000 
      8 C8          1.5608   53.0016   25.0342 C.3       1 UNK         0.0000 
      9 N9          2.5905   53.5124   24.1362 N.am      1 UNK         0.0000 
     10 C10         3.7612   54.0737   24.4740 C.2       1 UNK         0.0000 
     11 O11         4.0661   54.3224   25.6433 O.2       1 UNK         0.0000 
     12 C12         4.7044   54.3629   23.3261 C.ar      1 UNK         0.0000 
     13 C13         5.9775   54.8961   23.5818 C.ar      1 UNK         0.0000 
     14 C14         6.8019   55.2832   22.5295 C.ar      1 UNK         0.0000 
     15 C15         6.3915   55.1179   21.2062 C.ar      1 UNK         0.0000 
     16 C16         5.1516   54.5327   20.9405 C.ar      1 UNK         0.0000 
     17 C17         4.3190   54.1557   21.9867 C.ar      1 UNK         0.0000 
     18 N18         7.2581   55.5572   20.1945 N.pl3     1 UNK         0.0000 
     19 S19         7.1566   55.0871   18.4891 S.o2      1 UNK         0.0000 
     20 O20         8.4334   55.4890   17.8903 O.2       1 UNK         0.0000 
     21 O21         6.7042   53.6941   18.4436 O.2       1 UNK         0.0000 
     22 C22         5.8830   56.1187   17.7650 C.ar      1 UNK         0.0000 
     23 C23         4.6252   55.5756   17.4801 C.ar      1 UNK         0.0000 
     24 C24         3.6456   56.3751   16.8973 C.ar      1 UNK         0.0000 
     25 C25         3.9227   57.7087   16.6023 C.ar      1 UNK         0.0000 
     26 C26         5.1752   58.2524   16.8828 C.ar      1 UNK         0.0000 
     27 C27         6.1611   57.4574   17.4681 C.ar      1 UNK         0.0000 
     28 F28         2.9651   58.4797   16.0365 F         1 UNK         0.0000 
     29 N29        -0.2823   51.2459   25.2426 N.4       1 UNK         0.0000 
     30 C30        -0.9836   51.9610   26.4152 C.3       1 UNK         0.0000 
     31 C31        -2.0857   51.0001   26.8688 C.3       1 UNK         0.0000 
     32 C32        -2.2810   49.9754   25.7502 C.3       1 UNK         0.0000 
     33 C33        -1.4193   50.4404   24.5806 C.3       1 UNK         0.0000 
     34 H34         2.7806   48.8239   21.7652 H         1 UNK         0.0000 
     35 H35         2.0610   49.6865   24.0810 H         1 UNK         0.0000 
     36 H36         1.9341   50.4144   19.8197 H         1 UNK         0.0000 
     37 H37         1.1045   53.8475   25.5484 H         1 UNK         0.0000 
     38 H38         2.0224   52.3893   25.8102 H         1 UNK         0.0000 
     39 H39         2.4237   53.3567   23.1524 H         1 UNK         0.0000 
     40 H40         6.3153   55.0591   24.5973 H         1 UNK         0.0000 
     41 H41         7.7647   55.7261   22.7450 H         1 UNK         0.0000 
     42 H42         4.8029   54.3844   19.9306 H         1 UNK         0.0000 
     43 H43         3.3571   53.7371   21.7247 H         1 UNK         0.0000 
     44 H44         8.0657   56.0981   20.4558 H         1 UNK         0.0000 
     45 H45         4.4060   54.5379   17.6971 H         1 UNK         0.0000 
     46 H46         2.6715   55.9646   16.6703 H         1 UNK         0.0000 
     47 H47         5.3730   59.2925   16.6555 H         1 UNK         0.0000 
     48 H48         7.1340   57.8798   17.6821 H         1 UNK         0.0000 
     49 H49        -0.2379   52.2026   27.1746 H         1 UNK         0.0000 
     50 H50        -1.4001   52.8868   26.0112 H         1 UNK         0.0000 
     51 H51        -1.8109   50.4984   27.7982 H         1 UNK         0.0000 
     52 H52        -3.0071   51.5482   27.0651 H         1 UNK         0.0000 
     53 H53        -3.3271   49.8924   25.4567 H         1 UNK         0.0000 
     54 H54        -1.9640   48.9857   26.0807 H         1 UNK         0.0000 
     55 H55        -1.9462   51.1312   23.9180 H         1 UNK         0.0000 
     56 H56        -0.9861   49.6376   23.9804 H         1 UNK         0.0000 
     57 H57         0.3886   50.5891   25.6195 H         1 UNK         0.0000 
@<TRIPOS>BOND
     1    1    5 2    
     2    1    2 1    
     3    1   34 1    
     4    2    3 2    
     5    2   35 1    
     6    3    4 1    
     7    3    6 1    
     8    4    5 1    
     9    5   36 1    
    10    6    7 1    
    11    6    8 1    
    12    6   29 1    
    13    8    9 1    
    14    8   37 1    
    15    8   38 1    
    16    9   10 am   BACKBONE|DICT|INTERRES
    17    9   39 1    
    18   10   11 2    
    19   10   12 1    
    20   12   17 ar   
    21   12   13 ar   
    22   13   14 ar   
    23   13   40 1    
    24   14   15 ar   
    25   14   41 1    
    26   15   16 ar   
    27   15   18 1    
    28   16   17 ar   
    29   16   42 1    
    30   17   43 1    
    31   18   19 1    
    32   18   44 1    
    33   19   20 2    
    34   19   21 2    
    35   19   22 1    
    36   22   27 ar   
    37   22   23 ar   
    38   23   24 ar   
    39   23   45 1    
    40   24   25 ar   
    41   24   46 1    
    42   25   26 ar   
    43   25   28 1    
    44   26   27 ar   
    45   26   47 1    
    46   27   48 1    
    47   29   33 1    
    48   29   30 1    
    49   29   57 1    
    50   30   31 1    
    51   30   49 1    
    52   30   50 1    
    53   31   32 1    
    54   31   51 1    
    55   31   52 1    
    56   32   33 1    
    57   32   53 1    
    58   32   54 1    
    59   33   55 1    
    60   33   56 1    
@<TRIPOS>SUBSTRUCTURE
     1 UNK         1 GROUP             0       ****    0 ROOT    
