@<TRIPOS>MOLECULE
ZINC21799089_1827
32   34    1
SMALL
USER_CHARGES


@<TRIPOS>ATOM
      1 C1          3.8851   52.9814   29.5796 C.ar      1 UNK         0.0000 
      2 C2          2.6004   52.7812   30.0820 C.ar      1 UNK         0.0000 
      3 C3          1.5262   53.4804   29.5369 C.ar      1 UNK         0.0000 
      4 C4          1.7247   54.3762   28.4908 C.ar      1 UNK         0.0000 
      5 C5          3.0065   54.5761   27.9867 C.ar      1 UNK         0.0000 
      6 C6          4.0956   53.8743   28.5247 C.ar      1 UNK         0.0000 
      7 N7          5.4262   54.0878   28.1014 N.am      1 UNK         0.0000 
      8 C8          5.9183   54.3578   26.8701 C.2       1 UNK         0.0000 
      9 O9          7.1043   54.6585   26.7449 O.2       1 UNK         0.0000 
     10 N10         5.0519   54.2402   25.8391 N.am      1 UNK         0.0000 
     11 C11         5.3071   54.4348   24.4908 C.2       1 UNK         0.0000 
     12 N12         6.4201   54.8460   23.9391 N.2       1 UNK         0.0000 
     13 C13         6.3064   54.8968   22.5838 C.ar      1 UNK         0.0000 
     14 C14         7.3138   55.3211   21.7037 C.ar      1 UNK         0.0000 
     15 C15         7.0480   55.3138   20.3322 C.ar      1 UNK         0.0000 
     16 C16         5.8118   54.8976   19.8339 C.ar      1 UNK         0.0000 
     17 C17         4.7902   54.4849   20.6894 C.ar      1 UNK         0.0000 
     18 C18         5.0440   54.4961   22.0679 C.ar      1 UNK         0.0000 
     19 S19         3.9795   54.0956   23.4066 S.3       1 UNK         0.0000 
     20 N20         5.5888   54.8928   18.4594 N.pl3     1 UNK         0.0000 
     21 F21         0.2826   53.2995   30.0345 F         1 UNK         0.0000 
     22 H22         4.7080   52.4365   30.0149 H         1 UNK         0.0000 
     23 H23         2.4320   52.0968   30.9005 H         1 UNK         0.0000 
     24 H24         0.8866   54.9211   28.0817 H         1 UNK         0.0000 
     25 H25         3.1409   55.2968   27.1967 H         1 UNK         0.0000 
     26 H26         6.1272   53.9957   28.8212 H         1 UNK         0.0000 
     27 H27         4.1180   53.9366   26.0669 H         1 UNK         0.0000 
     28 H28         8.2753   55.6400   22.0807 H         1 UNK         0.0000 
     29 H29         7.8221   55.6297   19.6471 H         1 UNK         0.0000 
     30 H30         3.8269   54.1810   20.3037 H         1 UNK         0.0000 
     31 H31         6.3692   55.0504   17.8381 H         1 UNK         0.0000 
     32 H32         4.7605   54.4321   18.1095 H         1 UNK         0.0000 
@<TRIPOS>BOND
     1    1    6 ar   
     2    1    2 ar   
     3    1   22 1    
     4    2    3 ar   
     5    2   23 1    
     6    3    4 ar   
     7    3   21 1    
     8    4    5 ar   
     9    4   24 1    
    10    5    6 ar   
    11    5   25 1    
    12    6    7 1    
    13    7    8 am   BACKBONE|DICT|INTERRES
    14    7   26 1    
    15    8    9 2    
    16    8   10 am   BACKBONE|DICT|INTERRES
    17   10   11 am   BACKBONE|DICT|INTERRES
    18   10   27 1    
    19   11   19 1    
    20   11   12 2    
    21   12   13 1    
    22   13   18 ar   
    23   13   14 ar   
    24   14   15 ar   
    25   14   28 1    
    26   15   16 ar   
    27   15   29 1    
    28   16   17 ar   
    29   16   20 1    
    30   17   18 ar   
    31   17   30 1    
    32   18   19 1    
    33   20   31 1    
    34   20   32 1    
@<TRIPOS>SUBSTRUCTURE
     1 UNK         1 GROUP             0       ****    0 ROOT    
