@<TRIPOS>MOLECULE
ZINC30017796_26
65   69    1
SMALL
USER_CHARGES


@<TRIPOS>ATOM
      1 C1          0.8525   52.1751   28.4425 C.3       1 UNK         0.0000 
      2 C2          1.1563   53.3387   29.4109 C.3       1 UNK         0.0000 
      3 H3          0.2041   53.7109   29.7941 H         1 UNK         0.0000 
      4 C4          1.9279   54.5276   28.7937 C.3       1 UNK         0.0000 
      5 N5          3.3029   54.1464   28.4157 N.pl3     1 UNK         0.0000 
      6 C6          4.0090   53.6587   29.6110 C.3       1 UNK         0.0000 
      7 C7          3.2235   52.4963   30.2684 C.3       1 UNK         0.0000 
      8 H8          3.1678   51.6329   29.6050 H         1 UNK         0.0000 
      9 O9          1.9047   52.9548   30.5678 O.3       1 UNK         0.0000 
     10 C10         3.9038   52.0422   31.5585 C.3       1 UNK         0.0000 
     11 C11         3.8026   54.1015   27.1215 C.ar      1 UNK         0.0000 
     12 C12         5.1791   54.0990   26.8564 C.ar      1 UNK         0.0000 
     13 C13         5.6175   54.1027   25.5339 C.ar      1 UNK         0.0000 
     14 C14         4.6870   54.0967   24.4860 C.ar      1 UNK         0.0000 
     15 C15         3.3268   54.0943   24.8333 C.ar      1 UNK         0.0000 
     16 N16         2.8890   54.0960   26.1157 N.ar      1 UNK         0.0000 
     17 C17         5.1568   54.1287   23.0527 C.2       1 UNK         0.0000 
     18 O18         6.3451   54.3633   22.8077 O.2       1 UNK         0.0000 
     19 N19         4.2130   53.9211   22.1065 N.am      1 UNK         0.0000 
     20 N20         4.5692   54.0986   20.7696 N.am      1 UNK         0.0000 
     21 C21         5.0038   53.0533   20.0430 C.2       1 UNK         0.0000 
     22 O22         5.0979   51.9097   20.4877 O.2       1 UNK         0.0000 
     23 C23         5.4169   53.3340   18.5806 C.3       1 UNK         0.0000 
     24 C24         6.1640   54.6681   18.2260 C.3       1 UNK         0.0000 
     25 C25         7.3133   55.0068   19.2392 C.3       1 UNK         0.0000 
     26 C26         8.0634   56.3025   18.8353 C.3       1 UNK         0.0000 
     27 C27         8.7000   56.1087   17.4363 C.3       1 UNK         0.0000 
     28 C28         7.5866   55.8009   16.4037 C.3       1 UNK         0.0000 
     29 C29         6.8362   54.5096   16.8242 C.3       1 UNK         0.0000 
     30 C30         6.5895   56.9872   16.3541 C.3       1 UNK         0.0000 
     31 C31         5.9492   57.1866   17.7501 C.3       1 UNK         0.0000 
     32 C32         7.0582   57.4852   18.7921 C.3       1 UNK         0.0000 
     33 C33         5.1939   55.8958   18.1625 C.3       1 UNK         0.0000 
     34 H34         0.1415   52.4897   27.6797 H         1 UNK         0.0000 
     35 H35         1.7403   51.8155   27.9243 H         1 UNK         0.0000 
     36 H36         0.4079   51.3328   28.9736 H         1 UNK         0.0000 
     37 H37         2.0280   55.2944   29.5677 H         1 UNK         0.0000 
     38 H38         1.3503   55.0488   28.0301 H         1 UNK         0.0000 
     39 H39         4.9806   53.2716   29.3071 H         1 UNK         0.0000 
     40 H40         4.1447   54.4975   30.2919 H         1 UNK         0.0000 
     41 H41         4.7626   51.4220   31.3211 H         1 UNK         0.0000 
     42 H42         4.2627   52.8847   32.1500 H         1 UNK         0.0000 
     43 H43         3.2307   51.4488   32.1799 H         1 UNK         0.0000 
     44 H44         5.9133   54.1317   27.6480 H         1 UNK         0.0000 
     45 H45         6.6791   54.1130   25.3324 H         1 UNK         0.0000 
     46 H46         2.5413   54.1046   24.0913 H         1 UNK         0.0000 
     47 H47         3.2289   54.0829   22.2520 H         1 UNK         0.0000 
     48 H48         4.4238   55.0324   20.4233 H         1 UNK         0.0000 
     49 H49         4.5191   53.2316   17.9706 H         1 UNK         0.0000 
     50 H50         6.0511   52.4971   18.2819 H         1 UNK         0.0000 
     51 H51         8.0201   54.1762   19.2807 H         1 UNK         0.0000 
     52 H52         6.9372   55.1298   20.2532 H         1 UNK         0.0000 
     53 H53         8.8497   56.5106   19.5646 H         1 UNK         0.0000 
     54 H54         9.4276   55.2951   17.4627 H         1 UNK         0.0000 
     55 H55         9.2548   57.0009   17.1448 H         1 UNK         0.0000 
     56 H56         8.0342   55.6603   15.4179 H         1 UNK         0.0000 
     57 H57         6.0847   54.2611   16.0738 H         1 UNK         0.0000 
     58 H58         7.5356   53.6700   16.8326 H         1 UNK         0.0000 
     59 H59         5.8146   56.8001   15.6067 H         1 UNK         0.0000 
     60 H60         7.0973   57.8980   16.0403 H         1 UNK         0.0000 
     61 H61         5.2500   58.0256   17.7110 H         1 UNK         0.0000 
     62 H62         7.5752   58.4108   18.5354 H         1 UNK         0.0000 
     63 H63         6.6155   57.6439   19.7779 H         1 UNK         0.0000 
     64 H64         4.7093   56.0724   19.1189 H         1 UNK         0.0000 
     65 H65         4.3876   55.7007   17.4556 H         1 UNK         0.0000 
@<TRIPOS>BOND
     1    1    2 1    
     2    1   34 1    
     3    1   35 1    
     4    1   36 1    
     5    2    3 1    
     6    2    9 1    
     7    2    4 1    
     8    4    5 1    
     9    4   37 1    
    10    4   38 1    
    11    5    6 1    
    12    5   11 1    
    13    6    7 1    
    14    6   39 1    
    15    6   40 1    
    16    7    8 1    
    17    7    9 1    
    18    7   10 1    
    19   10   41 1    
    20   10   42 1    
    21   10   43 1    
    22   11   16 ar   
    23   11   12 ar   
    24   12   13 ar   
    25   12   44 1    
    26   13   14 ar   
    27   13   45 1    
    28   14   15 ar   
    29   14   17 1    
    30   15   16 ar   
    31   15   46 1    
    32   17   18 2    
    33   17   19 am   BACKBONE|DICT|INTERRES
    34   19   20 1    
    35   19   47 1    
    36   20   21 am   BACKBONE|DICT|INTERRES
    37   20   48 1    
    38   21   22 2    
    39   21   23 1    
    40   23   24 1    
    41   23   49 1    
    42   23   50 1    
    43   24   29 1    
    44   24   33 1    
    45   24   25 1    
    46   25   26 1    
    47   25   51 1    
    48   25   52 1    
    49   26   32 1    
    50   26   27 1    
    51   26   53 1    
    52   27   28 1    
    53   27   54 1    
    54   27   55 1    
    55   28   29 1    
    56   28   30 1    
    57   28   56 1    
    58   29   57 1    
    59   29   58 1    
    60   30   31 1    
    61   30   59 1    
    62   30   60 1    
    63   31   32 1    
    64   31   33 1    
    65   31   61 1    
    66   32   62 1    
    67   32   63 1    
    68   33   64 1    
    69   33   65 1    
@<TRIPOS>SUBSTRUCTURE
     1 UNK         1 GROUP             0       ****    0 ROOT    
