ZINC12473346_3109
                    3D
 Schrodinger Suite 2024-2.
 59 62  0  0  1  0            999 V2000
    3.6054   54.4078   25.1454 C   0  0  0  0  0  0
    4.2128   54.8967   26.2968 C   0  0  0  0  0  0
    3.8492   54.3982   27.5429 C   0  0  0  0  0  0
    2.8728   53.4166   27.6402 C   0  0  0  0  0  0
    2.3111   52.8966   26.4788 C   0  0  0  0  0  0
    2.7338   53.3133   25.2067 C   0  0  0  0  0  0
    2.0821   52.6348   23.9937 C   0  0  1  0  0  0
    1.7255   51.6684   24.3517 H   0  0  0  0  0  0
    0.8737   53.4923   23.6822 C   0  0  0  0  0  0
    1.1043   54.6278   23.2817 O   0  0  0  0  0  0
   -0.3243   52.9440   23.9659 N   0  0  0  0  0  0
   -1.6433   53.5520   23.7993 C   0  0  0  0  0  0
   -2.5987   53.2388   24.9817 C   0  0  1  0  0  0
   -2.2650   53.6966   25.9147 H   0  0  0  0  0  0
   -4.0877   53.4393   24.7176 C   0  0  0  0  0  0
   -4.7661   52.4565   25.6456 C   0  0  0  0  0  0
   -3.7175   51.3649   25.8640 C   0  0  0  0  0  0
   -2.5494   51.8272   25.1871 O   0  0  0  0  0  0
    2.8313   52.3713   22.6947 N   0  0  0  0  0  0
    3.9181   53.1523   22.1877 C   0  0  0  0  0  0
    5.1204   53.3414   22.8821 C   0  0  0  0  0  0
    6.0865   54.2195   22.4030 C   0  0  0  0  0  0
    5.9185   54.8059   21.1519 C   0  0  0  0  0  0
    4.8032   54.5047   20.3787 C   0  0  0  0  0  0
    3.7978   53.7052   20.9063 C   0  0  0  0  0  0
    6.8614   55.6500   20.6760 F   0  0  0  0  0  0
    2.5666   51.2081   21.9972 C   0  0  0  0  0  0
    3.3597   50.6645   21.2268 O   0  0  0  0  0  0
    1.2387   50.6547   22.0720 C   0  0  0  0  0  0
    0.0796   51.0637   21.4203 C   0  0  0  0  0  0
   -1.0241   50.2850   21.8283 C   0  0  0  0  0  0
   -0.7977   49.3331   22.7139 N   0  0  0  0  0  0
    0.8651   49.3156   23.1057 S   0  0  0  0  0  0
   -2.3882   50.4433   21.3962 C   0  0  0  0  0  0
   -3.3078   50.6797   22.1744 O   0  0  0  0  0  0
   -2.5768   50.3208   20.0816 N   0  0  0  0  0  0
    0.0300   52.0963   20.5145 N   0  0  0  0  0  0
    4.4187   54.8935   28.6648 F   0  0  0  0  0  0
    3.8159   54.8972   24.2097 H   0  0  0  0  0  0
    4.9337   55.6961   26.2255 H   0  0  0  0  0  0
    2.5649   53.0501   28.6080 H   0  0  0  0  0  0
    1.5706   52.1144   26.5718 H   0  0  0  0  0  0
   -0.3466   51.9948   24.3132 H   0  0  0  0  0  0
   -2.0813   53.1984   22.8658 H   0  0  0  0  0  0
   -1.5486   54.6291   23.6816 H   0  0  0  0  0  0
   -4.3162   53.2007   23.6820 H   0  0  0  0  0  0
   -4.3954   54.4776   24.8460 H   0  0  0  0  0  0
   -5.6892   52.0625   25.2181 H   0  0  0  0  0  0
   -5.0154   52.9347   26.5935 H   0  0  0  0  0  0
   -4.0332   50.4111   25.4393 H   0  0  0  0  0  0
   -3.5071   51.2269   26.9260 H   0  0  0  0  0  0
    5.2836   52.8969   23.8482 H   0  0  0  0  0  0
    6.9758   54.4252   22.9809 H   0  0  0  0  0  0
    4.6910   54.9376   19.3957 H   0  0  0  0  0  0
    2.9110   53.5301   20.3158 H   0  0  0  0  0  0
   -1.8041   50.0911   19.4737 H   0  0  0  0  0  0
   -3.5114   50.3926   19.7097 H   0  0  0  0  0  0
   -0.8073   52.3127   19.9964 H   0  0  0  0  0  0
    0.8483   52.6482   20.2897 H   0  0  0  0  0  0
  1  6  2  0  0  0
  1  2  1  0  0  0
  1 39  1  0  0  0
  2  3  2  0  0  0
  2 40  1  0  0  0
  3  4  1  0  0  0
  3 38  1  0  0  0
  4  5  2  0  0  0
  4 41  1  0  0  0
  5  6  1  0  0  0
  5 42  1  0  0  0
  6  7  1  0  0  0
  7  8  1  0  0  0
  7  9  1  0  0  0
  7 19  1  0  0  0
  9 10  2  0  0  0
  9 11  1  0  0  0
 11 12  1  0  0  0
 11 43  1  0  0  0
 12 13  1  0  0  0
 12 44  1  0  0  0
 12 45  1  0  0  0
 13 14  1  0  0  0
 13 18  1  0  0  0
 13 15  1  0  0  0
 15 16  1  0  0  0
 15 46  1  0  0  0
 15 47  1  0  0  0
 16 17  1  0  0  0
 16 48  1  0  0  0
 16 49  1  0  0  0
 17 18  1  0  0  0
 17 50  1  0  0  0
 17 51  1  0  0  0
 19 20  1  0  0  0
 19 27  1  0  0  0
 20 25  2  0  0  0
 20 21  1  0  0  0
 21 22  2  0  0  0
 21 52  1  0  0  0
 22 23  1  0  0  0
 22 53  1  0  0  0
 23 24  2  0  0  0
 23 26  1  0  0  0
 24 25  1  0  0  0
 24 54  1  0  0  0
 25 55  1  0  0  0
 27 28  2  0  0  0
 27 29  1  0  0  0
 29 33  1  0  0  0
 29 30  2  0  0  0
 30 31  1  0  0  0
 30 37  1  0  0  0
 31 32  2  0  0  0
 31 34  1  0  0  0
 32 33  1  0  0  0
 34 35  2  0  0  0
 34 36  1  0  0  0
 36 56  1  0  0  0
 36 57  1  0  0  0
 37 58  1  0  0  0
 37 59  1  0  0  0
M  END
> <i_i_glide_confnum>
242

> <i_i_glide_lignum>
3110

> <i_i_glide_posenum>
194

> <i_i_glide_rotatable_bonds>
10

> <i_m_Source_File_Index>
779

> <b_m_subgroup_collapsed>
0

> <r_i_docking_score>
-3.41158

> <r_i_glide_ecoul>
-1.0569

> <r_i_glide_eff_state_penalty>
0

> <r_i_glide_einternal>
19.3874

> <r_i_glide_emodel>
-26.597

> <r_i_glide_energy>
-27.7798

> <r_i_glide_erotb>
0.617658

> <r_i_glide_esite>
-0.0178997

> <r_i_glide_evdw>
-26.7229

> <r_i_glide_gscore>
-3.41158

> <r_i_glide_hbond>
0

> <r_i_glide_ligand_efficiency>
-0.0947661

> <r_i_glide_ligand_efficiency_ln>
-0.744314

> <r_i_glide_ligand_efficiency_sa>
-0.312911

> <r_i_glide_lipo>
-2.44578

> <r_i_glide_metal>
0

> <r_i_glide_rewards>
-0.070873

> <s_i_glide_gridfile>
wee1_glide-grid

> <s_m_Source_File>
wee1_decoys_glide_SP.sdf

> <s_m_Source_Path>
/Users/zhangxujun/Desktop

> <s_m_entry_id>
1054

> <s_m_entry_name>
wee1_decoys_glide_SP.779

> <s_m_subgroup_title>
wee1_decoys_glide_SP

> <s_m_subgroupid>
wee1_decoys_glide_SP


$$$$
