ZINC15874460_4931
                    3D
 Schrodinger Suite 2024-2.
 56 58  0  0  1  0            999 V2000
    6.0110   54.5560   26.1710 C   0  0  0  0  0  0
    5.9988   54.6720   24.7834 C   0  0  0  0  0  0
    4.8693   54.3003   24.0488 C   0  0  0  0  0  0
    3.7264   53.8029   24.7085 C   0  0  0  0  0  0
    3.7592   53.6971   26.1066 C   0  0  0  0  0  0
    4.8885   54.0716   26.8333 C   0  0  0  0  0  0
    4.9022   53.9263   28.5524 Cl  0  0  0  0  0  0
    2.2431   53.3011   23.7844 S   0  0  0  0  0  0
    2.7030   52.6438   22.5561 O   0  0  0  0  0  0
    1.3978   54.4962   23.7006 O   0  0  0  0  0  0
    1.3450   52.0669   24.7201 N   0  0  0  0  0  0
    0.9754   50.7653   24.0831 C   0  0  0  0  0  0
   -0.5436   50.5026   24.1037 C   0  0  0  0  0  0
   -1.0822   50.6429   25.5549 C   0  0  0  0  0  0
   -0.8227   52.0979   26.0193 C   0  0  0  0  0  0
    0.6893   52.3978   26.0149 C   0  0  0  0  0  0
   -2.6107   50.4172   25.5355 C   0  0  0  0  0  0
   -3.3107   51.1246   24.8002 O   0  0  0  0  0  0
   -3.1071   49.4433   26.3298 N   0  0  0  0  0  0
   -4.4971   49.3196   26.3857 N   0  0  0  0  0  0
   -5.1988   49.1497   27.5403 C   0  0  0  0  0  0
   -6.8566   49.1827   27.3658 S   0  0  0  0  0  0
   -4.4955   48.9579   28.7059 N   0  0  0  0  0  0
   -5.0464   48.8299   30.0664 C   0  0  0  0  0  0
   -5.5775   50.1493   30.6855 C   0  0  0  0  0  0
   -6.0959   49.9952   32.1261 C   0  0  0  0  0  0
   -7.1093   48.8485   32.2495 C   0  0  0  0  0  0
   -6.4945   47.5148   31.7958 C   0  0  0  0  0  0
   -5.9301   47.5776   30.3630 C   0  0  0  0  0  0
    4.9508   54.4967   22.3312 Cl  0  0  0  0  0  0
    6.8855   54.8395   26.7365 H   0  0  0  0  0  0
    6.8714   55.0494   24.2697 H   0  0  0  0  0  0
    2.9237   53.3196   26.6656 H   0  0  0  0  0  0
    1.5048   49.9622   24.5927 H   0  0  0  0  0  0
    1.3370   50.7493   23.0548 H   0  0  0  0  0  0
   -0.6828   49.4902   23.7233 H   0  0  0  0  0  0
   -0.9794   51.2411   23.4279 H   0  0  0  0  0  0
   -0.6461   49.9066   26.2369 H   0  0  0  0  0  0
   -1.2684   52.8312   25.3392 H   0  0  0  0  0  0
   -1.1651   52.2590   27.0438 H   0  0  0  0  0  0
    1.2020   51.8448   26.8037 H   0  0  0  0  0  0
    0.8579   53.4514   26.2259 H   0  0  0  0  0  0
   -2.5966   48.9276   27.0433 H   0  0  0  0  0  0
   -4.8444   48.8570   25.5575 H   0  0  0  0  0  0
   -3.4838   48.8947   28.6470 H   0  0  0  0  0  0
   -4.1475   48.6351   30.6582 H   0  0  0  0  0  0
   -6.4030   50.5245   30.0807 H   0  0  0  0  0  0
   -4.7934   50.9090   30.6662 H   0  0  0  0  0  0
   -6.5515   50.9292   32.4563 H   0  0  0  0  0  0
   -5.2570   49.8196   32.8005 H   0  0  0  0  0  0
   -7.9963   49.0708   31.6516 H   0  0  0  0  0  0
   -7.4480   48.7715   33.2806 H   0  0  0  0  0  0
   -7.2379   46.7192   31.8661 H   0  0  0  0  0  0
   -5.6965   47.2365   32.4812 H   0  0  0  0  0  0
   -5.3633   46.6688   30.1610 H   0  0  0  0  0  0
   -6.7967   47.5616   29.7074 H   0  0  0  0  0  0
  1  6  2  0  0  0
  1  2  1  0  0  0
  1 31  1  0  0  0
  2  3  2  0  0  0
  2 32  1  0  0  0
  3  4  1  0  0  0
  3 30  1  0  0  0
  4  5  2  0  0  0
  4  8  1  0  0  0
  5  6  1  0  0  0
  5 33  1  0  0  0
  6  7  1  0  0  0
  8  9  2  0  0  0
  8 10  2  0  0  0
  8 11  1  0  0  0
 11 16  1  0  0  0
 11 12  1  0  0  0
 12 13  1  0  0  0
 12 34  1  0  0  0
 12 35  1  0  0  0
 13 14  1  0  0  0
 13 36  1  0  0  0
 13 37  1  0  0  0
 14 15  1  0  0  0
 14 17  1  0  0  0
 14 38  1  0  0  0
 15 16  1  0  0  0
 15 39  1  0  0  0
 15 40  1  0  0  0
 16 41  1  0  0  0
 16 42  1  0  0  0
 17 18  2  0  0  0
 17 19  1  0  0  0
 19 20  1  0  0  0
 19 43  1  0  0  0
 20 21  1  0  0  0
 20 44  1  0  0  0
 21 22  2  0  0  0
 21 23  1  0  0  0
 23 24  1  0  0  0
 23 45  1  0  0  0
 24 29  1  0  0  0
 24 25  1  0  0  0
 24 46  1  0  0  0
 25 26  1  0  0  0
 25 47  1  0  0  0
 25 48  1  0  0  0
 26 27  1  0  0  0
 26 49  1  0  0  0
 26 50  1  0  0  0
 27 28  1  0  0  0
 27 51  1  0  0  0
 27 52  1  0  0  0
 28 29  1  0  0  0
 28 53  1  0  0  0
 28 54  1  0  0  0
 29 55  1  0  0  0
 29 56  1  0  0  0
M  END
> <i_i_glide_confnum>
230

> <i_i_glide_lignum>
4932

> <i_i_glide_posenum>
203

> <i_i_glide_rotatable_bonds>
8

> <i_m_Source_File_Index>
433

> <b_m_subgroup_collapsed>
0

> <r_i_docking_score>
-4.87141

> <r_i_glide_ecoul>
-6.14589

> <r_i_glide_eff_state_penalty>
0

> <r_i_glide_einternal>
17.7242

> <r_i_glide_emodel>
-50.0298

> <r_i_glide_energy>
-44.2039

> <r_i_glide_erotb>
0.5856

> <r_i_glide_esite>
-0.287636

> <r_i_glide_evdw>
-38.058

> <r_i_glide_gscore>
-4.87141

> <r_i_glide_hbond>
-0.299152

> <r_i_glide_ligand_efficiency>
-0.16238

> <r_i_glide_ligand_efficiency_ln>
-1.10684

> <r_i_glide_ligand_efficiency_sa>
-0.504554

> <r_i_glide_lipo>
-2.30792

> <r_i_glide_metal>
0

> <r_i_glide_rewards>
0.262484

> <s_i_glide_gridfile>
wee1_glide-grid

> <s_m_Source_File>
wee1_decoys_glide_SP.sdf

> <s_m_Source_Path>
/Users/zhangxujun/Desktop

> <s_m_entry_id>
708

> <s_m_entry_name>
wee1_decoys_glide_SP.433

> <s_m_subgroup_title>
wee1_decoys_glide_SP

> <s_m_subgroupid>
wee1_decoys_glide_SP


$$$$
