@<TRIPOS>MOLECULE
ZINC33779184_3227
49   53    1
SMALL
USER_CHARGES


@<TRIPOS>ATOM
      1 C1          8.1228   57.0181   17.5776 C.ar      1 UNK         0.0000 
      2 C2          6.7664   57.2438   17.7976 C.ar      1 UNK         0.0000 
      3 C3          6.1551   56.7156   18.9315 C.ar      1 UNK         0.0000 
      4 C4          6.8965   55.9706   19.8532 C.ar      1 UNK         0.0000 
      5 C5          8.2607   55.7480   19.6183 C.ar      1 UNK         0.0000 
      6 C6          8.8719   56.2694   18.4817 C.ar      1 UNK         0.0000 
      7 C7          6.2262   55.4799   21.0734 C.2       1 UNK         0.0000 
      8 C8          6.8459   55.2448   22.2453 C.2       1 UNK         0.0000 
      9 C9          6.2765   54.7851   23.4961 C.ar      1 UNK         0.0000 
     10 N10         4.9867   54.4967   23.6740 N.2       1 UNK         0.0000 
     11 C11         4.9245   54.2753   24.9593 C.ar      1 UNK         0.0000 
     12 N12         6.1411   54.3544   25.5178 N.pl3     1 UNK         0.0000 
     13 N13         7.0235   54.6752   24.5793 N.2       1 UNK         0.0000 
     14 C14         6.2815   54.0967   26.8817 C.2       1 UNK         0.0000 
     15 O15         7.3497   54.1305   27.4878 O.2       1 UNK         0.0000 
     16 C16         4.9580   53.7650   27.3814 C.2       1 UNK         0.0000 
     17 C17         4.8320   53.3776   28.6687 C.2       1 UNK         0.0000 
     18 C18         3.6347   52.9717   29.3697 C.2       1 UNK         0.0000 
     19 C19         3.3527   52.6525   30.6920 C.2       1 UNK         0.0000 
     20 C20         1.9948   52.3177   30.7548 C.2       1 UNK         0.0000 
     21 C21         1.5080   52.3887   29.4556 C.2       1 UNK         0.0000 
     22 O22         2.5070   52.8057   28.6447 O.3       1 UNK         0.0000 
     23 C23         0.2181   52.0790   28.7833 C.ar      1 UNK         0.0000 
     24 C24         0.1408   52.1092   27.3854 C.ar      1 UNK         0.0000 
     25 C25        -1.0239   51.7206   26.7373 C.ar      1 UNK         0.0000 
     26 C26        -2.1192   51.2967   27.4863 C.ar      1 UNK         0.0000 
     27 C27        -2.0626   51.2967   28.8815 C.ar      1 UNK         0.0000 
     28 C28        -0.8956   51.6967   29.5309 C.ar      1 UNK         0.0000 
     29 S29        -3.5732   50.7045   26.6402 S.o2      1 UNK         0.0000 
     30 O30        -4.7165   50.8805   27.5416 O.2       1 UNK         0.0000 
     31 O31        -3.5774   51.2844   25.2929 O.2       1 UNK         0.0000 
     32 N32        -3.2956   48.9940   26.4817 N.pl3     1 UNK         0.0000 
     33 S33         3.6867   53.9258   26.1083 S.3       1 UNK         0.0000 
     34 H34         8.5971   57.4278   16.6979 H         1 UNK         0.0000 
     35 H35         6.1919   57.8304   17.0947 H         1 UNK         0.0000 
     36 H36         5.1044   56.9028   19.0957 H         1 UNK         0.0000 
     37 H37         8.8610   55.1738   20.3083 H         1 UNK         0.0000 
     38 H38         9.9246   56.0966   18.3087 H         1 UNK         0.0000 
     39 H39         5.1630   55.2967   20.9978 H         1 UNK         0.0000 
     40 H40         7.9044   55.4280   22.3115 H         1 UNK         0.0000 
     41 H41         5.7162   53.3478   29.2817 H         1 UNK         0.0000 
     42 H42         4.0510   52.6630   31.5172 H         1 UNK         0.0000 
     43 H43         1.4388   52.0228   31.6344 H         1 UNK         0.0000 
     44 H44         0.9921   52.3993   26.7869 H         1 UNK         0.0000 
     45 H45        -1.0591   51.7182   25.6571 H         1 UNK         0.0000 
     46 H46        -2.8983   50.9358   29.4649 H         1 UNK         0.0000 
     47 H47        -0.8557   51.6534   30.6114 H         1 UNK         0.0000 
     48 H48        -2.4529   48.7451   27.0344 H         1 UNK         0.0000 
     49 H49        -4.0241   48.4816   26.9804 H         1 UNK         0.0000 
@<TRIPOS>BOND
     1    1    6 ar   
     2    1    2 ar   
     3    1   34 1    
     4    2    3 ar   
     5    2   35 1    
     6    3    4 ar   
     7    3   36 1    
     8    4    5 ar   
     9    4    7 1    
    10    5    6 ar   
    11    5   37 1    
    12    6   38 1    
    13    7    8 2    
    14    7   39 1    
    15    8    9 1    
    16    8   40 1    
    17    9   13 ar   
    18    9   10 ar   
    19   10   11 ar   
    20   11   33 1    
    21   11   12 ar   
    22   12   13 ar   
    23   12   14 1    
    24   14   15 2    
    25   14   16 1    
    26   16   17 2    
    27   16   33 1    
    28   17   18 1    
    29   17   41 1    
    30   18   22 1    
    31   18   19 2    
    32   19   20 1    
    33   19   42 1    
    34   20   21 2    
    35   20   43 1    
    36   21   22 1    
    37   21   23 1    
    38   23   28 ar   
    39   23   24 ar   
    40   24   25 ar   
    41   24   44 1    
    42   25   26 ar   
    43   25   45 1    
    44   26   27 ar   
    45   26   29 1    
    46   27   28 ar   
    47   27   46 1    
    48   28   47 1    
    49   29   30 2    
    50   29   31 2    
    51   29   32 1    
    52   32   48 1    
    53   32   49 1    
@<TRIPOS>SUBSTRUCTURE
     1 UNK         1 GROUP             0       ****    0 ROOT    
