@<TRIPOS>MOLECULE
ZINC09155191_1215
58   62    1
SMALL
USER_CHARGES


@<TRIPOS>ATOM
      1 C1         -0.2557   50.0720   17.9613 C.3       1 UNK         0.0000 
      2 C2          1.1420   50.0353   18.6084 C.3       1 UNK         0.0000 
      3 C3          1.7627   51.4153   18.9854 C.3       1 UNK         0.0000 
      4 C4          1.1390   51.9691   20.2742 C.2       1 UNK         0.0000 
      5 O5         -0.0644   52.0895   20.5242 O.2       1 UNK         0.0000 
      6 N6          2.1836   52.2826   21.0675 N.am      1 UNK         0.0000 
      7 C7          3.3695   51.7641   20.6627 C.2       1 UNK         0.0000 
      8 O8          4.4330   51.7096   21.2789 O.2       1 UNK         0.0000 
      9 N9          3.1043   51.2155   19.4760 N.am      1 UNK         0.0000 
     10 N10         2.0855   53.2332   22.0966 N.am      1 UNK         0.0000 
     11 C11         2.0648   52.8189   23.3820 C.2       1 UNK         0.0000 
     12 O12         1.9047   51.6411   23.7067 O.2       1 UNK         0.0000 
     13 C13         2.2594   53.9131   24.4477 C.3       1 UNK         0.0000 
     14 C14         3.8708   54.1306   26.3994 C.3       1 UNK         0.0000 
     15 C15         4.5037   53.3866   27.5916 C.3       1 UNK         0.0000 
     16 C16         3.4091   52.9950   28.5629 C.2       1 UNK         0.0000 
     17 C17         2.0583   52.8736   28.2255 C.2       1 UNK         0.0000 
     18 C18         1.2804   52.5183   29.3416 C.2       1 UNK         0.0000 
     19 C19         2.0212   52.3339   30.4967 C.2       1 UNK         0.0000 
     20 S20         3.7141   52.5346   30.2089 S.3       1 UNK         0.0000 
     21 C21         1.5061   53.1562   26.8227 C.3       1 UNK         0.0000 
     22 H22         1.1045   54.1627   26.8698 H         1 UNK         0.0000 
     23 C23         0.4905   52.1110   26.3476 C.2       1 UNK         0.0000 
     24 C24         0.4351   50.7461   26.6470 C.2       1 UNK         0.0000 
     25 C25        -0.6218   50.0509   26.0614 C.2       1 UNK         0.0000 
     26 C26        -1.4233   50.8630   25.2875 C.2       1 UNK         0.0000 
     27 S27        -0.8616   52.4945   25.3032 S.3       1 UNK         0.0000 
     28 C28         1.7774   52.3936   17.7788 C.ar      1 UNK         0.0000 
     29 C29         2.6451   52.1380   16.7062 C.ar      1 UNK         0.0000 
     30 C30         2.6677   52.9680   15.5905 C.ar      1 UNK         0.0000 
     31 C31         1.8018   54.0559   15.5235 C.ar      1 UNK         0.0000 
     32 C32         0.9172   54.3196   16.5649 C.ar      1 UNK         0.0000 
     33 C33         0.8977   53.4864   17.6800 C.ar      1 UNK         0.0000 
     34 H34        -0.6098   49.0587   17.7573 H         1 UNK         0.0000 
     35 H35        -0.9875   50.5550   18.6108 H         1 UNK         0.0000 
     36 H36        -0.2437   50.6109   17.0122 H         1 UNK         0.0000 
     37 H37         1.8175   49.5204   17.9204 H         1 UNK         0.0000 
     38 H38         1.1081   49.3840   19.4830 H         1 UNK         0.0000 
     39 H39         3.8432   50.8983   18.8499 H         1 UNK         0.0000 
     40 H40         2.3042   54.1700   21.7852 H         1 UNK         0.0000 
     41 H41         1.3480   54.4931   24.6031 H         1 UNK         0.0000 
     42 H42         3.0381   54.5973   24.1072 H         1 UNK         0.0000 
     43 H43         4.6215   54.2371   25.6133 H         1 UNK         0.0000 
     44 H44         3.4684   55.1099   26.6657 H         1 UNK         0.0000 
     45 H45         5.0243   52.4971   27.2409 H         1 UNK         0.0000 
     46 H46         5.2587   54.0109   28.0721 H         1 UNK         0.0000 
     47 H47         0.2060   52.4029   29.3039 H         1 UNK         0.0000 
     48 H48         1.6534   52.0688   31.4794 H         1 UNK         0.0000 
     49 H49         1.1593   50.2577   27.2819 H         1 UNK         0.0000 
     50 H50        -0.7935   48.9932   26.2140 H         1 UNK         0.0000 
     51 H51        -2.3047   50.5881   24.7281 H         1 UNK         0.0000 
     52 H52         3.3204   51.2964   16.7367 H         1 UNK         0.0000 
     53 H53         3.3501   52.7608   14.7770 H         1 UNK         0.0000 
     54 H54         1.8187   54.7013   14.6576 H         1 UNK         0.0000 
     55 H55         0.2501   55.1666   16.5103 H         1 UNK         0.0000 
     56 H56         0.1946   53.7131   18.4684 H         1 UNK         0.0000 
     57 N57         2.6965   53.2968   25.8177 N.4       1 UNK         0.0000 
     58 H58         3.0612   52.3730   25.6155 H         1 UNK         0.0000 
@<TRIPOS>BOND
     1    1    2 1    
     2    1   34 1    
     3    1   35 1    
     4    1   36 1    
     5    2    3 1    
     6    2   37 1    
     7    2   38 1    
     8    3    9 1    
     9    3    4 1    
    10    3   28 1    
    11    4    5 2    
    12    4    6 am   BACKBONE|DICT|INTERRES
    13    6    7 am   BACKBONE|DICT|INTERRES
    14    6   10 1    
    15    7    8 2    
    16    7    9 am   BACKBONE|DICT|INTERRES
    17    9   39 1    
    18   10   11 am   BACKBONE|DICT|INTERRES
    19   10   40 1    
    20   11   12 2    
    21   11   13 1    
    22   13   41 1    
    23   13   42 1    
    24   13   57 1    
    25   14   15 1    
    26   14   43 1    
    27   14   44 1    
    28   14   57 1    
    29   15   16 1    
    30   15   45 1    
    31   15   46 1    
    32   16   20 1    
    33   16   17 2    
    34   17   18 1    
    35   17   21 1    
    36   18   19 2    
    37   18   47 1    
    38   19   20 1    
    39   19   48 1    
    40   21   22 1    
    41   21   23 1    
    42   21   57 1    
    43   23   27 1    
    44   23   24 2    
    45   24   25 1    
    46   24   49 1    
    47   25   26 2    
    48   25   50 1    
    49   26   27 1    
    50   26   51 1    
    51   28   33 ar   
    52   28   29 ar   
    53   29   30 ar   
    54   29   52 1    
    55   30   31 ar   
    56   30   53 1    
    57   31   32 ar   
    58   31   54 1    
    59   32   33 ar   
    60   32   55 1    
    61   33   56 1    
    62   57   58 1    
@<TRIPOS>SUBSTRUCTURE
     1 UNK         1 GROUP             0       ****    0 ROOT    
