ZINC39561146_4296
                    3D
 Schrodinger Suite 2024-2.
 45 46  0  0  1  0            999 V2000
    8.5053   57.0244   18.8817 C   0  0  0  0  0  0
    7.3971   56.1711   19.4720 C   0  0  0  0  0  0
    6.3233   55.7825   18.6758 C   0  0  0  0  0  0
    5.3266   54.9429   19.1778 C   0  0  0  0  0  0
    5.3895   54.4984   20.5142 C   0  0  0  0  0  0
    6.4808   54.8968   21.3272 C   0  0  0  0  0  0
    7.4697   55.7265   20.7910 C   0  0  0  0  0  0
    6.7396   54.3489   22.7292 C   0  0  0  0  0  0
    4.3833   53.6030   20.9318 N   0  0  0  0  0  0
    3.6708   53.6420   22.0762 C   0  0  0  0  0  0
    3.8531   54.4967   22.9425 O   0  0  0  0  0  0
    2.5633   52.5587   22.2595 C   0  0  1  0  0  0
    1.6604   52.9113   21.7547 H   0  0  0  0  0  0
    2.9517   51.1807   21.6811 C   0  0  0  0  0  0
    2.2475   52.3493   23.6532 O   0  0  0  0  0  0
    1.5720   53.2624   24.4034 C   0  0  0  0  0  0
    1.1025   54.3042   23.9526 O   0  0  0  0  0  0
    1.4920   52.8858   25.8363 C   0  0  0  0  0  0
    0.3926   52.1959   26.3799 C   0  0  0  0  0  0
    0.3843   51.9422   27.7641 C   0  0  0  0  0  0
    1.4686   52.3688   28.5515 C   0  0  0  0  0  0
    2.5294   53.0372   27.9253 C   0  0  0  0  0  0
    2.5391   53.2968   26.5956 N   0  0  0  0  0  0
    3.8981   53.5784   28.8352 Cl  0  0  0  0  0  0
    1.4984   52.0967   30.2671 Cl  0  0  0  0  0  0
   -0.7058   51.2969   28.3620 N   0  0  0  0  0  0
   -0.9398   51.6961   25.3778 Cl  0  0  0  0  0  0
    4.1955   54.5272   18.2402 C   0  0  0  0  0  0
    8.7081   56.7269   17.8522 H   0  0  0  0  0  0
    9.4406   56.9014   19.4307 H   0  0  0  0  0  0
    8.2231   58.0772   18.8812 H   0  0  0  0  0  0
    6.2763   56.1201   17.6502 H   0  0  0  0  0  0
    8.3227   55.9994   21.3976 H   0  0  0  0  0  0
    6.3869   55.0422   23.4929 H   0  0  0  0  0  0
    6.2871   53.3702   22.8835 H   0  0  0  0  0  0
    7.8054   54.1868   22.8828 H   0  0  0  0  0  0
    4.0666   52.9628   20.2193 H   0  0  0  0  0  0
    3.0394   51.2046   20.5939 H   0  0  0  0  0  0
    3.9042   50.8385   22.0806 H   0  0  0  0  0  0
    2.2015   50.4266   21.9222 H   0  0  0  0  0  0
   -0.8357   51.4857   29.3456 H   0  0  0  0  0  0
   -0.8952   50.3366   28.0801 H   0  0  0  0  0  0
    3.2265   54.7428   18.6906 H   0  0  0  0  0  0
    4.2330   55.0519   17.2849 H   0  0  0  0  0  0
    4.2382   53.4544   18.0479 H   0  0  0  0  0  0
  1  2  1  0  0  0
  1 29  1  0  0  0
  1 30  1  0  0  0
  1 31  1  0  0  0
  2  7  2  0  0  0
  2  3  1  0  0  0
  3  4  2  0  0  0
  3 32  1  0  0  0
  4  5  1  0  0  0
  4 28  1  0  0  0
  5  6  2  0  0  0
  5  9  1  0  0  0
  6  7  1  0  0  0
  6  8  1  0  0  0
  7 33  1  0  0  0
  8 34  1  0  0  0
  8 35  1  0  0  0
  8 36  1  0  0  0
  9 10  1  0  0  0
  9 37  1  0  0  0
 10 11  2  0  0  0
 10 12  1  0  0  0
 12 13  1  0  0  0
 12 14  1  0  0  0
 12 15  1  0  0  0
 14 38  1  0  0  0
 14 39  1  0  0  0
 14 40  1  0  0  0
 15 16  1  0  0  0
 16 17  2  0  0  0
 16 18  1  0  0  0
 18 23  2  0  0  0
 18 19  1  0  0  0
 19 20  2  0  0  0
 19 27  1  0  0  0
 20 21  1  0  0  0
 20 26  1  0  0  0
 21 22  2  0  0  0
 21 25  1  0  0  0
 22 23  1  0  0  0
 22 24  1  0  0  0
 26 41  1  0  0  0
 26 42  1  0  0  0
 28 43  1  0  0  0
 28 44  1  0  0  0
 28 45  1  0  0  0
M  END
> <i_i_glide_confnum>
45

> <i_i_glide_lignum>
4297

> <i_i_glide_posenum>
326

> <i_i_glide_rotatable_bonds>
6

> <i_m_Source_File_Index>
5694

> <b_m_subgroup_collapsed>
0

> <r_i_docking_score>
-5.06983

> <r_i_glide_ecoul>
-5.49729

> <r_i_glide_eff_state_penalty>
0

> <r_i_glide_einternal>
2.85215

> <r_i_glide_emodel>
-54.2735

> <r_i_glide_energy>
-41.1733

> <r_i_glide_erotb>
0.64309

> <r_i_glide_esite>
-0.083957

> <r_i_glide_evdw>
-35.676

> <r_i_glide_gscore>
-5.06983

> <r_i_glide_hbond>
-0.148488

> <r_i_glide_ligand_efficiency>
-0.187771

> <r_i_glide_ligand_efficiency_ln>
-1.18017

> <r_i_glide_ligand_efficiency_sa>
-0.563314

> <r_i_glide_lipo>
-1.89351

> <r_i_glide_metal>
0

> <r_i_glide_rewards>
-0.978566

> <s_i_glide_gridfile>
wee1_glide-grid

> <s_m_Source_File>
wee1_decoys_glide_SP.sdf

> <s_m_Source_Path>
/Users/zhangxujun/Desktop

> <s_m_entry_id>
5969

> <s_m_entry_name>
wee1_decoys_glide_SP.5694

> <s_m_subgroup_title>
wee1_decoys_glide_SP

> <s_m_subgroupid>
wee1_decoys_glide_SP


$$$$
