@<TRIPOS>MOLECULE
ZINC25369725_5895
42   44    1
SMALL
USER_CHARGES


@<TRIPOS>ATOM
      1 C1          0.5931   52.8966   31.8501 C.3       1 UNK         0.0000 
      2 O2          1.4375   52.9066   30.7167 O.3       1 UNK         0.0000 
      3 C3          0.9333   52.4942   29.4924 C.ar      1 UNK         0.0000 
      4 C4         -0.4019   52.0960   29.2935 C.ar      1 UNK         0.0000 
      5 C5         -0.8481   51.6974   28.0347 C.ar      1 UNK         0.0000 
      6 C6          0.0272   51.7080   26.9493 C.ar      1 UNK         0.0000 
      7 C7          1.3514   52.0966   27.1466 C.ar      1 UNK         0.0000 
      8 C8          1.8276   52.4672   28.4060 C.ar      1 UNK         0.0000 
      9 N9          3.1563   52.7546   28.5554 N.2       1 UNK         0.0000 
     10 S10         3.5847   54.2494   28.6478 S.o2      1 UNK         0.0000 
     11 O11         2.4920   55.2188   28.4880 O.2       1 UNK         0.0000 
     12 O12         4.5384   54.5237   29.7203 O.2       1 UNK         0.0000 
     13 C13         4.4987   54.3338   27.1023 C.ar      1 UNK         0.0000 
     14 C14         3.7563   54.6087   25.9522 C.ar      1 UNK         0.0000 
     15 C15         4.3519   54.6586   24.6989 C.ar      1 UNK         0.0000 
     16 C16         5.7148   54.4409   24.5817 C.ar      1 UNK         0.0000 
     17 C17         6.4637   54.1576   25.7145 C.ar      1 UNK         0.0000 
     18 C18         5.8790   54.0953   26.9776 C.ar      1 UNK         0.0000 
     19 Cl19        6.9144   53.6958   28.3030 Cl        1 UNK         0.0000 
     20 Br20        6.5525   54.5053   22.8810 Br        1 UNK         0.0000 
     21 S21        -0.5012   51.1537   25.3265 S.o2      1 UNK         0.0000 
     22 O22        -1.9389   50.8737   25.3977 O.2       1 UNK         0.0000 
     23 O23         0.4491   50.1197   24.9049 O.2       1 UNK         0.0000 
     24 N24        -0.3201   52.5345   24.2453 N.pl3     1 UNK         0.0000 
     25 C25         0.9863   53.1531   23.9487 C.3       1 UNK         0.0000 
     26 C26         2.0638   52.2910   23.3198 C.3       1 UNK         0.0000 
     27 C27         1.3425   53.2954   22.4829 C.3       1 UNK         0.0000 
     28 H28         1.1042   53.2966   32.7218 H         1 UNK         0.0000 
     29 H29        -0.3022   53.5014   31.6995 H         1 UNK         0.0000 
     30 H30         0.3052   51.8723   32.0859 H         1 UNK         0.0000 
     31 H31        -1.1046   52.0657   30.1121 H         1 UNK         0.0000 
     32 H32        -1.8698   51.3649   27.9139 H         1 UNK         0.0000 
     33 H33         2.0337   52.0968   26.3107 H         1 UNK         0.0000 
     34 H34         2.7012   54.7756   26.0378 H         1 UNK         0.0000 
     35 H35         3.7608   54.8827   23.8228 H         1 UNK         0.0000 
     36 H36         7.5043   53.9603   25.5950 H         1 UNK         0.0000 
     37 H37        -1.1507   53.1117   24.0972 H         1 UNK         0.0000 
     38 H38         1.2724   53.9587   24.6221 H         1 UNK         0.0000 
     39 H39         1.8800   51.2318   23.1387 H         1 UNK         0.0000 
     40 H40         3.1037   52.4966   23.5732 H         1 UNK         0.0000 
     41 H41         1.8783   54.1871   22.1577 H         1 UNK         0.0000 
     42 H42         0.6471   52.9348   21.7241 H         1 UNK         0.0000 
@<TRIPOS>BOND
     1    1    2 1    
     2    1   28 1    
     3    1   29 1    
     4    1   30 1    
     5    2    3 1    
     6    3    8 ar   
     7    3    4 ar   
     8    4    5 ar   
     9    4   31 1    
    10    5    6 ar   
    11    5   32 1    
    12    6    7 ar   
    13    6   21 1    
    14    7    8 ar   
    15    7   33 1    
    16    8    9 1    
    17    9   10 1    
    18   10   11 2    
    19   10   12 2    
    20   10   13 1    
    21   13   18 ar   
    22   13   14 ar   
    23   14   15 ar   
    24   14   34 1    
    25   15   16 ar   
    26   15   35 1    
    27   16   17 ar   
    28   16   20 1    
    29   17   18 ar   
    30   17   36 1    
    31   18   19 1    
    32   21   22 2    
    33   21   23 2    
    34   21   24 1    
    35   24   25 1    
    36   24   37 1    
    37   25   27 1    
    38   25   26 1    
    39   25   38 1    
    40   26   27 1    
    41   26   39 1    
    42   26   40 1    
    43   27   41 1    
    44   27   42 1    
@<TRIPOS>SUBSTRUCTURE
     1 UNK         1 GROUP             0       ****    0 ROOT    
