ZINC50121735_1797
                    3D
 Schrodinger Suite 2024-2.
 35 37  0  0  1  0            999 V2000
    8.3396   53.4618   17.0490 C   0  0  0  0  0  0
    7.6744   54.5827   17.8643 C   0  0  0  0  0  0
    6.4591   54.1730   18.5833 N   0  0  0  0  0  0
    5.9358   52.9475   18.5265 C   0  0  0  0  0  0
    4.8504   52.8968   19.2848 N   0  3  0  0  0  0
    4.5991   54.1763   19.9182 C   0  0  2  0  0  0
    5.7175   54.9846   19.3503 C   0  0  0  0  0  0
    5.9056   56.2892   19.5552 N   0  3  0  0  0  0
    4.5231   54.0970   21.4428 C   0  0  0  0  0  0
    5.6543   54.3117   22.2407 C   0  0  0  0  0  0
    5.5382   54.3093   23.6325 C   0  0  0  0  0  0
    4.2867   54.0970   24.2384 C   0  0  0  0  0  0
    3.1593   53.8726   23.4472 C   0  0  0  0  0  0
    3.2876   53.8559   22.0590 C   0  0  0  0  0  0
    1.4434   53.6204   24.2357 Br  0  0  0  0  0  0
    4.1133   54.1638   25.6089 O   0  0  0  0  0  0
    5.3220   54.0961   26.3709 C   0  0  0  0  0  0
    6.4384   54.9389   25.7120 C   0  0  0  0  0  0
    6.6861   54.4941   24.3758 O   0  0  0  0  0  0
    9.2298   53.8331   16.5386 H   0  0  0  0  0  0
    7.6757   53.0669   16.2785 H   0  0  0  0  0  0
    8.6624   52.6324   17.6805 H   0  0  0  0  0  0
    8.3647   54.9719   18.6136 H   0  0  0  0  0  0
    7.3862   55.4064   17.2112 H   0  0  0  0  0  0
    6.3148   52.1117   17.9569 H   0  0  0  0  0  0
    5.2571   56.8012   20.1378 H   0  0  0  0  0  0
    3.6498   54.5521   19.5246 H   0  0  0  0  0  0
    6.6211   54.4968   21.7972 H   0  0  0  0  0  0
    2.4058   53.6955   21.4549 H   0  0  0  0  0  0
    5.6453   53.0559   26.4386 H   0  0  0  0  0  0
    5.1252   54.4424   27.3857 H   0  0  0  0  0  0
    7.3516   54.8721   26.2996 H   0  0  0  0  0  0
    6.1303   55.9860   25.6866 H   0  0  0  0  0  0
    6.6634   56.7788   19.0984 H   0  0  0  0  0  0
    4.2810   52.0652   19.4023 H   0  0  0  0  0  0
  1  2  1  0  0  0
  1 20  1  0  0  0
  1 21  1  0  0  0
  1 22  1  0  0  0
  2 23  1  0  0  0
  2 24  1  0  0  0
  2  3  1  0  0  0
  3  4  1  0  0  0
  3  7  1  0  0  0
  4  5  2  0  0  0
  4 25  1  0  0  0
  5  6  1  0  0  0
  5 35  1  0  0  0
  6  9  1  0  0  0
  6 27  1  0  0  0
  6  7  1  0  0  0
  7  8  2  0  0  0
  8 26  1  0  0  0
  8 34  1  0  0  0
  9 14  2  0  0  0
  9 10  1  0  0  0
 10 11  2  0  0  0
 10 28  1  0  0  0
 11 19  1  0  0  0
 11 12  1  0  0  0
 12 13  2  0  0  0
 12 16  1  0  0  0
 13 14  1  0  0  0
 13 15  1  0  0  0
 14 29  1  0  0  0
 16 17  1  0  0  0
 17 18  1  0  0  0
 17 30  1  0  0  0
 17 31  1  0  0  0
 18 19  1  0  0  0
 18 32  1  0  0  0
 18 33  1  0  0  0
M  CHG  2   5   1   8   1
M  END
> <i_i_glide_confnum>
8

> <i_i_glide_lignum>
1798

> <i_i_glide_posenum>
382

> <i_i_glide_rotatable_bonds>
2

> <i_m_Source_File_Index>
809

> <b_m_subgroup_collapsed>
0

> <r_i_docking_score>
-5.34474

> <r_i_glide_ecoul>
-3.76931

> <r_i_glide_eff_state_penalty>
0

> <r_i_glide_einternal>
0.0363373

> <r_i_glide_emodel>
-43.3846

> <r_i_glide_energy>
-29.543

> <r_i_glide_erotb>
0.176236

> <r_i_glide_esite>
-0.190822

> <r_i_glide_evdw>
-25.7737

> <r_i_glide_gscore>
-5.34474

> <r_i_glide_hbond>
-0.00234001

> <r_i_glide_ligand_efficiency>
-0.281302

> <r_i_glide_ligand_efficiency_ln>
-1.35501

> <r_i_glide_ligand_efficiency_sa>
-0.750626

> <r_i_glide_lipo>
-2.11737

> <r_i_glide_metal>
0

> <r_i_glide_rewards>
-1.35636

> <s_i_glide_gridfile>
wee1_glide-grid

> <s_m_Source_File>
wee1_decoys_glide_SP.sdf

> <s_m_Source_Path>
/Users/zhangxujun/Desktop

> <s_m_entry_id>
1084

> <s_m_entry_name>
wee1_decoys_glide_SP.809

> <s_m_subgroup_title>
wee1_decoys_glide_SP

> <s_m_subgroupid>
wee1_decoys_glide_SP


$$$$
