@<TRIPOS>MOLECULE
ZINC59170739_5568
57   60    1
SMALL
USER_CHARGES


@<TRIPOS>ATOM
      1 C1          3.9073   53.3904   30.1227 C.3       1 UNK         0.0000 
      2 C2          4.4432   53.7535   28.7526 C.ar      1 UNK         0.0000 
      3 C3          3.5696   54.1955   27.7600 C.ar      1 UNK         0.0000 
      4 C4          4.0604   54.4972   26.4955 C.ar      1 UNK         0.0000 
      5 C5          5.4228   54.3455   26.2210 C.ar      1 UNK         0.0000 
      6 C6          6.3016   53.9228   27.2155 C.ar      1 UNK         0.0000 
      7 C7          5.8090   53.6323   28.4813 C.ar      1 UNK         0.0000 
      8 S8          6.0407   54.6588   24.5804 S.o2      1 UNK         0.0000 
      9 O9          7.1046   53.6968   24.3052 O.2       1 UNK         0.0000 
     10 O10         6.3046   56.0963   24.4850 O.2       1 UNK         0.0000 
     11 N11         4.7018   54.2662   23.5279 N.pl3     1 UNK         0.0000 
     12 N12         4.9704   54.3795   22.2515 N.pl3     1 UNK         0.0000 
     13 C13         4.4321   53.6902   21.2495 C.2       1 UNK         0.0000 
     14 C14         4.7013   53.9445   19.8815 C.2       1 UNK         0.0000 
     15 C15         4.0339   53.1567   18.9843 C.2       1 UNK         0.0000 
     16 C16         3.1038   52.0869   19.3719 C.ar      1 UNK         0.0000 
     17 C17         2.4554   51.2316   18.4797 C.ar      1 UNK         0.0000 
     18 C18         1.6564   50.1825   18.9638 C.ar      1 UNK         0.0000 
     19 C19         1.5109   50.0224   20.3537 C.ar      1 UNK         0.0000 
     20 C20         2.1478   50.8876   21.2450 C.ar      1 UNK         0.0000 
     21 C21         2.9440   51.9138   20.7437 C.ar      1 UNK         0.0000 
     22 O22         3.6041   52.7516   21.6230 O.3       1 UNK         0.0000 
     23 N23         0.9943   49.2476   18.0257 N.pl3     1 UNK         0.0000 
     24 O24         0.5919   48.1732   18.4639 O.co2     1 UNK         0.0000 
     25 O25         0.8517   49.5935   16.8572 O.co2     1 UNK         0.0000 
     26 C26         5.6290   54.9882   19.4437 C.2       1 UNK         0.0000 
     27 O27         6.6032   55.3137   20.1300 O.2       1 UNK         0.0000 
     28 N28         5.3031   55.6117   18.2884 N.am      1 UNK         0.0000 
     29 C29         5.9843   56.6730   17.6678 C.ar      1 UNK         0.0000 
     30 C30         7.3845   56.7817   17.6895 C.ar      1 UNK         0.0000 
     31 C31         8.0142   57.8625   17.0767 C.ar      1 UNK         0.0000 
     32 C32         7.2547   58.8364   16.4340 C.ar      1 UNK         0.0000 
     33 C33         5.8669   58.7238   16.3917 C.ar      1 UNK         0.0000 
     34 C34         5.2117   57.6425   17.0044 C.ar      1 UNK         0.0000 
     35 O35         3.8357   57.4787   17.0016 O.3       1 UNK         0.0000 
     36 C36         3.0123   58.4928   16.4307 C.3       1 UNK         0.0000 
     37 H37         2.8171   53.4038   30.1589 H         1 UNK         0.0000 
     38 H38         4.2384   52.3880   30.3965 H         1 UNK         0.0000 
     39 H39         4.3043   54.0818   30.8650 H         1 UNK         0.0000 
     40 H40         2.5126   54.2966   27.9606 H         1 UNK         0.0000 
     41 H41         3.3721   54.8341   25.7350 H         1 UNK         0.0000 
     42 H42         7.3553   53.8006   27.0101 H         1 UNK         0.0000 
     43 H43         6.4992   53.2979   29.2397 H         1 UNK         0.0000 
     44 H44         3.8629   54.8036   23.7617 H         1 UNK         0.0000 
     45 H45         4.2178   53.2744   17.9242 H         1 UNK         0.0000 
     46 H46         2.6177   51.3404   17.4143 H         1 UNK         0.0000 
     47 H47         0.9072   49.2199   20.7517 H         1 UNK         0.0000 
     48 H48         2.0379   50.7534   22.3119 H         1 UNK         0.0000 
     49 H49         4.3887   55.4307   17.8994 H         1 UNK         0.0000 
     50 H50         7.9947   56.0330   18.1740 H         1 UNK         0.0000 
     51 H51         9.0905   57.9442   17.1013 H         1 UNK         0.0000 
     52 H52         7.7343   59.6867   15.9715 H         1 UNK         0.0000 
     53 H53         5.3146   59.5114   15.8984 H         1 UNK         0.0000 
     54 H54         1.9689   58.1848   16.4823 H         1 UNK         0.0000 
     55 H55         3.1043   59.4321   16.9777 H         1 UNK         0.0000 
     56 H56         3.2456   58.6664   15.3798 H         1 UNK         0.0000 
     57 H57         5.6332   55.1058   21.9887 H         1 UNK         0.0000 
@<TRIPOS>BOND
     1    1    2 1    
     2    1   37 1    
     3    1   38 1    
     4    1   39 1    
     5    2    7 ar   
     6    2    3 ar   
     7    3    4 ar   
     8    3   40 1    
     9    4    5 ar   
    10    4   41 1    
    11    5    6 ar   
    12    5    8 1    
    13    6    7 ar   
    14    6   42 1    
    15    7   43 1    
    16    8    9 2    
    17    8   10 2    
    18    8   11 1    
    19   11   12 1    
    20   11   44 1    
    21   12   13 2    
    22   12   57 1    
    23   13   22 1    
    24   13   14 1    
    25   14   15 2    
    26   14   26 1    
    27   15   16 1    
    28   15   45 1    
    29   16   21 ar   
    30   16   17 ar   
    31   17   18 ar   
    32   17   46 1    
    33   18   19 ar   
    34   18   23 1    
    35   19   20 ar   
    36   19   47 1    
    37   20   21 ar   
    38   20   48 1    
    39   21   22 1    
    40   23   24 2    
    41   23   25 1    
    42   26   27 2    
    43   26   28 am   BACKBONE|DICT|INTERRES
    44   28   29 1    
    45   28   49 1    
    46   29   34 ar   
    47   29   30 ar   
    48   30   31 ar   
    49   30   50 1    
    50   31   32 ar   
    51   31   51 1    
    52   32   33 ar   
    53   32   52 1    
    54   33   34 ar   
    55   33   53 1    
    56   34   35 1    
    57   35   36 1    
    58   36   54 1    
    59   36   55 1    
    60   36   56 1    
@<TRIPOS>SUBSTRUCTURE
     1 UNK         1 GROUP             0       ****    0 ROOT    
