ZINC36026962_596
                    3D
 Schrodinger Suite 2024-2.
 65 69  0  0  1  0            999 V2000
   -1.0210   46.0514   18.8265 C   0  0  0  0  0  0
    0.3410   45.9610   18.5661 C   0  0  0  0  0  0
    1.0733   47.1007   18.2566 C   0  0  0  0  0  0
    0.4264   48.3515   18.1800 C   0  0  0  0  0  0
   -0.9526   48.4314   18.4764 C   0  0  0  0  0  0
   -1.6657   47.2806   18.7868 C   0  0  0  0  0  0
    1.2429   49.6104   17.9300 C   0  0  0  0  0  0
    2.0493   50.1133   19.1548 C   0  0  2  0  0  0
    2.6101   49.3036   19.6227 H   0  0  0  0  0  0
    1.2220   50.8352   20.2327 C   0  0  0  0  0  0
    0.0637   50.5351   20.5213 O   0  0  0  0  0  0
    1.9875   51.7958   20.8034 N   0  0  0  0  0  0
    3.2669   52.0001   20.1022 C   0  0  0  0  0  0
    3.1043   51.1248   18.8667 N   0  3  0  0  0  0
    4.5107   51.5430   20.8875 C   0  0  0  0  0  0
    4.9226   52.5024   22.0326 C   0  0  0  0  0  0
    5.0305   53.8940   21.5337 N   0  0  0  0  0  0
    3.9842   54.4452   20.6401 C   0  0  0  0  0  0
    3.5528   53.4150   19.5781 C   0  0  0  0  0  0
    5.9533   54.7559   22.0878 C   0  0  0  0  0  0
    6.9798   55.6942   21.1623 S   0  0  0  0  0  0
    6.0630   54.8959   23.4470 N   0  0  0  0  0  0
    5.2116   54.5310   24.5122 C   0  0  0  0  0  0
    3.8175   54.4567   24.3845 C   0  0  0  0  0  0
    3.0229   54.0964   25.4715 C   0  0  0  0  0  0
    3.6058   53.8526   26.7129 C   0  0  0  0  0  0
    4.9845   53.9805   26.8674 C   0  0  0  0  0  0
    5.7809   54.3250   25.7760 C   0  0  0  0  0  0
    7.1049   54.4892   25.9642 F   0  0  0  0  0  0
    1.4831   52.6077   21.9315 C   0  0  0  0  0  0
    0.8907   51.8715   23.1453 C   0  0  0  0  0  0
    1.3008   50.5781   23.4963 C   0  0  0  0  0  0
    0.7043   49.9178   24.5674 C   0  0  0  0  0  0
   -0.2817   50.5576   25.3114 C   0  0  0  0  0  0
   -0.6798   51.8527   24.9883 C   0  0  0  0  0  0
   -0.0978   52.5059   23.9045 C   0  0  0  0  0  0
   -1.5835   45.1616   19.0716 H   0  0  0  0  0  0
    0.8356   45.0031   18.6104 H   0  0  0  0  0  0
    2.1357   47.0259   18.0688 H   0  0  0  0  0  0
   -1.4556   49.3858   18.4650 H   0  0  0  0  0  0
   -2.7221   47.3465   19.0067 H   0  0  0  0  0  0
    0.5881   50.3959   17.5471 H   0  0  0  0  0  0
    1.9140   49.3759   17.1052 H   0  0  0  0  0  0
    2.8275   51.7100   18.0927 H   0  0  0  0  0  0
    5.3617   51.4409   20.2120 H   0  0  0  0  0  0
    4.3272   50.5445   21.2816 H   0  0  0  0  0  0
    5.8593   52.1704   22.4825 H   0  0  0  0  0  0
    4.1575   52.4967   22.8009 H   0  0  0  0  0  0
    3.1479   54.7756   21.2529 H   0  0  0  0  0  0
    4.3583   55.2968   20.0848 H   0  0  0  0  0  0
    2.7050   53.7952   19.0095 H   0  0  0  0  0  0
    4.3639   53.3678   18.8466 H   0  0  0  0  0  0
    6.9013   55.3739   23.7513 H   0  0  0  0  0  0
    3.3361   54.6941   23.4511 H   0  0  0  0  0  0
    1.9510   54.0212   25.3567 H   0  0  0  0  0  0
    2.9869   53.5829   27.5565 H   0  0  0  0  0  0
    5.4399   53.8193   27.8352 H   0  0  0  0  0  0
    2.2817   53.2296   22.3148 H   0  0  0  0  0  0
    0.7349   53.2938   21.5329 H   0  0  0  0  0  0
    2.0739   50.0722   22.9376 H   0  0  0  0  0  0
    1.0162   48.9167   24.8333 H   0  0  0  0  0  0
   -0.7338   50.0453   26.1505 H   0  0  0  0  0  0
   -1.4429   52.3443   25.5749 H   0  0  0  0  0  0
   -0.4205   53.5083   23.6659 H   0  0  0  0  0  0
    4.0108   50.7252   18.5656 H   0  0  0  0  0  0
  1  6  2  0  0  0
  1  2  1  0  0  0
  1 37  1  0  0  0
  2  3  2  0  0  0
  2 38  1  0  0  0
  3  4  1  0  0  0
  3 39  1  0  0  0
  4  5  2  0  0  0
  4  7  1  0  0  0
  5  6  1  0  0  0
  5 40  1  0  0  0
  6 41  1  0  0  0
  7  8  1  0  0  0
  7 42  1  0  0  0
  7 43  1  0  0  0
  8  9  1  0  0  0
  8 14  1  0  0  0
  8 10  1  0  0  0
 10 11  2  0  0  0
 10 12  1  0  0  0
 12 13  1  0  0  0
 12 30  1  0  0  0
 13 19  1  0  0  0
 13 14  1  0  0  0
 13 15  1  0  0  0
 14 44  1  0  0  0
 14 65  1  0  0  0
 15 16  1  0  0  0
 15 45  1  0  0  0
 15 46  1  0  0  0
 16 17  1  0  0  0
 16 47  1  0  0  0
 16 48  1  0  0  0
 17 18  1  0  0  0
 17 20  1  0  0  0
 18 19  1  0  0  0
 18 49  1  0  0  0
 18 50  1  0  0  0
 19 51  1  0  0  0
 19 52  1  0  0  0
 20 21  2  0  0  0
 20 22  1  0  0  0
 22 23  1  0  0  0
 22 53  1  0  0  0
 23 28  2  0  0  0
 23 24  1  0  0  0
 24 25  2  0  0  0
 24 54  1  0  0  0
 25 26  1  0  0  0
 25 55  1  0  0  0
 26 27  2  0  0  0
 26 56  1  0  0  0
 27 28  1  0  0  0
 27 57  1  0  0  0
 28 29  1  0  0  0
 30 31  1  0  0  0
 30 58  1  0  0  0
 30 59  1  0  0  0
 31 36  2  0  0  0
 31 32  1  0  0  0
 32 33  2  0  0  0
 32 60  1  0  0  0
 33 34  1  0  0  0
 33 61  1  0  0  0
 34 35  2  0  0  0
 34 62  1  0  0  0
 35 36  1  0  0  0
 35 63  1  0  0  0
 36 64  1  0  0  0
M  CHG  1  14   1
M  END
> <i_i_glide_confnum>
130

> <i_i_glide_lignum>
597

> <i_i_glide_posenum>
233

> <i_i_glide_rotatable_bonds>
7

> <i_m_Source_File_Index>
1050

> <b_m_subgroup_collapsed>
0

> <r_i_docking_score>
-5.73877

> <r_i_glide_ecoul>
-8.72954

> <r_i_glide_eff_state_penalty>
0

> <r_i_glide_einternal>
3.96283

> <r_i_glide_emodel>
-62.1577

> <r_i_glide_energy>
-46.5439

> <r_i_glide_erotb>
0.594045

> <r_i_glide_esite>
-0.148346

> <r_i_glide_evdw>
-37.8143

> <r_i_glide_gscore>
-5.73877

> <r_i_glide_hbond>
-0.170395

> <r_i_glide_ligand_efficiency>
-0.163965

> <r_i_glide_ligand_efficiency_ln>
-1.25979

> <r_i_glide_ligand_efficiency_sa>
-0.53634

> <r_i_glide_lipo>
-1.84383

> <r_i_glide_metal>
0

> <r_i_glide_rewards>
-0.970098

> <s_i_glide_gridfile>
wee1_glide-grid

> <s_m_Source_File>
wee1_decoys_glide_SP.sdf

> <s_m_Source_Path>
/Users/zhangxujun/Desktop

> <s_m_entry_id>
1325

> <s_m_entry_name>
wee1_decoys_glide_SP.1050

> <s_m_subgroup_title>
wee1_decoys_glide_SP

> <s_m_subgroupid>
wee1_decoys_glide_SP


$$$$
