@<TRIPOS>MOLECULE
ZINC13979376_4270
35   36    1
SMALL
USER_CHARGES


@<TRIPOS>ATOM
      1 C1          1.1455   52.4339   22.4473 C.ar      1 UNK         0.0000 
      2 C2          1.3927   51.1435   21.9862 C.ar      1 UNK         0.0000 
      3 C3          1.0417   50.0466   22.7706 C.ar      1 UNK         0.0000 
      4 C4          0.4509   50.2276   24.0237 C.ar      1 UNK         0.0000 
      5 C5          0.2342   51.5310   24.5144 C.ar      1 UNK         0.0000 
      6 C6          0.5694   52.6254   23.7029 C.ar      1 UNK         0.0000 
      7 C7         -0.3622   51.8070   25.8688 C.2       1 UNK         0.0000 
      8 O8         -1.3789   52.4966   25.9720 O.2       1 UNK         0.0000 
      9 N9          0.3480   51.3124   26.9026 N.am      1 UNK         0.0000 
     10 N10         0.0027   51.6970   28.2037 N.pl3     1 UNK         0.0000 
     11 C11         0.8280   52.4952   28.9503 C.2       1 UNK         0.0000 
     12 S12         0.3042   52.8966   30.4817 S.2       1 UNK         0.0000 
     13 N13         1.9995   52.8921   28.3472 N.am      1 UNK         0.0000 
     14 C14         3.0562   53.6455   28.7454 C.2       1 UNK         0.0000 
     15 O15         3.2378   54.0968   29.8775 O.2       1 UNK         0.0000 
     16 C16         4.0270   53.8667   27.6968 C.2       1 UNK         0.0000 
     17 C17         3.7052   54.0089   26.3897 C.2       1 UNK         0.0000 
     18 C18         4.6096   54.1870   25.2723 C.2       1 UNK         0.0000 
     19 C19         4.2606   54.0965   23.9277 C.2       1 UNK         0.0000 
     20 C20         5.3474   54.2475   23.0628 C.2       1 UNK         0.0000 
     21 C21         6.5287   54.4998   23.7411 C.2       1 UNK         0.0000 
     22 S22         6.3071   54.5222   25.4608 S.3       1 UNK         0.0000 
     23 I23        -0.0955   48.4967   25.0761 I         1 UNK         0.0000 
     24 H24         1.4043   53.2849   21.8324 H         1 UNK         0.0000 
     25 H25         1.8457   50.9924   21.0166 H         1 UNK         0.0000 
     26 H26         1.2239   49.0481   22.4008 H         1 UNK         0.0000 
     27 H27         0.3919   53.6359   24.0457 H         1 UNK         0.0000 
     28 H28         0.8288   50.4246   26.8628 H         1 UNK         0.0000 
     29 H29        -0.5632   50.9922   28.6593 H         1 UNK         0.0000 
     30 H30         2.0979   52.5585   27.4013 H         1 UNK         0.0000 
     31 H31         5.0530   53.9213   28.0318 H         1 UNK         0.0000 
     32 H32         2.6692   53.9731   26.0785 H         1 UNK         0.0000 
     33 H33         3.2567   53.9026   23.5828 H         1 UNK         0.0000 
     34 H34         5.2695   54.1915   21.9862 H         1 UNK         0.0000 
     35 H35         7.5044   54.6723   23.3144 H         1 UNK         0.0000 
@<TRIPOS>BOND
     1    1    6 ar   
     2    1    2 ar   
     3    1   24 1    
     4    2    3 ar   
     5    2   25 1    
     6    3    4 ar   
     7    3   26 1    
     8    4    5 ar   
     9    4   23 1    
    10    5    6 ar   
    11    5    7 1    
    12    6   27 1    
    13    7    8 2    
    14    7    9 am   BACKBONE|DICT|INTERRES
    15    9   10 1    
    16    9   28 1    
    17   10   11 1    
    18   10   29 1    
    19   11   12 2    
    20   11   13 am   BACKBONE|DICT|INTERRES
    21   13   14 am   BACKBONE|DICT|INTERRES
    22   13   30 1    
    23   14   15 2    
    24   14   16 1    
    25   16   17 2    
    26   16   31 1    
    27   17   18 1    
    28   17   32 1    
    29   18   22 1    
    30   18   19 2    
    31   19   20 1    
    32   19   33 1    
    33   20   21 2    
    34   20   34 1    
    35   21   22 1    
    36   21   35 1    
@<TRIPOS>SUBSTRUCTURE
     1 UNK         1 GROUP             0       ****    0 ROOT    
