@<TRIPOS>MOLECULE
ZINC59566518_855
58   61    1
SMALL
USER_CHARGES


@<TRIPOS>ATOM
      1 C1          4.1152   54.1866   29.6381 C.3       1 UNK         0.0000 
      2 C2          3.9434   54.1466   28.1378 C.ar      1 UNK         0.0000 
      3 C3          4.8483   54.4928   27.1573 C.ar      1 UNK         0.0000 
      4 C4          4.2889   54.2740   25.8987 C.ar      1 UNK         0.0000 
      5 C5          2.9949   53.7991   26.1338 C.ar      1 UNK         0.0000 
      6 N6          2.7906   53.7052   27.5069 N.pl3     1 UNK         0.0000 
      7 C7          1.6324   53.2118   28.1626 C.ar      1 UNK         0.0000 
      8 C8          1.0506   53.9333   29.2153 C.ar      1 UNK         0.0000 
      9 C9          0.0044   53.3754   29.9444 C.ar      1 UNK         0.0000 
     10 C10        -0.4968   52.1276   29.5836 C.ar      1 UNK         0.0000 
     11 C11         0.0159   51.4474   28.4848 C.ar      1 UNK         0.0000 
     12 C12         1.0960   51.9746   27.7883 C.ar      1 UNK         0.0000 
     13 C13         1.9155   53.4211   25.1268 C.3       1 UNK         0.0000 
     14 C14         4.9063   54.4967   24.6031 C.2       1 UNK         0.0000 
     15 N15         6.1353   54.8298   24.4710 N.2       1 UNK         0.0000 
     16 N16         6.7046   55.0347   23.2259 N.am      1 UNK         0.0000 
     17 C17         6.2107   54.8987   21.9590 C.2       1 UNK         0.0000 
     18 O18         5.0829   54.4902   21.6531 O.2       1 UNK         0.0000 
     19 C19         7.2010   55.2968   20.9274 C.2       1 UNK         0.0000 
     20 O20         8.2792   55.8199   21.2130 O.2       1 UNK         0.0000 
     21 N21         6.8038   54.9460   19.6822 N.am      1 UNK         0.0000 
     22 C22         7.5615   54.8179   18.5083 C.ar      1 UNK         0.0000 
     23 C23         8.9352   55.0894   18.4163 C.ar      1 UNK         0.0000 
     24 C24         9.6203   54.8055   17.2402 C.ar      1 UNK         0.0000 
     25 C25         8.9398   54.2543   16.1590 C.ar      1 UNK         0.0000 
     26 C26         7.5667   54.0226   16.2278 C.ar      1 UNK         0.0000 
     27 C27         6.8791   54.3017   17.4037 C.ar      1 UNK         0.0000 
     28 O28         9.6390   53.9122   15.0310 O.3       1 UNK         0.0000 
     29 C29        10.0217   52.6027   14.8137 C.ar      1 UNK         0.0000 
     30 C30        10.7841   52.3647   13.6723 C.ar      1 UNK         0.0000 
     31 C31        11.2112   51.0772   13.3679 C.ar      1 UNK         0.0000 
     32 C32        10.8678   50.0169   14.2040 C.ar      1 UNK         0.0000 
     33 C33        10.1101   50.2363   15.3512 C.ar      1 UNK         0.0000 
     34 C34         9.6910   51.5287   15.6602 C.ar      1 UNK         0.0000 
     35 H35         5.1195   54.4992   29.9088 H         1 UNK         0.0000 
     36 H36         3.4542   54.9164   30.0939 H         1 UNK         0.0000 
     37 H37         3.9317   53.2187   30.1051 H         1 UNK         0.0000 
     38 H38         5.8465   54.8647   27.3416 H         1 UNK         0.0000 
     39 H39         1.4104   54.9137   29.4893 H         1 UNK         0.0000 
     40 H40        -0.4148   53.9033   30.7884 H         1 UNK         0.0000 
     41 H41        -1.2986   51.6824   30.1537 H         1 UNK         0.0000 
     42 H42        -0.4067   50.4974   28.1931 H         1 UNK         0.0000 
     43 H43         1.5130   51.4015   26.9747 H         1 UNK         0.0000 
     44 H44         2.0357   53.9355   24.1744 H         1 UNK         0.0000 
     45 H45         1.9264   52.3547   24.9017 H         1 UNK         0.0000 
     46 H46         0.9148   53.6761   25.4675 H         1 UNK         0.0000 
     47 H47         4.2031   54.3464   23.7927 H         1 UNK         0.0000 
     48 H48         7.6755   55.3218   23.2864 H         1 UNK         0.0000 
     49 H49         5.8639   54.5751   19.6260 H         1 UNK         0.0000 
     50 H50         9.5046   55.4807   19.2435 H         1 UNK         0.0000 
     51 H51        10.6835   54.9829   17.1787 H         1 UNK         0.0000 
     52 H52         7.0462   53.5966   15.3830 H         1 UNK         0.0000 
     53 H53         5.8227   54.0765   17.4551 H         1 UNK         0.0000 
     54 H54        11.0471   53.1832   13.0203 H         1 UNK         0.0000 
     55 H55        11.8039   50.8970   12.4817 H         1 UNK         0.0000 
     56 H56        11.1978   49.0193   13.9513 H         1 UNK         0.0000 
     57 H57         9.8502   49.4112   15.9978 H         1 UNK         0.0000 
     58 H58         9.1070   51.6817   16.5550 H         1 UNK         0.0000 
@<TRIPOS>BOND
     1    1    2 1    
     2    1   35 1    
     3    1   36 1    
     4    1   37 1    
     5    2    6 ar   
     6    2    3 ar   
     7    3    4 ar   
     8    3   38 1    
     9    4    5 ar   
    10    4   14 1    
    11    5    6 ar   
    12    5   13 1    
    13    6    7 1    
    14    7   12 ar   
    15    7    8 ar   
    16    8    9 ar   
    17    8   39 1    
    18    9   10 ar   
    19    9   40 1    
    20   10   11 ar   
    21   10   41 1    
    22   11   12 ar   
    23   11   42 1    
    24   12   43 1    
    25   13   44 1    
    26   13   45 1    
    27   13   46 1    
    28   14   15 2    
    29   14   47 1    
    30   15   16 1    
    31   16   17 am   BACKBONE|DICT|INTERRES
    32   16   48 1    
    33   17   18 2    
    34   17   19 1    
    35   19   20 2    
    36   19   21 am   BACKBONE|DICT|INTERRES
    37   21   22 1    
    38   21   49 1    
    39   22   27 ar   
    40   22   23 ar   
    41   23   24 ar   
    42   23   50 1    
    43   24   25 ar   
    44   24   51 1    
    45   25   26 ar   
    46   25   28 1    
    47   26   27 ar   
    48   26   52 1    
    49   27   53 1    
    50   28   29 1    
    51   29   34 ar   
    52   29   30 ar   
    53   30   31 ar   
    54   30   54 1    
    55   31   32 ar   
    56   31   55 1    
    57   32   33 ar   
    58   32   56 1    
    59   33   34 ar   
    60   33   57 1    
    61   34   58 1    
@<TRIPOS>SUBSTRUCTURE
     1 UNK         1 GROUP             0       ****    0 ROOT    
