ZINC10470012_2700
                    3D
 Schrodinger Suite 2024-2.
 55 58  0  0  1  0            999 V2000
   -0.1216   52.2175   25.9187 C   0  0  0  0  0  0
   -0.4628   51.5857   24.7439 C   0  0  0  0  0  0
    0.7067   51.8594   23.5229 S   0  0  0  0  0  0
    1.6292   52.9420   24.5616 C   0  0  0  0  0  0
    1.1041   52.9130   25.8852 C   0  0  0  0  0  0
    1.7876   53.6696   27.4359 S   0  0  0  0  0  0
    0.7042   54.4189   28.0817 O   0  0  0  0  0  0
    3.0738   54.3192   27.1707 O   0  0  0  0  0  0
    2.0635   52.1944   28.3690 N   0  0  0  0  0  0
    0.8950   51.6961   29.1341 C   0  0  0  0  0  0
    0.7250   52.4094   30.4857 C   0  0  0  0  0  0
    2.0287   52.3273   31.2917 C   0  0  0  0  0  0
    3.2578   52.8099   30.4813 C   0  0  0  0  0  0
    3.3395   52.0969   29.1194 C   0  0  0  0  0  0
    2.8423   53.5278   24.0111 C   0  0  0  0  0  0
    3.8313   53.7780   24.6975 O   0  0  0  0  0  0
    2.8004   53.7034   22.6720 N   0  0  0  0  0  0
    3.8771   54.2693   22.0086 N   0  0  0  0  0  0
    4.5628   53.4727   21.1622 C   0  0  0  0  0  0
    4.4967   52.2384   21.1387 O   0  0  0  0  0  0
    5.4289   54.1722   20.2538 C   0  0  0  0  0  0
    5.9045   53.7043   19.0419 C   0  0  0  0  0  0
    6.7845   54.5738   18.3859 C   0  0  0  0  0  0
    6.9277   55.7855   19.0710 C   0  0  0  0  0  0
    6.1619   55.6974   20.6288 S   0  0  0  0  0  0
    7.7066   56.9899   18.6019 C   0  0  0  0  0  0
    9.2076   56.7008   18.4850 C   0  0  0  0  0  0
    9.6073   55.8401   17.2652 C   0  0  0  0  0  0
    9.0547   54.3976   17.2124 C   0  0  0  0  0  0
    7.5189   54.2559   17.0991 C   0  0  0  0  0  0
   -0.7637   52.1581   26.7822 H   0  0  0  0  0  0
   -1.3295   50.9697   24.5498 H   0  0  0  0  0  0
    1.0956   50.6452   29.3081 H   0  0  0  0  0  0
   -0.0079   51.6966   28.5377 H   0  0  0  0  0  0
   -0.0880   51.9467   31.0484 H   0  0  0  0  0  0
    0.4251   53.4484   30.3516 H   0  0  0  0  0  0
    1.9035   52.8950   32.2097 H   0  0  0  0  0  0
    2.1839   51.2983   31.6218 H   0  0  0  0  0  0
    3.2043   53.8847   30.3089 H   0  0  0  0  0  0
    4.1724   52.6327   31.0494 H   0  0  0  0  0  0
    3.5017   51.0399   29.3198 H   0  0  0  0  0  0
    4.1719   52.4045   28.4845 H   0  0  0  0  0  0
    1.9418   53.7489   22.1414 H   0  0  0  0  0  0
    3.7761   55.2627   21.8700 H   0  0  0  0  0  0
    5.6378   52.7390   18.6422 H   0  0  0  0  0  0
    7.3430   57.3041   17.6215 H   0  0  0  0  0  0
    7.5303   57.8454   19.2536 H   0  0  0  0  0  0
    9.7444   57.6479   18.4254 H   0  0  0  0  0  0
    9.5409   56.2254   19.4070 H   0  0  0  0  0  0
    9.3188   56.3604   16.3510 H   0  0  0  0  0  0
   10.6966   55.7885   17.2323 H   0  0  0  0  0  0
    9.5008   53.9049   16.3476 H   0  0  0  0  0  0
    9.4137   53.8359   18.0771 H   0  0  0  0  0  0
    7.2944   53.2340   16.7917 H   0  0  0  0  0  0
    7.1524   54.8841   16.2865 H   0  0  0  0  0  0
  1  5  1  0  0  0
  1  2  2  0  0  0
  1 31  1  0  0  0
  2  3  1  0  0  0
  2 32  1  0  0  0
  3  4  1  0  0  0
  4  5  2  0  0  0
  4 15  1  0  0  0
  5  6  1  0  0  0
  6  7  2  0  0  0
  6  8  2  0  0  0
  6  9  1  0  0  0
  9 14  1  0  0  0
  9 10  1  0  0  0
 10 11  1  0  0  0
 10 33  1  0  0  0
 10 34  1  0  0  0
 11 12  1  0  0  0
 11 35  1  0  0  0
 11 36  1  0  0  0
 12 13  1  0  0  0
 12 37  1  0  0  0
 12 38  1  0  0  0
 13 14  1  0  0  0
 13 39  1  0  0  0
 13 40  1  0  0  0
 14 41  1  0  0  0
 14 42  1  0  0  0
 15 16  2  0  0  0
 15 17  1  0  0  0
 17 18  1  0  0  0
 17 43  1  0  0  0
 18 19  1  0  0  0
 18 44  1  0  0  0
 19 20  2  0  0  0
 19 21  1  0  0  0
 21 25  1  0  0  0
 21 22  2  0  0  0
 22 23  1  0  0  0
 22 45  1  0  0  0
 23 30  1  0  0  0
 23 24  2  0  0  0
 24 25  1  0  0  0
 24 26  1  0  0  0
 26 27  1  0  0  0
 26 46  1  0  0  0
 26 47  1  0  0  0
 27 28  1  0  0  0
 27 48  1  0  0  0
 27 49  1  0  0  0
 28 29  1  0  0  0
 28 50  1  0  0  0
 28 51  1  0  0  0
 29 30  1  0  0  0
 29 52  1  0  0  0
 29 53  1  0  0  0
 30 54  1  0  0  0
 30 55  1  0  0  0
M  END
> <i_i_glide_confnum>
178

> <i_i_glide_lignum>
2701

> <i_i_glide_posenum>
110

> <i_i_glide_rotatable_bonds>
7

> <i_m_Source_File_Index>
4438

> <b_m_subgroup_collapsed>
0

> <r_i_docking_score>
-3.10687

> <r_i_glide_ecoul>
-2.25989

> <r_i_glide_eff_state_penalty>
0

> <r_i_glide_einternal>
8.82667

> <r_i_glide_emodel>
-45.3504

> <r_i_glide_energy>
-43.4496

> <r_i_glide_erotb>
0.5538

> <r_i_glide_esite>
0

> <r_i_glide_evdw>
-41.1897

> <r_i_glide_gscore>
-3.10687

> <r_i_glide_hbond>
0

> <r_i_glide_ligand_efficiency>
-0.103562

> <r_i_glide_ligand_efficiency_ln>
-0.705915

> <r_i_glide_ligand_efficiency_sa>
-0.321793

> <r_i_glide_lipo>
-1.07984

> <r_i_glide_metal>
0

> <r_i_glide_rewards>
-0.182362

> <s_i_glide_gridfile>
wee1_glide-grid

> <s_m_Source_File>
wee1_decoys_glide_SP.sdf

> <s_m_Source_Path>
/Users/zhangxujun/Desktop

> <s_m_entry_id>
4713

> <s_m_entry_name>
wee1_decoys_glide_SP.4438

> <s_m_subgroup_title>
wee1_decoys_glide_SP

> <s_m_subgroupid>
wee1_decoys_glide_SP


$$$$
