@<TRIPOS>MOLECULE
ZINC61373365_1814
35   37    1
SMALL
USER_CHARGES


@<TRIPOS>ATOM
      1 C1          4.0408   52.1538   29.9473 C.ar      1 UNK         0.0000 
      2 C2          3.1616   52.2752   28.8809 C.ar      1 UNK         0.0000 
      3 C3          1.7906   52.3540   29.1062 C.ar      1 UNK         0.0000 
      4 C4          1.3289   52.2779   30.4324 C.ar      1 UNK         0.0000 
      5 N5          2.1777   52.1128   31.4779 N.ar      1 UNK         0.0000 
      6 C6          3.5121   52.0964   31.2321 C.ar      1 UNK         0.0000 
      7 N7         -0.0220   52.3445   30.7614 N.pl3     1 UNK         0.0000 
      8 S8          0.7367   52.5330   27.6757 S.o2      1 UNK         0.0000 
      9 O9         -0.4956   53.1787   28.1249 O.2       1 UNK         0.0000 
     10 O10         0.7079   51.2400   26.9870 O.2       1 UNK         0.0000 
     11 N11         1.5422   53.6971   26.6320 N.pl3     1 UNK         0.0000 
     12 C12         2.4609   53.3300   25.5371 C.3       1 UNK         0.0000 
     13 H13         2.5993   52.2517   25.5477 H         1 UNK         0.0000 
     14 C14         1.7312   53.6754   24.2171 C.3       1 UNK         0.0000 
     15 C15         2.5670   53.2430   22.9964 C.3       1 UNK         0.0000 
     16 C16         3.9457   53.9431   22.9001 C.3       1 UNK         0.0000 
     17 C17         4.5292   54.1846   24.2897 C.2       1 UNK         0.0000 
     18 C18         3.8417   53.9910   25.4971 C.2       1 UNK         0.0000 
     19 C19         4.5907   54.4477   26.5940 C.2       1 UNK         0.0000 
     20 C20         5.8563   54.8967   26.2519 C.2       1 UNK         0.0000 
     21 S21         6.1239   54.8357   24.5445 S.3       1 UNK         0.0000 
     22 H22         5.1035   52.0965   29.7628 H         1 UNK         0.0000 
     23 H23         3.5491   52.3132   27.8782 H         1 UNK         0.0000 
     24 H24         4.1661   51.9882   32.0818 H         1 UNK         0.0000 
     25 H25        -0.6803   52.4018   29.9954 H         1 UNK         0.0000 
     26 H26        -0.3419   52.0977   31.7003 H         1 UNK         0.0000 
     27 H27         1.2124   54.6639   26.6694 H         1 UNK         0.0000 
     28 H28         1.5195   54.7445   24.1537 H         1 UNK         0.0000 
     29 H29         0.7642   53.1699   24.1823 H         1 UNK         0.0000 
     30 H30         2.0051   53.4266   22.0789 H         1 UNK         0.0000 
     31 H31         2.7063   52.1615   23.0358 H         1 UNK         0.0000 
     32 H32         3.8079   54.8971   22.3928 H         1 UNK         0.0000 
     33 H33         4.6205   53.3495   22.2825 H         1 UNK         0.0000 
     34 H34         4.2339   54.4334   27.6123 H         1 UNK         0.0000 
     35 H35         6.6205   55.2708   26.9177 H         1 UNK         0.0000 
@<TRIPOS>BOND
     1    1    6 ar   
     2    1    2 ar   
     3    1   22 1    
     4    2    3 ar   
     5    2   23 1    
     6    3    4 ar   
     7    3    8 1    
     8    4    5 ar   
     9    4    7 1    
    10    5    6 ar   
    11    6   24 1    
    12    7   25 1    
    13    7   26 1    
    14    8    9 2    
    15    8   10 2    
    16    8   11 1    
    17   11   12 1    
    18   11   27 1    
    19   12   13 1    
    20   12   18 1    
    21   12   14 1    
    22   14   15 1    
    23   14   28 1    
    24   14   29 1    
    25   15   16 1    
    26   15   30 1    
    27   15   31 1    
    28   16   17 1    
    29   16   32 1    
    30   16   33 1    
    31   17   21 1    
    32   17   18 2    
    33   18   19 1    
    34   19   20 2    
    35   19   34 1    
    36   20   21 1    
    37   20   35 1    
@<TRIPOS>SUBSTRUCTURE
     1 UNK         1 GROUP             0       ****    0 ROOT    
