@<TRIPOS>MOLECULE
ZINC63571860_1151
68   72    1
SMALL
USER_CHARGES


@<TRIPOS>ATOM
      1 C1          7.5304   57.4683   17.7624 C.3       1 UNK         0.0000 
      2 C2          6.0353   57.1990   18.0026 C.3       1 UNK         0.0000 
      3 O3          5.8225   55.9867   18.7158 O.3       1 UNK         0.0000 
      4 C4          5.9878   55.9094   20.0603 C.2       1 UNK         0.0000 
      5 O5          6.3197   56.8556   20.7810 O.2       1 UNK         0.0000 
      6 C6          5.6995   54.5163   20.6688 C.3       1 UNK         0.0000 
      7 C7          5.1093   53.4872   19.6658 C.3       1 UNK         0.0000 
      8 C8          4.9261   52.1186   20.3595 C.3       1 UNK         0.0000 
      9 C9          4.0359   52.1760   21.6118 C.3       1 UNK         0.0000 
     10 C10         4.6045   53.2402   22.5904 C.3       1 UNK         0.0000 
     11 C11         4.8088   54.6173   21.9308 C.3       1 UNK         0.0000 
     12 C12         2.5544   52.3659   21.2035 C.3       1 UNK         0.0000 
     13 N13         1.6000   52.4925   22.2950 N.am      1 UNK         0.0000 
     14 C14         1.2667   51.5321   23.1796 C.2       1 UNK         0.0000 
     15 O15         1.9040   50.4809   23.2694 O.2       1 UNK         0.0000 
     16 N16         0.1724   51.8001   23.9500 N.am      1 UNK         0.0000 
     17 C17        -0.7797   52.9026   23.6443 C.3       1 UNK         0.0000 
     18 C18        -2.2263   52.3814   23.5871 C.3       1 UNK         0.0000 
     19 C19        -2.5235   51.6395   24.8576 C.2       1 UNK         0.0000 
     20 C20        -3.5105   51.6928   25.7621 C.2       1 UNK         0.0000 
     21 C21        -4.7282   52.5143   25.8560 C.2       1 UNK         0.0000 
     22 C22        -5.5952   52.3328   26.8747 C.2       1 UNK         0.0000 
     23 C23        -5.2786   51.3200   27.8769 C.2       1 UNK         0.0000 
     24 C24        -4.1478   50.5675   27.8064 C.2       1 UNK         0.0000 
     25 C25        -3.2563   50.7370   26.7418 C.2       1 UNK         0.0000 
     26 N26        -2.1407   50.0947   26.4817 N.pl3     1 UNK         0.0000 
     27 C27        -1.5306   50.5673   25.2287 C.3       1 UNK         0.0000 
     28 H28        -1.6188   49.7356   24.5290 H         1 UNK         0.0000 
     29 C29        -0.0309   51.0510   25.2205 C.3       1 UNK         0.0000 
     30 H30         0.5698   50.1399   25.2116 H         1 UNK         0.0000 
     31 C31         0.4946   51.7697   26.4888 C.ar      1 UNK         0.0000 
     32 C32         1.2015   52.9804   26.4066 C.ar      1 UNK         0.0000 
     33 C33         1.7104   53.5924   27.5504 C.ar      1 UNK         0.0000 
     34 C34         1.5322   52.9935   28.7916 C.ar      1 UNK         0.0000 
     35 C35         0.8670   51.7758   28.8867 C.ar      1 UNK         0.0000 
     36 C36         0.3689   51.1659   27.7400 C.ar      1 UNK         0.0000 
     37 F37         2.0251   53.5864   29.9037 F         1 UNK         0.0000 
     38 H38         7.6677   58.3754   17.1734 H         1 UNK         0.0000 
     39 H39         7.9964   56.6457   17.2193 H         1 UNK         0.0000 
     40 H40         8.0728   57.5996   18.6987 H         1 UNK         0.0000 
     41 H41         5.5700   58.0432   18.5159 H         1 UNK         0.0000 
     42 H42         5.5314   57.1142   17.0390 H         1 UNK         0.0000 
     43 H43         6.6741   54.1741   20.9917 H         1 UNK         0.0000 
     44 H44         4.1613   53.8330   19.2537 H         1 UNK         0.0000 
     45 H45         5.7916   53.3388   18.8260 H         1 UNK         0.0000 
     46 H46         5.8965   51.7030   20.6121 H         1 UNK         0.0000 
     47 H47         4.4633   51.4075   19.6817 H         1 UNK         0.0000 
     48 H48         4.1344   51.1991   22.0807 H         1 UNK         0.0000 
     49 H49         5.5616   52.8967   22.9809 H         1 UNK         0.0000 
     50 H50         3.9474   53.3437   23.4556 H         1 UNK         0.0000 
     51 H51         5.3178   55.2394   22.6673 H         1 UNK         0.0000 
     52 H52         3.8367   55.0583   21.7050 H         1 UNK         0.0000 
     53 H53         2.4609   53.2947   20.6475 H         1 UNK         0.0000 
     54 H54         2.2413   51.5954   20.4961 H         1 UNK         0.0000 
     55 H55         1.1166   53.3746   22.3442 H         1 UNK         0.0000 
     56 H56        -0.6887   53.6959   24.3848 H         1 UNK         0.0000 
     57 H57        -0.5953   53.2950   22.6578 H         1 UNK         0.0000 
     58 H58        -2.9212   53.2065   23.4280 H         1 UNK         0.0000 
     59 H59        -2.3418   51.7111   22.7344 H         1 UNK         0.0000 
     60 H60        -4.9655   53.2619   25.1092 H         1 UNK         0.0000 
     61 H61        -6.5005   52.9188   26.9467 H         1 UNK         0.0000 
     62 H62        -5.9544   51.1734   28.7088 H         1 UNK         0.0000 
     63 H63        -3.9493   49.8351   28.5804 H         1 UNK         0.0000 
     64 H64         1.3745   53.4690   25.4605 H         1 UNK         0.0000 
     65 H65         2.2443   54.5284   27.4758 H         1 UNK         0.0000 
     66 H66         0.7451   51.2971   29.8438 H         1 UNK         0.0000 
     67 H67        -0.0963   50.2006   27.8462 H         1 UNK         0.0000 
     68 H68        -1.7539   49.3500   27.0813 H         1 UNK         0.0000 
@<TRIPOS>BOND
     1    1    2 1    
     2    1   38 1    
     3    1   39 1    
     4    1   40 1    
     5    2    3 1    
     6    2   41 1    
     7    2   42 1    
     8    3    4 1    
     9    4    5 2    
    10    4    6 1    
    11    6   11 1    
    12    6    7 1    
    13    6   43 1    
    14    7    8 1    
    15    7   44 1    
    16    7   45 1    
    17    8    9 1    
    18    8   46 1    
    19    8   47 1    
    20    9   10 1    
    21    9   12 1    
    22    9   48 1    
    23   10   11 1    
    24   10   49 1    
    25   10   50 1    
    26   11   51 1    
    27   11   52 1    
    28   12   13 1    
    29   12   53 1    
    30   12   54 1    
    31   13   14 am   BACKBONE|DICT|INTERRES
    32   13   55 1    
    33   14   15 2    
    34   14   16 am   BACKBONE|DICT|INTERRES
    35   16   29 1    
    36   16   17 1    
    37   17   18 1    
    38   17   56 1    
    39   17   57 1    
    40   18   19 1    
    41   18   58 1    
    42   18   59 1    
    43   19   27 1    
    44   19   20 2    
    45   20   25 1    
    46   20   21 1    
    47   21   22 2    
    48   21   60 1    
    49   22   23 1    
    50   22   61 1    
    51   23   24 2    
    52   23   62 1    
    53   24   25 1    
    54   24   63 1    
    55   25   26 2    
    56   26   27 1    
    57   26   68 1    
    58   27   28 1    
    59   27   29 1    
    60   29   30 1    
    61   29   31 1    
    62   31   36 ar   
    63   31   32 ar   
    64   32   33 ar   
    65   32   64 1    
    66   33   34 ar   
    67   33   65 1    
    68   34   35 ar   
    69   34   37 1    
    70   35   36 ar   
    71   35   66 1    
    72   36   67 1    
@<TRIPOS>SUBSTRUCTURE
     1 UNK         1 GROUP             0       ****    0 ROOT    
