ZINC47521851_4589
                    3D
 Schrodinger Suite 2024-2.
 50 52  0  0  1  0            999 V2000
    4.6070   52.4753   29.6802 C   0  0  0  0  0  0
    5.0120   53.5207   28.6045 C   0  0  0  0  0  0
    5.2567   54.8988   29.2608 C   0  0  0  0  0  0
    6.3741   53.1400   27.9791 C   0  0  0  0  0  0
    3.8485   53.5475   27.5478 C   0  0  1  0  0  0
    3.7522   52.5086   27.2203 H   0  0  0  0  0  0
    2.5356   53.9564   28.2045 C   0  0  0  0  0  0
    2.1453   55.2065   28.6722 C   0  0  0  0  0  0
    1.1020   55.1646   29.5819 C   0  0  0  0  0  0
    0.5168   53.9132   29.6544 C   0  0  0  0  0  0
    1.3298   52.7740   28.6403 S   0  0  0  0  0  0
    4.1553   54.2858   26.3153 N   0  0  0  0  0  0
    3.5147   54.0968   25.1489 C   0  0  0  0  0  0
    2.3538   53.6978   25.0603 O   0  0  0  0  0  0
    4.3452   54.3294   24.1138 N   0  0  0  0  0  0
    4.2133   53.9457   22.7661 C   0  0  0  0  0  0
    3.2844   53.0053   22.2983 C   0  0  0  0  0  0
    3.2996   52.6175   20.9619 C   0  0  0  0  0  0
    4.2312   53.1659   20.0834 C   0  0  0  0  0  0
    5.1677   54.1232   20.5132 C   0  0  0  0  0  0
    5.1367   54.4967   21.8708 C   0  0  0  0  0  0
    6.0961   54.6637   19.5678 N   0  0  0  0  0  0
    6.1433   54.2020   18.1782 C   0  0  0  0  0  0
    7.2271   55.0237   17.5507 C   0  0  0  0  0  0
    7.9050   55.4996   18.7224 N   0  0  0  0  0  0
    7.1497   55.5023   19.8325 C   0  0  0  0  0  0
    7.4754   56.0503   20.8836 O   0  0  0  0  0  0
    4.1405   51.5912   29.2456 H   0  0  0  0  0  0
    5.4401   52.0964   30.2417 H   0  0  0  0  0  0
    3.8987   52.8867   30.4001 H   0  0  0  0  0  0
    5.5729   55.6185   28.5087 H   0  0  0  0  0  0
    4.3880   55.2930   29.7701 H   0  0  0  0  0  0
    6.0431   54.8970   30.0107 H   0  0  0  0  0  0
    6.6112   53.7218   27.0894 H   0  0  0  0  0  0
    7.1977   53.2977   28.6763 H   0  0  0  0  0  0
    6.3971   52.0971   27.7046 H   0  0  0  0  0  0
    2.7060   56.1035   28.4857 H   0  0  0  0  0  0
    0.7517   56.0260   30.1308 H   0  0  0  0  0  0
   -0.3297   53.6043   30.2500 H   0  0  0  0  0  0
    5.1259   54.5422   26.2330 H   0  0  0  0  0  0
    5.1985   54.8223   24.3232 H   0  0  0  0  0  0
    2.5653   52.5398   22.9551 H   0  0  0  0  0  0
    2.5927   51.8835   20.6041 H   0  0  0  0  0  0
    4.2052   52.8202   19.0607 H   0  0  0  0  0  0
    5.8352   55.2133   22.2667 H   0  0  0  0  0  0
    6.3821   53.1377   18.1366 H   0  0  0  0  0  0
    5.1879   54.3813   17.6827 H   0  0  0  0  0  0
    6.8206   55.8591   16.9763 H   0  0  0  0  0  0
    7.9016   54.4496   16.9117 H   0  0  0  0  0  0
    8.6048   56.2169   18.6006 H   0  0  0  0  0  0
  1  2  1  0  0  0
  1 28  1  0  0  0
  1 29  1  0  0  0
  1 30  1  0  0  0
  2  3  1  0  0  0
  2  4  1  0  0  0
  2  5  1  0  0  0
  3 31  1  0  0  0
  3 32  1  0  0  0
  3 33  1  0  0  0
  4 34  1  0  0  0
  4 35  1  0  0  0
  4 36  1  0  0  0
  5  6  1  0  0  0
  5  7  1  0  0  0
  5 12  1  0  0  0
  7 11  1  0  0  0
  7  8  2  0  0  0
  8  9  1  0  0  0
  8 37  1  0  0  0
  9 10  2  0  0  0
  9 38  1  0  0  0
 10 11  1  0  0  0
 10 39  1  0  0  0
 12 13  1  0  0  0
 12 40  1  0  0  0
 13 14  2  0  0  0
 13 15  1  0  0  0
 15 16  1  0  0  0
 15 41  1  0  0  0
 16 21  2  0  0  0
 16 17  1  0  0  0
 17 18  2  0  0  0
 17 42  1  0  0  0
 18 19  1  0  0  0
 18 43  1  0  0  0
 19 20  2  0  0  0
 19 44  1  0  0  0
 20 21  1  0  0  0
 20 22  1  0  0  0
 21 45  1  0  0  0
 22 26  1  0  0  0
 22 23  1  0  0  0
 23 24  1  0  0  0
 23 46  1  0  0  0
 23 47  1  0  0  0
 24 25  1  0  0  0
 24 48  1  0  0  0
 24 49  1  0  0  0
 25 26  1  0  0  0
 25 50  1  0  0  0
 26 27  2  0  0  0
M  END
> <i_i_glide_confnum>
13

> <i_i_glide_lignum>
4590

> <i_i_glide_posenum>
167

> <i_i_glide_rotatable_bonds>
7

> <i_m_Source_File_Index>
5708

> <b_m_subgroup_collapsed>
0

> <r_i_docking_score>
-5.33647

> <r_i_glide_ecoul>
-2.56552

> <r_i_glide_eff_state_penalty>
0

> <r_i_glide_einternal>
9.77237

> <r_i_glide_emodel>
-45.3059

> <r_i_glide_energy>
-37.0507

> <r_i_glide_erotb>
0.696047

> <r_i_glide_esite>
0

> <r_i_glide_evdw>
-34.4852

> <r_i_glide_gscore>
-5.33647

> <r_i_glide_hbond>
-0.0892318

> <r_i_glide_ligand_efficiency>
-0.205249

> <r_i_glide_ligand_efficiency_ln>
-1.25325

> <r_i_glide_ligand_efficiency_sa>
-0.608049

> <r_i_glide_lipo>
-2.57866

> <r_i_glide_metal>
0

> <r_i_glide_rewards>
-1.25555

> <s_i_glide_gridfile>
wee1_glide-grid

> <s_m_Source_File>
wee1_decoys_glide_SP.sdf

> <s_m_Source_Path>
/Users/zhangxujun/Desktop

> <s_m_entry_id>
5983

> <s_m_entry_name>
wee1_decoys_glide_SP.5708

> <s_m_subgroup_title>
wee1_decoys_glide_SP

> <s_m_subgroupid>
wee1_decoys_glide_SP


$$$$
