@<TRIPOS>MOLECULE
ZINC32974226_733
76   79    1
SMALL
USER_CHARGES


@<TRIPOS>ATOM
      1 C1          6.8907   54.9770   24.8818 C.3       1 UNK         0.0000 
      2 C2          5.8740   54.7362   25.9764 C.ar      1 UNK         0.0000 
      3 C3          4.5160   54.7502   25.6654 C.ar      1 UNK         0.0000 
      4 C4          3.5752   54.4892   26.6552 C.ar      1 UNK         0.0000 
      5 C5          3.9871   54.1942   27.9609 C.ar      1 UNK         0.0000 
      6 C6          5.3494   54.2290   28.2753 C.ar      1 UNK         0.0000 
      7 C7          6.2921   54.4908   27.2850 C.ar      1 UNK         0.0000 
      8 C8          2.9761   53.8560   29.0319 C.2       1 UNK         0.0000 
      9 O9          3.0071   54.4962   30.0815 O.2       1 UNK         0.0000 
     10 N10         2.0730   52.8606   28.8059 N.am      1 UNK         0.0000 
     11 C11         2.1917   51.9156   27.6818 C.3       1 UNK         0.0000 
     12 C12         0.8691   51.9786   26.9045 C.3       1 UNK         0.0000 
     13 C13        -0.3007   51.5214   27.8068 C.3       1 UNK         0.0000 
     14 C14        -0.3246   52.4965   29.0096 C.3       1 UNK         0.0000 
     15 C15         1.0138   52.5413   29.7894 C.3       1 UNK         0.0000 
     16 C16        -1.6769   51.4612   27.0813 C.3       1 UNK         0.0000 
     17 C17        -1.7293   50.6469   25.7746 C.2       1 UNK         0.0000 
     18 O18        -2.4886   51.0033   24.8744 O.2       1 UNK         0.0000 
     19 N19        -0.9145   49.5804   25.6816 N.am      1 UNK         0.0000 
     20 C20        -0.7008   48.6885   24.5358 C.3       1 UNK         0.0000 
     21 C21        -0.6374   49.3331   23.1246 C.3       1 UNK         0.0000 
     22 N22         0.5633   50.1668   22.9120 N.3       1 UNK         0.0000 
     23 C23         0.1591   51.5423   22.5878 C.3       1 UNK         0.0000 
     24 C24         1.3817   52.4662   22.4210 C.3       1 UNK         0.0000 
     25 N25         2.2930   51.9066   21.3067 N.4       1 UNK         0.0000 
     26 C26         2.7079   50.4539   21.6226 C.3       1 UNK         0.0000 
     27 C27         1.4543   49.5878   21.8919 C.3       1 UNK         0.0000 
     28 C28         3.4424   52.7817   20.9154 C.ar      1 UNK         0.0000 
     29 C29         4.1363   53.5034   21.8918 C.ar      1 UNK         0.0000 
     30 C30         5.1543   54.3679   21.5038 C.ar      1 UNK         0.0000 
     31 C31         5.5004   54.4896   20.1607 C.ar      1 UNK         0.0000 
     32 C32         4.8301   53.7458   19.1819 C.ar      1 UNK         0.0000 
     33 C33         3.7726   52.8878   19.5514 C.ar      1 UNK         0.0000 
     34 C34         2.9774   52.1082   18.4992 C.3       1 UNK         0.0000 
     35 C35         5.2844   53.8869   17.7352 C.3       1 UNK         0.0000 
     36 H36         6.7763   54.2307   24.0954 H         1 UNK         0.0000 
     37 H37         6.7558   55.9624   24.4354 H         1 UNK         0.0000 
     38 H38         7.9044   54.8969   25.2583 H         1 UNK         0.0000 
     39 H39         4.1876   54.9588   24.6586 H         1 UNK         0.0000 
     40 H40         2.5264   54.4963   26.3976 H         1 UNK         0.0000 
     41 H41         5.6878   54.0368   29.2816 H         1 UNK         0.0000 
     42 H42         7.3408   54.4916   27.5444 H         1 UNK         0.0000 
     43 H43         3.0510   52.0969   27.0430 H         1 UNK         0.0000 
     44 H44         2.3173   50.9143   28.0961 H         1 UNK         0.0000 
     45 H45         0.6876   52.9736   26.4958 H         1 UNK         0.0000 
     46 H46         0.9578   51.3450   26.0229 H         1 UNK         0.0000 
     47 H47        -0.0746   50.5198   28.1884 H         1 UNK         0.0000 
     48 H48        -1.1333   52.2201   29.6885 H         1 UNK         0.0000 
     49 H49        -0.5732   53.5043   28.6746 H         1 UNK         0.0000 
     50 H50         1.2289   51.5654   30.2204 H         1 UNK         0.0000 
     51 H51         0.9406   53.2757   30.5938 H         1 UNK         0.0000 
     52 H52        -2.4308   51.0516   27.7552 H         1 UNK         0.0000 
     53 H53        -1.9968   52.4794   26.8468 H         1 UNK         0.0000 
     54 H54        -0.5036   49.2674   26.5542 H         1 UNK         0.0000 
     55 H55         0.2457   48.1779   24.7276 H         1 UNK         0.0000 
     56 H56        -1.4608   47.9061   24.5510 H         1 UNK         0.0000 
     57 H57        -0.6164   48.5056   22.4107 H         1 UNK         0.0000 
     58 H58        -1.5711   49.8507   22.8929 H         1 UNK         0.0000 
     59 H59        -0.3976   51.5197   21.6479 H         1 UNK         0.0000 
     60 H60        -0.4882   51.9462   23.3691 H         1 UNK         0.0000 
     61 H61         1.9603   52.5283   23.3433 H         1 UNK         0.0000 
     62 H62         1.1037   53.4682   22.0895 H         1 UNK         0.0000 
     63 H63         3.3737   50.4962   22.4816 H         1 UNK         0.0000 
     64 H64         3.2612   50.0983   20.7523 H         1 UNK         0.0000 
     65 H65         1.7728   48.5857   22.1852 H         1 UNK         0.0000 
     66 H66         0.8849   49.5337   20.9612 H         1 UNK         0.0000 
     67 H67         3.9001   53.4161   22.9410 H         1 UNK         0.0000 
     68 H68         5.6853   54.9452   22.2435 H         1 UNK         0.0000 
     69 H69         6.3021   55.1575   19.8801 H         1 UNK         0.0000 
     70 H70         3.1050   51.0344   18.6325 H         1 UNK         0.0000 
     71 H71         1.9135   52.3290   18.5896 H         1 UNK         0.0000 
     72 H72         3.2567   52.3379   17.4731 H         1 UNK         0.0000 
     73 H73         4.4951   54.3295   17.1273 H         1 UNK         0.0000 
     74 H74         6.1808   54.5000   17.6362 H         1 UNK         0.0000 
     75 H75         5.5155   52.9045   17.3205 H         1 UNK         0.0000 
     76 H76         1.7070   51.8697   20.4848 H         1 UNK         0.0000 
@<TRIPOS>BOND
     1    1    2 1    
     2    1   36 1    
     3    1   37 1    
     4    1   38 1    
     5    2    7 ar   
     6    2    3 ar   
     7    3    4 ar   
     8    3   39 1    
     9    4    5 ar   
    10    4   40 1    
    11    5    6 ar   
    12    5    8 1    
    13    6    7 ar   
    14    6   41 1    
    15    7   42 1    
    16    8    9 2    
    17    8   10 am   BACKBONE|DICT|INTERRES
    18   10   15 1    
    19   10   11 1    
    20   11   12 1    
    21   11   43 1    
    22   11   44 1    
    23   12   13 1    
    24   12   45 1    
    25   12   46 1    
    26   13   14 1    
    27   13   16 1    
    28   13   47 1    
    29   14   15 1    
    30   14   48 1    
    31   14   49 1    
    32   15   50 1    
    33   15   51 1    
    34   16   17 1    
    35   16   52 1    
    36   16   53 1    
    37   17   18 2    
    38   17   19 am   BACKBONE|DICT|INTERRES
    39   19   20 1    
    40   19   54 1    
    41   20   21 1    
    42   20   55 1    
    43   20   56 1    
    44   21   22 1    
    45   21   57 1    
    46   21   58 1    
    47   22   27 1    
    48   22   23 1    
    49   23   24 1    
    50   23   59 1    
    51   23   60 1    
    52   24   25 1    
    53   24   61 1    
    54   24   62 1    
    55   25   26 1    
    56   25   28 1    
    57   25   76 1    
    58   26   27 1    
    59   26   63 1    
    60   26   64 1    
    61   27   65 1    
    62   27   66 1    
    63   28   33 ar   
    64   28   29 ar   
    65   29   30 ar   
    66   29   67 1    
    67   30   31 ar   
    68   30   68 1    
    69   31   32 ar   
    70   31   69 1    
    71   32   33 ar   
    72   32   35 1    
    73   33   34 1    
    74   34   70 1    
    75   34   71 1    
    76   34   72 1    
    77   35   73 1    
    78   35   74 1    
    79   35   75 1    
@<TRIPOS>SUBSTRUCTURE
     1 UNK         1 GROUP             0       ****    0 ROOT    
