@<TRIPOS>MOLECULE
ZINC40723738_1842
42   44    1
SMALL
USER_CHARGES


@<TRIPOS>ATOM
      1 C1          1.5570   51.6877   19.4547 C.ar      1 UNK         0.0000 
      2 C2          0.2726   51.5975   19.9881 C.ar      1 UNK         0.0000 
      3 C3          0.0768   50.9590   21.2099 C.ar      1 UNK         0.0000 
      4 C4          1.1674   50.4192   21.8992 C.ar      1 UNK         0.0000 
      5 C5          2.4515   50.5139   21.3558 C.ar      1 UNK         0.0000 
      6 C6          2.6478   51.1464   20.1310 C.ar      1 UNK         0.0000 
      7 C7          0.9589   49.7210   23.2397 C.3       1 UNK         0.0000 
      8 C8          0.3566   50.6200   24.3460 C.3       1 UNK         0.0000 
      9 C9          0.1700   49.8624   25.6750 C.3       1 UNK         0.0000 
     10 C10        -0.4486   50.7529   26.7746 C.3       1 UNK         0.0000 
     11 N11         0.3443   51.9732   27.0057 N.pl3     1 UNK         0.0000 
     12 C12         0.5213   52.7351   25.7532 C.3       1 UNK         0.0000 
     13 C13         1.1649   51.9040   24.6283 C.3       1 UNK         0.0000 
     14 C14         0.9749   52.2869   28.2144 C.ar      1 UNK         0.0000 
     15 C15         0.3780   52.1414   29.4966 C.ar      1 UNK         0.0000 
     16 C16         1.1707   52.4843   30.6141 C.ar      1 UNK         0.0000 
     17 N17         2.4569   52.8966   30.4817 N.ar      1 UNK         0.0000 
     18 C18         2.9342   53.0178   29.2219 C.ar      1 UNK         0.0000 
     19 N19         2.2521   52.7469   28.0860 N.ar      1 UNK         0.0000 
     20 N20         0.7045   52.3925   31.9342 N.pl3     1 UNK         0.0000 
     21 N21        -0.9422   51.6968   29.6733 N.pl3     1 UNK         0.0000 
     22 H22         1.7113   52.1796   18.5057 H         1 UNK         0.0000 
     23 H23        -0.5659   52.0184   19.4530 H         1 UNK         0.0000 
     24 H24        -0.9197   50.8854   21.6201 H         1 UNK         0.0000 
     25 H25         3.2972   50.0966   21.8796 H         1 UNK         0.0000 
     26 H26         3.6384   51.2157   19.7015 H         1 UNK         0.0000 
     27 H27         0.3059   48.8641   23.0691 H         1 UNK         0.0000 
     28 H28         1.9037   49.2984   23.5861 H         1 UNK         0.0000 
     29 H29        -0.6398   50.9412   24.0363 H         1 UNK         0.0000 
     30 H30        -0.4661   48.9908   25.5127 H         1 UNK         0.0000 
     31 H31         1.1044   49.4298   26.0320 H         1 UNK         0.0000 
     32 H32        -1.4718   51.0309   26.5180 H         1 UNK         0.0000 
     33 H33        -0.4956   50.1568   27.6815 H         1 UNK         0.0000 
     34 H34        -0.4667   53.0550   25.4210 H         1 UNK         0.0000 
     35 H35         1.1041   53.6418   25.9265 H         1 UNK         0.0000 
     36 H36         2.2022   51.6969   24.8765 H         1 UNK         0.0000 
     37 H37         1.2387   52.5044   23.7207 H         1 UNK         0.0000 
     38 H38         3.9540   53.3576   29.1092 H         1 UNK         0.0000 
     39 H39        -0.2513   52.0970   32.1628 H         1 UNK         0.0000 
     40 H40         1.3642   52.4990   32.6917 H         1 UNK         0.0000 
     41 H41        -1.2229   51.4210   30.6074 H         1 UNK         0.0000 
     42 H42        -1.3750   51.2209   28.8925 H         1 UNK         0.0000 
@<TRIPOS>BOND
     1    1    6 ar   
     2    1    2 ar   
     3    1   22 1    
     4    2    3 ar   
     5    2   23 1    
     6    3    4 ar   
     7    3   24 1    
     8    4    5 ar   
     9    4    7 1    
    10    5    6 ar   
    11    5   25 1    
    12    6   26 1    
    13    7    8 1    
    14    7   27 1    
    15    7   28 1    
    16    8   13 1    
    17    8    9 1    
    18    8   29 1    
    19    9   10 1    
    20    9   30 1    
    21    9   31 1    
    22   10   11 1    
    23   10   32 1    
    24   10   33 1    
    25   11   12 1    
    26   11   14 1    
    27   12   13 1    
    28   12   34 1    
    29   12   35 1    
    30   13   36 1    
    31   13   37 1    
    32   14   19 ar   
    33   14   15 ar   
    34   15   16 ar   
    35   15   21 1    
    36   16   17 ar   
    37   16   20 1    
    38   17   18 ar   
    39   18   19 ar   
    40   18   38 1    
    41   20   39 1    
    42   20   40 1    
    43   21   41 1    
    44   21   42 1    
@<TRIPOS>SUBSTRUCTURE
     1 UNK         1 GROUP             0       ****    0 ROOT    
