@<TRIPOS>MOLECULE
ZINC52880491_1605
42   43    1
SMALL
USER_CHARGES


@<TRIPOS>ATOM
      1 C1          2.2090   55.1296   28.5535 C.3       1 UNK         0.0000 
      2 C2          2.8913   53.7882   28.1466 C.3       1 UNK         0.0000 
      3 C3          4.1921   54.1429   27.3599 C.ar      1 UNK         0.0000 
      4 C4          5.4683   54.1780   27.9547 C.ar      1 UNK         0.0000 
      5 C5          6.6017   54.4809   27.2044 C.ar      1 UNK         0.0000 
      6 C6          6.4799   54.7640   25.8480 C.ar      1 UNK         0.0000 
      7 C7          5.2307   54.7605   25.2411 C.ar      1 UNK         0.0000 
      8 C8          4.0985   54.4606   25.9926 C.ar      1 UNK         0.0000 
      9 C9          3.2207   52.9513   29.4431 C.2       1 UNK         0.0000 
     10 O10         3.5045   53.5897   30.4817 O.co2     1 UNK         0.0000 
     11 O11         3.2181   51.6972   29.3936 O.co2     1 UNK         0.0000 
     12 N12         2.0082   52.9789   27.2680 N.am      1 UNK         0.0000 
     13 C13         0.7655   52.4941   27.4799 C.2       1 UNK         0.0000 
     14 O14         0.0336   52.8818   28.3937 O.2       1 UNK         0.0000 
     15 N15         0.4389   51.4842   26.6321 N.am      1 UNK         0.0000 
     16 C16         0.7044   51.5568   25.1791 C.3       1 UNK         0.0000 
     17 C17        -0.5729   52.0902   24.4928 C.3       1 UNK         0.0000 
     18 C18        -1.7915   51.1911   24.7852 C.3       1 UNK         0.0000 
     19 C19        -1.9466   50.9019   26.2953 C.3       1 UNK         0.0000 
     20 H20        -2.3541   51.7793   26.8052 H         1 UNK         0.0000 
     21 C21        -0.6226   50.5372   27.0054 C.3       1 UNK         0.0000 
     22 N22        -2.8820   49.6971   26.4821 N.4       1 UNK         0.0000 
     23 H23         2.8875   55.7752   29.1147 H         1 UNK         0.0000 
     24 H24         1.8870   55.6952   27.6829 H         1 UNK         0.0000 
     25 H25         1.3277   54.9766   29.1777 H         1 UNK         0.0000 
     26 H26         5.6064   53.9730   29.0049 H         1 UNK         0.0000 
     27 H27         7.5698   54.4959   27.6814 H         1 UNK         0.0000 
     28 H28         7.3556   54.9891   25.2578 H         1 UNK         0.0000 
     29 H29         5.1401   54.9879   24.1895 H         1 UNK         0.0000 
     30 H30         3.1388   54.4762   25.4972 H         1 UNK         0.0000 
     31 H31         2.5118   52.5404   26.5128 H         1 UNK         0.0000 
     32 H32         1.6163   52.0996   24.9269 H         1 UNK         0.0000 
     33 H33         0.9096   50.5373   24.8475 H         1 UNK         0.0000 
     34 H34        -0.7689   53.1145   24.8142 H         1 UNK         0.0000 
     35 H35        -0.4092   52.1462   23.4156 H         1 UNK         0.0000 
     36 H36        -2.7186   51.5703   24.3514 H         1 UNK         0.0000 
     37 H37        -1.6067   50.2481   24.2659 H         1 UNK         0.0000 
     38 H38        -0.2860   49.5429   26.7068 H         1 UNK         0.0000 
     39 H39        -0.7327   50.4880   28.0908 H         1 UNK         0.0000 
     40 H40        -2.6896   48.9944   25.7858 H         1 UNK         0.0000 
     41 H41        -2.6707   49.2673   27.3860 H         1 UNK         0.0000 
     42 H42        -3.8555   49.9586   26.4432 H         1 UNK         0.0000 
@<TRIPOS>BOND
     1    1    2 1    
     2    1   23 1    
     3    1   24 1    
     4    1   25 1    
     5    2    3 1    
     6    2    9 1    
     7    2   12 1    
     8    3    8 ar   
     9    3    4 ar   
    10    4    5 ar   
    11    4   26 1    
    12    5    6 ar   
    13    5   27 1    
    14    6    7 ar   
    15    6   28 1    
    16    7    8 ar   
    17    7   29 1    
    18    8   30 1    
    19    9   10 2    
    20    9   11 1    
    21   12   13 am   BACKBONE|DICT|INTERRES
    22   12   31 1    
    23   13   14 2    
    24   13   15 am   BACKBONE|DICT|INTERRES
    25   15   21 1    
    26   15   16 1    
    27   16   17 1    
    28   16   32 1    
    29   16   33 1    
    30   17   18 1    
    31   17   34 1    
    32   17   35 1    
    33   18   19 1    
    34   18   36 1    
    35   18   37 1    
    36   19   20 1    
    37   19   21 1    
    38   19   22 1    
    39   21   38 1    
    40   21   39 1    
    41   22   40 1    
    42   22   41 1    
    43   22   42 1    
@<TRIPOS>SUBSTRUCTURE
     1 UNK         1 GROUP             0       ****    0 ROOT    
