ZINC36836440_1536
                    3D
 Schrodinger Suite 2024-2.
 50 52  0  0  1  0            999 V2000
    8.0415   57.2740   18.7078 C   0  0  0  0  0  0
    8.1526   56.5968   17.3254 C   0  0  1  0  0  0
    8.2586   57.4106   16.6044 H   0  0  0  0  0  0
    9.4882   55.8134   17.1952 C   0  0  0  0  0  0
    9.7429   55.3237   15.7543 C   0  0  0  0  0  0
    8.5618   54.5071   15.1961 C   0  0  0  0  0  0
    7.2217   55.2611   15.3514 C   0  0  0  0  0  0
    6.9247   55.7734   16.7942 C   0  0  1  0  0  0
    6.5856   54.5992   17.7229 C   0  0  0  0  0  0
    7.3452   53.6969   18.0797 O   0  0  0  0  0  0
    5.2921   54.7672   18.0778 N   0  0  0  0  0  0
    4.7046   55.8570   17.5299 C   0  0  0  0  0  0
    3.5043   56.1084   17.4603 O   0  0  0  0  0  0
    5.6829   56.4976   16.8865 N   0  0  0  0  0  0
    4.6239   53.9697   19.1284 C   0  0  0  0  0  0
    5.0146   54.4138   20.5529 C   0  0  0  0  0  0
    5.9110   55.2373   20.7510 O   0  0  0  0  0  0
    4.2716   53.8584   21.5293 N   0  0  0  0  0  0
    4.4256   54.0159   22.9151 C   0  0  0  0  0  0
    5.6683   54.2404   23.5248 C   0  0  0  0  0  0
    5.7484   54.3712   24.9058 C   0  0  0  0  0  0
    4.5924   54.2705   25.6821 C   0  0  0  0  0  0
    3.3554   54.0330   25.0816 C   0  0  0  0  0  0
    3.2746   53.8970   23.6978 C   0  0  0  0  0  0
    4.7123   54.4853   27.4515 S   0  0  0  0  0  0
    3.3949   54.8965   27.9479 O   0  0  0  0  0  0
    5.9083   55.2952   27.6818 O   0  0  0  0  0  0
    5.0761   52.7984   28.1384 C   0  0  0  0  0  0
    8.0234   56.5353   19.5106 H   0  0  0  0  0  0
    8.8914   57.9348   18.8817 H   0  0  0  0  0  0
    7.1378   57.8794   18.7899 H   0  0  0  0  0  0
   10.3163   56.4667   17.4762 H   0  0  0  0  0  0
    9.5385   54.9945   17.9141 H   0  0  0  0  0  0
    9.9225   56.1832   15.1065 H   0  0  0  0  0  0
   10.6544   54.7253   15.7230 H   0  0  0  0  0  0
    8.7373   54.2737   14.1452 H   0  0  0  0  0  0
    8.5103   53.5453   15.7084 H   0  0  0  0  0  0
    6.4014   54.6245   15.0119 H   0  0  0  0  0  0
    7.1301   56.0901   14.6477 H   0  0  0  0  0  0
    5.6289   57.4773   16.6490 H   0  0  0  0  0  0
    4.9037   52.9211   19.0075 H   0  0  0  0  0  0
    3.5392   54.0133   19.0107 H   0  0  0  0  0  0
    3.4362   53.3759   21.2349 H   0  0  0  0  0  0
    6.5768   54.3093   22.9446 H   0  0  0  0  0  0
    6.7091   54.5503   25.3660 H   0  0  0  0  0  0
    2.4601   53.9562   25.6816 H   0  0  0  0  0  0
    2.3131   53.7145   23.2402 H   0  0  0  0  0  0
    5.1599   52.8813   29.2201 H   0  0  0  0  0  0
    6.0247   52.4879   27.7090 H   0  0  0  0  0  0
    4.2623   52.1264   27.8749 H   0  0  0  0  0  0
  1  2  1  0  0  0
  1 29  1  0  0  0
  1 30  1  0  0  0
  1 31  1  0  0  0
  2  3  1  0  0  0
  2  8  1  0  0  0
  2  4  1  0  0  0
  4  5  1  0  0  0
  4 32  1  0  0  0
  4 33  1  0  0  0
  5  6  1  0  0  0
  5 34  1  0  0  0
  5 35  1  0  0  0
  6  7  1  0  0  0
  6 36  1  0  0  0
  6 37  1  0  0  0
  7  8  1  0  0  0
  7 38  1  0  0  0
  7 39  1  0  0  0
  8 14  1  0  0  0
  8  9  1  0  0  0
  9 10  2  0  0  0
  9 11  1  0  0  0
 11 12  1  0  0  0
 11 15  1  0  0  0
 12 13  2  0  0  0
 12 14  1  0  0  0
 14 40  1  0  0  0
 15 16  1  0  0  0
 15 41  1  0  0  0
 15 42  1  0  0  0
 16 17  2  0  0  0
 16 18  1  0  0  0
 18 19  1  0  0  0
 18 43  1  0  0  0
 19 24  2  0  0  0
 19 20  1  0  0  0
 20 21  2  0  0  0
 20 44  1  0  0  0
 21 22  1  0  0  0
 21 45  1  0  0  0
 22 23  2  0  0  0
 22 25  1  0  0  0
 23 24  1  0  0  0
 23 46  1  0  0  0
 24 47  1  0  0  0
 25 26  2  0  0  0
 25 27  2  0  0  0
 25 28  1  0  0  0
 28 48  1  0  0  0
 28 49  1  0  0  0
 28 50  1  0  0  0
M  END
> <i_i_glide_confnum>
27

> <i_i_glide_lignum>
1537

> <i_i_glide_posenum>
317

> <i_i_glide_rotatable_bonds>
5

> <i_m_Source_File_Index>
541

> <b_m_subgroup_collapsed>
0

> <r_i_docking_score>
-4.53265

> <r_i_glide_ecoul>
-2.4908

> <r_i_glide_eff_state_penalty>
0

> <r_i_glide_einternal>
3.42842

> <r_i_glide_emodel>
-46.3358

> <r_i_glide_energy>
-34.2617

> <r_i_glide_erotb>
0.504751

> <r_i_glide_esite>
-0.00543375

> <r_i_glide_evdw>
-31.7709

> <r_i_glide_gscore>
-4.53265

> <r_i_glide_hbond>
0

> <r_i_glide_ligand_efficiency>
-0.167876

> <r_i_glide_ligand_efficiency_ln>
-1.05513

> <r_i_glide_ligand_efficiency_sa>
-0.503627

> <r_i_glide_lipo>
-1.77931

> <r_i_glide_metal>
0

> <r_i_glide_rewards>
-1.29049

> <s_i_glide_gridfile>
wee1_glide-grid

> <s_m_Source_File>
wee1_decoys_glide_SP.sdf

> <s_m_Source_Path>
/Users/zhangxujun/Desktop

> <s_m_entry_id>
816

> <s_m_entry_name>
wee1_decoys_glide_SP.541

> <s_m_subgroup_title>
wee1_decoys_glide_SP

> <s_m_subgroupid>
wee1_decoys_glide_SP


$$$$
