@<TRIPOS>MOLECULE
ZINC13016794_5930
56   59    1
SMALL
USER_CHARGES


@<TRIPOS>ATOM
      1 C1         -1.9136   46.8625   25.2527 C.3       1 UNK         0.0000 
      2 C2         -1.6256   47.4249   23.8705 C.ar      1 UNK         0.0000 
      3 C3         -2.0450   46.7343   22.7342 C.ar      1 UNK         0.0000 
      4 C4         -1.7745   47.2445   21.4664 C.ar      1 UNK         0.0000 
      5 C5         -1.1076   48.4649   21.3137 C.ar      1 UNK         0.0000 
      6 C6         -0.6891   49.1742   22.4560 C.ar      1 UNK         0.0000 
      7 C7         -0.9411   48.6343   23.7299 C.ar      1 UNK         0.0000 
      8 N8         -0.1359   50.4589   22.2821 N.am      1 UNK         0.0000 
      9 C9          0.6510   51.1600   23.1244 C.2       1 UNK         0.0000 
     10 O10         1.2493   50.6677   24.0794 O.2       1 UNK         0.0000 
     11 C11         0.7139   52.6795   22.8733 C.3       1 UNK         0.0000 
     12 H12         0.0126   52.8965   22.0688 H         1 UNK         0.0000 
     13 C13         0.1380   53.4363   24.0823 C.3       1 UNK         0.0000 
     14 S14         2.2885   53.2497   22.1099 S.3       1 UNK         0.0000 
     15 C15         3.4849   53.6967   23.4194 C.ar      1 UNK         0.0000 
     16 N16         3.0525   53.6946   24.6293 N.2       1 UNK         0.0000 
     17 C17         3.9083   53.8659   25.7189 C.ar      1 UNK         0.0000 
     18 C18         3.3836   53.7412   27.0042 C.ar      1 UNK         0.0000 
     19 C19         4.2315   53.8051   28.1226 C.ar      1 UNK         0.0000 
     20 C20         5.5958   54.0700   27.9273 C.ar      1 UNK         0.0000 
     21 C21         6.1178   54.2177   26.6409 C.ar      1 UNK         0.0000 
     22 C22         5.2667   54.0966   25.5364 C.ar      1 UNK         0.0000 
     23 C23         5.8078   54.1019   24.1220 C.ar      1 UNK         0.0000 
     24 O24         7.0171   54.1841   23.8947 O.2       1 UNK         0.0000 
     25 N25         4.8341   53.9721   23.1370 N.pl3     1 UNK         0.0000 
     26 C26         5.2857   54.1164   21.7775 C.ar      1 UNK         0.0000 
     27 C27         5.9307   55.2959   21.3591 C.ar      1 UNK         0.0000 
     28 C28         6.3173   55.4708   20.0321 C.ar      1 UNK         0.0000 
     29 C29         6.0718   54.4656   19.1059 C.ar      1 UNK         0.0000 
     30 C30         5.4683   53.2777   19.5030 C.ar      1 UNK         0.0000 
     31 C31         5.0987   53.0910   20.8352 C.ar      1 UNK         0.0000 
     32 F32         6.4382   54.6361   17.8158 F         1 UNK         0.0000 
     33 C33         3.7037   53.5511   29.4973 C.2       1 UNK         0.0000 
     34 O34         3.9042   52.4149   29.9891 O.co2     1 UNK         0.0000 
     35 C35        -0.8446   48.9858   19.9046 C.3       1 UNK         0.0000 
     36 H36        -1.2969   47.3327   26.0223 H         1 UNK         0.0000 
     37 H37        -2.9635   46.9960   25.5117 H         1 UNK         0.0000 
     38 H38        -1.6952   45.7961   25.2847 H         1 UNK         0.0000 
     39 H39        -2.5753   45.8011   22.8286 H         1 UNK         0.0000 
     40 H40        -2.0984   46.6893   20.5990 H         1 UNK         0.0000 
     41 H41        -0.6492   49.1676   24.6244 H         1 UNK         0.0000 
     42 H42        -0.3784   50.8975   21.4085 H         1 UNK         0.0000 
     43 H43        -0.9357   53.2769   24.1826 H         1 UNK         0.0000 
     44 H44         0.5892   53.1387   25.0283 H         1 UNK         0.0000 
     45 H45         0.3056   54.4969   23.9646 H         1 UNK         0.0000 
     46 H46         2.3310   53.5307   27.1274 H         1 UNK         0.0000 
     47 H47         6.2644   54.1334   28.7771 H         1 UNK         0.0000 
     48 H48         7.1784   54.3817   26.5142 H         1 UNK         0.0000 
     49 H49         6.1557   56.0834   22.0596 H         1 UNK         0.0000 
     50 H50         6.8026   56.3827   19.7178 H         1 UNK         0.0000 
     51 H51         5.2925   52.4976   18.7758 H         1 UNK         0.0000 
     52 H52         4.6487   52.1520   21.1206 H         1 UNK         0.0000 
     53 H53         0.2055   49.2602   19.7930 H         1 UNK         0.0000 
     54 H54        -1.0619   48.2414   19.1374 H         1 UNK         0.0000 
     55 H55        -1.4430   49.8748   19.7072 H         1 UNK         0.0000 
     56 O56         3.1062   54.4897   30.0751 O.co2     1 UNK         0.0000 
@<TRIPOS>BOND
     1    1    2 1    
     2    1   36 1    
     3    1   37 1    
     4    1   38 1    
     5    2    7 ar   
     6    2    3 ar   
     7    3    4 ar   
     8    3   39 1    
     9    4    5 ar   
    10    4   40 1    
    11    5    6 ar   
    12    5   35 1    
    13    6    7 ar   
    14    6    8 1    
    15    7   41 1    
    16    8    9 am   BACKBONE|DICT|INTERRES
    17    8   42 1    
    18    9   10 2    
    19    9   11 1    
    20   11   12 1    
    21   11   13 1    
    22   11   14 1    
    23   13   43 1    
    24   13   44 1    
    25   13   45 1    
    26   14   15 1    
    27   15   25 ar   
    28   15   16 ar   
    29   16   17 ar   
    30   17   22 ar   
    31   17   18 ar   
    32   18   19 ar   
    33   18   46 1    
    34   19   20 ar   
    35   19   33 1    
    36   20   21 ar   
    37   20   47 1    
    38   21   22 ar   
    39   21   48 1    
    40   22   23 ar   
    41   23   24 2    
    42   23   25 ar   
    43   25   26 1    
    44   26   31 ar   
    45   26   27 ar   
    46   27   28 ar   
    47   27   49 1    
    48   28   29 ar   
    49   28   50 1    
    50   29   30 ar   
    51   29   32 1    
    52   30   31 ar   
    53   30   51 1    
    54   31   52 1    
    55   33   34 2    
    56   33   56 1    
    57   35   53 1    
    58   35   54 1    
    59   35   55 1    
@<TRIPOS>SUBSTRUCTURE
     1 UNK         1 GROUP             0       ****    0 ROOT    
