@<TRIPOS>MOLECULE
ZINC39856231_2374
59   61    1
SMALL
USER_CHARGES


@<TRIPOS>ATOM
      1 C1          5.9032   55.4598   18.0908 C.3       1 UNK         0.0000 
      2 C2          6.0586   55.3208   19.5939 C.ar      1 UNK         0.0000 
      3 C3          7.1937   55.8068   20.2340 C.ar      1 UNK         0.0000 
      4 C4          7.3115   55.6967   21.6150 C.ar      1 UNK         0.0000 
      5 C5          6.3077   55.0967   22.3889 C.ar      1 UNK         0.0000 
      6 C6          5.1551   54.5786   21.7448 C.ar      1 UNK         0.0000 
      7 C7          5.0510   54.7210   20.3472 C.ar      1 UNK         0.0000 
      8 O8          4.1307   54.0141   22.4990 O.3       1 UNK         0.0000 
      9 C9          3.3993   52.9203   22.0817 C.2       1 UNK         0.0000 
     10 O10         3.5872   52.2891   21.0407 O.2       1 UNK         0.0000 
     11 C11         2.4151   52.4969   23.0874 C.2       1 UNK         0.0000 
     12 C12         1.6300   51.3301   23.1690 C.2       1 UNK         0.0000 
     13 C13         1.0898   51.3466   24.4750 C.2       1 UNK         0.0000 
     14 C14         1.5051   52.5311   25.0692 C.2       1 UNK         0.0000 
     15 O15         2.3031   53.2298   24.2297 O.3       1 UNK         0.0000 
     16 C16         1.2498   52.9936   26.4929 C.3       1 UNK         0.0000 
     17 C17         0.0462   52.1801   27.0771 C.3       1 UNK         0.0000 
     18 C18         0.2790   50.6668   26.7686 C.3       1 UNK         0.0000 
     19 C19         0.2999   50.3520   25.2363 C.2       1 UNK         0.0000 
     20 N20        -0.2486   49.3752   24.6188 N.2       1 UNK         0.0000 
     21 N21        -0.9139   48.5146   25.4250 N.pl3     1 UNK         0.0000 
     22 C22        -1.7628   47.5235   25.0356 C.2       1 UNK         0.0000 
     23 S23        -2.1576   47.0705   23.4816 S.2       1 UNK         0.0000 
     24 N24        -2.3409   46.8973   26.0817 N.pl3     1 UNK         0.0000 
     25 C25         0.0603   52.3524   28.6126 C.3       1 UNK         0.0000 
     26 C26        -1.3213   52.6099   26.4667 C.3       1 UNK         0.0000 
     27 C27         1.4305   50.2607   22.1097 C.3       1 UNK         0.0000 
     28 C28         6.5863   54.9674   23.9019 C.3       1 UNK         0.0000 
     29 C29         5.5171   55.5182   24.8745 C.3       1 UNK         0.0000 
     30 C30         6.9258   53.5218   24.2244 C.3       1 UNK         0.0000 
     31 H31         4.8889   55.7767   17.8429 H         1 UNK         0.0000 
     32 H32         6.5798   56.2102   17.6800 H         1 UNK         0.0000 
     33 H33         6.0848   54.5039   17.5980 H         1 UNK         0.0000 
     34 H34         7.9896   56.2662   19.6650 H         1 UNK         0.0000 
     35 H35         8.2109   56.0726   22.0823 H         1 UNK         0.0000 
     36 H36         4.1635   54.3799   19.8340 H         1 UNK         0.0000 
     37 H37         2.1573   52.7686   27.0558 H         1 UNK         0.0000 
     38 H38         1.1044   54.0684   26.5673 H         1 UNK         0.0000 
     39 H39         1.2182   50.3262   27.2060 H         1 UNK         0.0000 
     40 H40        -0.4957   50.0967   27.2790 H         1 UNK         0.0000 
     41 H41        -0.8301   48.7050   26.4155 H         1 UNK         0.0000 
     42 H42        -2.0955   47.2000   27.0270 H         1 UNK         0.0000 
     43 H43        -3.1269   46.2863   25.9333 H         1 UNK         0.0000 
     44 H44        -0.7501   51.7933   29.0822 H         1 UNK         0.0000 
     45 H45         0.9926   52.0012   29.0568 H         1 UNK         0.0000 
     46 H46        -0.0639   53.3983   28.8955 H         1 UNK         0.0000 
     47 H47        -2.0929   51.8658   26.6728 H         1 UNK         0.0000 
     48 H48        -1.6953   53.5437   26.8817 H         1 UNK         0.0000 
     49 H49        -1.2801   52.7357   25.3845 H         1 UNK         0.0000 
     50 H50         0.3773   49.9930   22.0216 H         1 UNK         0.0000 
     51 H51         1.7432   50.5644   21.1113 H         1 UNK         0.0000 
     52 H52         1.9488   49.3368   22.3727 H         1 UNK         0.0000 
     53 H53         7.4874   55.5411   24.1292 H         1 UNK         0.0000 
     54 H54         5.5073   56.6056   24.8816 H         1 UNK         0.0000 
     55 H55         4.5118   55.1635   24.6564 H         1 UNK         0.0000 
     56 H56         5.7359   55.2238   25.9016 H         1 UNK         0.0000 
     57 H57         7.8115   53.1878   23.6812 H         1 UNK         0.0000 
     58 H58         7.1046   53.3662   25.2886 H         1 UNK         0.0000 
     59 H59         6.0856   52.8967   23.9288 H         1 UNK         0.0000 
@<TRIPOS>BOND
     1    1    2 1    
     2    1   31 1    
     3    1   32 1    
     4    1   33 1    
     5    2    7 ar   
     6    2    3 ar   
     7    3    4 ar   
     8    3   34 1    
     9    4    5 ar   
    10    4   35 1    
    11    5    6 ar   
    12    5   28 1    
    13    6    7 ar   
    14    6    8 1    
    15    7   36 1    
    16    8    9 1    
    17    9   10 2    
    18    9   11 1    
    19   11   15 1    
    20   11   12 2    
    21   12   13 1    
    22   12   27 1    
    23   13   19 1    
    24   13   14 2    
    25   14   15 1    
    26   14   16 1    
    27   16   17 1    
    28   16   37 1    
    29   16   38 1    
    30   17   18 1    
    31   17   25 1    
    32   17   26 1    
    33   18   19 1    
    34   18   39 1    
    35   18   40 1    
    36   19   20 2    
    37   20   21 1    
    38   21   22 1    
    39   21   41 1    
    40   22   23 2    
    41   22   24 1    
    42   24   42 1    
    43   24   43 1    
    44   25   44 1    
    45   25   45 1    
    46   25   46 1    
    47   26   47 1    
    48   26   48 1    
    49   26   49 1    
    50   27   50 1    
    51   27   51 1    
    52   27   52 1    
    53   28   29 1    
    54   28   30 1    
    55   28   53 1    
    56   29   54 1    
    57   29   55 1    
    58   29   56 1    
    59   30   57 1    
    60   30   58 1    
    61   30   59 1    
@<TRIPOS>SUBSTRUCTURE
     1 UNK         1 GROUP             0       ****    0 ROOT    
