@<TRIPOS>MOLECULE
ZINC51070949_6169
40   42    1
SMALL
USER_CHARGES


@<TRIPOS>ATOM
      1 C1          0.2624   51.9550   28.4777 C.ar      1 UNK         0.0000 
      2 C2          1.5596   52.2407   28.0444 C.ar      1 UNK         0.0000 
      3 C3          2.4991   52.6948   28.9826 C.ar      1 UNK         0.0000 
      4 N4          2.1947   52.8029   30.3067 N.ar      1 UNK         0.0000 
      5 C5          0.9420   52.4967   30.7136 C.ar      1 UNK         0.0000 
      6 C6         -0.0589   52.0967   29.8291 C.ar      1 UNK         0.0000 
      7 N7          0.7044   52.4967   32.0817 N.pl3     1 UNK         0.0000 
      8 C8          3.9257   53.0467   28.6265 C.2       1 UNK         0.0000 
      9 O9          4.8144   52.5034   29.2817 O.2       1 UNK         0.0000 
     10 N10         4.1934   54.0003   27.6871 N.am      1 UNK         0.0000 
     11 C11         5.5759   54.4967   27.4926 C.3       1 UNK         0.0000 
     12 C12         6.0496   54.0967   26.0790 C.3       1 UNK         0.0000 
     13 C13         5.0638   54.4967   24.9542 C.3       1 UNK         0.0000 
     14 H14         4.9997   55.5850   24.9078 H         1 UNK         0.0000 
     15 C15         5.5246   53.9642   23.5691 C.3       1 UNK         0.0000 
     16 C16         4.4819   54.1159   22.4345 C.3       1 UNK         0.0000 
     17 C17         3.0576   53.6962   22.8564 C.3       1 UNK         0.0000 
     18 C18         2.6490   54.3433   24.1906 C.3       1 UNK         0.0000 
     19 C19         3.6445   53.9765   25.3085 C.3       1 UNK         0.0000 
     20 H20         3.6808   52.8967   25.3631 H         1 UNK         0.0000 
     21 C21         3.2177   54.4987   26.7015 C.3       1 UNK         0.0000 
     22 H22        -0.4807   51.5968   27.7797 H         1 UNK         0.0000 
     23 H23         1.8214   52.1049   27.0049 H         1 UNK         0.0000 
     24 H24        -1.0422   51.8306   30.1898 H         1 UNK         0.0000 
     25 H25        -0.2145   52.1781   32.4277 H         1 UNK         0.0000 
     26 H26         1.4823   52.5523   32.7224 H         1 UNK         0.0000 
     27 H27         5.5390   55.5829   27.5619 H         1 UNK         0.0000 
     28 H28         6.2660   54.1762   28.2759 H         1 UNK         0.0000 
     29 H29         7.0451   54.4893   25.8704 H         1 UNK         0.0000 
     30 H30         6.1826   53.0157   26.0817 H         1 UNK         0.0000 
     31 H31         6.4943   54.3815   23.2936 H         1 UNK         0.0000 
     32 H32         5.7080   52.8967   23.6662 H         1 UNK         0.0000 
     33 H33         4.7939   53.5276   21.5703 H         1 UNK         0.0000 
     34 H34         4.4610   55.1466   22.0817 H         1 UNK         0.0000 
     35 H35         3.0068   52.6099   22.9439 H         1 UNK         0.0000 
     36 H36         2.3433   53.9713   22.0798 H         1 UNK         0.0000 
     37 H37         1.6474   54.0126   24.4694 H         1 UNK         0.0000 
     38 H38         2.5626   55.4216   24.0838 H         1 UNK         0.0000 
     39 H39         2.1750   54.3333   26.9612 H         1 UNK         0.0000 
     40 H40         3.2767   55.5850   26.7021 H         1 UNK         0.0000 
@<TRIPOS>BOND
     1    1    6 ar   
     2    1    2 ar   
     3    1   22 1    
     4    2    3 ar   
     5    2   23 1    
     6    3    4 ar   
     7    3    8 1    
     8    4    5 ar   
     9    5    6 ar   
    10    5    7 1    
    11    6   24 1    
    12    7   25 1    
    13    7   26 1    
    14    8    9 2    
    15    8   10 am   BACKBONE|DICT|INTERRES
    16   10   21 1    
    17   10   11 1    
    18   11   12 1    
    19   11   27 1    
    20   11   28 1    
    21   12   13 1    
    22   12   29 1    
    23   12   30 1    
    24   13   14 1    
    25   13   19 1    
    26   13   15 1    
    27   15   16 1    
    28   15   31 1    
    29   15   32 1    
    30   16   17 1    
    31   16   33 1    
    32   16   34 1    
    33   17   18 1    
    34   17   35 1    
    35   17   36 1    
    36   18   19 1    
    37   18   37 1    
    38   18   38 1    
    39   19   20 1    
    40   19   21 1    
    41   21   39 1    
    42   21   40 1    
@<TRIPOS>SUBSTRUCTURE
     1 UNK         1 GROUP             0       ****    0 ROOT    
