@<TRIPOS>MOLECULE
ZINC13124143_2690
50   53    1
SMALL
USER_CHARGES


@<TRIPOS>ATOM
      1 C1          4.4699   54.2713   26.2051 C.3       1 UNK         0.0000 
      2 C2          5.1655   53.5260   27.3578 C.3       1 UNK         0.0000 
      3 C3          4.4104   53.5207   28.7068 C.3       1 UNK         0.0000 
      4 H4          4.9115   52.7722   29.3279 H         1 UNK         0.0000 
      5 C5          4.5012   54.8657   29.4413 C.3       1 UNK         0.0000 
      6 N6          3.0163   53.1126   28.5585 N.am      1 UNK         0.0000 
      7 C7          2.2102   52.6012   29.5040 C.2       1 UNK         0.0000 
      8 O8          2.5584   52.3861   30.6658 O.2       1 UNK         0.0000 
      9 C9          0.8790   52.3064   29.0343 C.ar      1 UNK         0.0000 
     10 C10        -0.2617   52.0625   29.8081 C.ar      1 UNK         0.0000 
     11 N11        -1.2957   51.6967   29.0874 N.2       1 UNK         0.0000 
     12 N12        -0.8930   51.7199   27.8055 N.pl3     1 UNK         0.0000 
     13 C13         0.4520   52.0319   27.7363 C.ar      1 UNK         0.0000 
     14 N14         1.1046   52.0774   26.5227 N.pl3     1 UNK         0.0000 
     15 C15         0.5016   51.3922   25.3796 C.3       1 UNK         0.0000 
     16 H16         0.7246   50.3297   25.4937 H         1 UNK         0.0000 
     17 C17        -1.0275   51.5821   25.3678 C.3       1 UNK         0.0000 
     18 C18        -1.7162   51.1867   26.7028 C.3       1 UNK         0.0000 
     19 H19        -1.6776   50.0993   26.8021 H         1 UNK         0.0000 
     20 C20        -3.2162   51.5826   26.7186 C.3       1 UNK         0.0000 
     21 F21        -3.8715   50.9369   25.7538 F         1 UNK         0.0000 
     22 F22        -3.8301   51.2966   27.8663 F         1 UNK         0.0000 
     23 F23        -3.3836   52.8851   26.4819 F         1 UNK         0.0000 
     24 C24         1.1574   51.8190   24.0682 C.ar      1 UNK         0.0000 
     25 C25         1.3592   53.1892   23.7950 C.ar      1 UNK         0.0000 
     26 C26         2.0545   53.6036   22.6542 C.ar      1 UNK         0.0000 
     27 C27         2.5130   52.6179   21.7904 C.ar      1 UNK         0.0000 
     28 C28         2.3048   51.2893   22.0325 C.ar      1 UNK         0.0000 
     29 C29         1.6274   50.8476   23.1648 C.ar      1 UNK         0.0000 
     30 O30         2.9129   50.5593   21.0598 O.3       1 UNK         0.0000 
     31 C31         3.2966   51.4891   20.0782 C.3       1 UNK         0.0000 
     32 O32         3.2451   52.7640   20.6572 O.3       1 UNK         0.0000 
     33 H33         5.1057   54.2953   25.3195 H         1 UNK         0.0000 
     34 H34         4.2435   55.2980   26.4793 H         1 UNK         0.0000 
     35 H35         3.5350   53.7912   25.9184 H         1 UNK         0.0000 
     36 H36         5.3235   52.4968   27.0412 H         1 UNK         0.0000 
     37 H37         6.1668   53.9346   27.5028 H         1 UNK         0.0000 
     38 H38         5.5162   55.2582   29.4417 H         1 UNK         0.0000 
     39 H39         3.8538   55.6186   28.9937 H         1 UNK         0.0000 
     40 H40         4.2177   54.7337   30.4812 H         1 UNK         0.0000 
     41 H41         2.6018   53.2947   27.6557 H         1 UNK         0.0000 
     42 H42        -0.3274   52.1072   30.8885 H         1 UNK         0.0000 
     43 H43         2.0973   51.8951   26.5363 H         1 UNK         0.0000 
     44 H44        -1.4705   51.0139   24.5484 H         1 UNK         0.0000 
     45 H45        -1.2585   52.6211   25.1281 H         1 UNK         0.0000 
     46 H46         1.0027   53.9372   24.4884 H         1 UNK         0.0000 
     47 H47         2.2311   54.6504   22.4592 H         1 UNK         0.0000 
     48 H48         1.5077   49.7920   23.3634 H         1 UNK         0.0000 
     49 H49         2.5989   51.4384   19.2403 H         1 UNK         0.0000 
     50 H50         4.3018   51.2961   19.7058 H         1 UNK         0.0000 
@<TRIPOS>BOND
     1    1    2 1    
     2    1   33 1    
     3    1   34 1    
     4    1   35 1    
     5    2    3 1    
     6    2   36 1    
     7    2   37 1    
     8    3    4 1    
     9    3    5 1    
    10    3    6 1    
    11    5   38 1    
    12    5   39 1    
    13    5   40 1    
    14    6    7 am   BACKBONE|DICT|INTERRES
    15    6   41 1    
    16    7    8 2    
    17    7    9 1    
    18    9   13 ar   
    19    9   10 ar   
    20   10   11 ar   
    21   10   42 1    
    22   11   12 ar   
    23   12   18 1    
    24   12   13 ar   
    25   13   14 1    
    26   14   15 1    
    27   14   43 1    
    28   15   16 1    
    29   15   17 1    
    30   15   24 1    
    31   17   18 1    
    32   17   44 1    
    33   17   45 1    
    34   18   19 1    
    35   18   20 1    
    36   20   21 1    
    37   20   22 1    
    38   20   23 1    
    39   24   29 ar   
    40   24   25 ar   
    41   25   26 ar   
    42   25   46 1    
    43   26   27 ar   
    44   26   47 1    
    45   27   32 1    
    46   27   28 ar   
    47   28   29 ar   
    48   28   30 1    
    49   29   48 1    
    50   30   31 1    
    51   31   32 1    
    52   31   49 1    
    53   31   50 1    
@<TRIPOS>SUBSTRUCTURE
     1 UNK         1 GROUP             0       ****    0 ROOT    
