@<TRIPOS>MOLECULE
ZINC09237795_2035
49   52    1
SMALL
USER_CHARGES


@<TRIPOS>ATOM
      1 C1          2.8857   54.4377   28.2687 C.3       1 UNK         0.0000 
      2 C2          3.9676   54.4089   27.2058 C.ar      1 UNK         0.0000 
      3 C3          5.3121   54.4947   27.5739 C.ar      1 UNK         0.0000 
      4 C4          6.3062   54.4955   26.5978 C.ar      1 UNK         0.0000 
      5 C5          5.9623   54.4133   25.2478 C.ar      1 UNK         0.0000 
      6 C6          4.6131   54.3098   24.8681 C.ar      1 UNK         0.0000 
      7 C7          3.6234   54.3195   25.8533 C.ar      1 UNK         0.0000 
      8 N8          4.1861   54.2327   23.5293 N.am      1 UNK         0.0000 
      9 C9          4.8521   53.6969   22.4840 C.2       1 UNK         0.0000 
     10 O10         5.9042   53.0736   22.6066 O.2       1 UNK         0.0000 
     11 C11         4.1955   53.8281   21.0894 C.3       1 UNK         0.0000 
     12 H12         3.4521   54.6193   21.1568 H         1 UNK         0.0000 
     13 C13         3.5653   52.4730   20.6183 C.3       1 UNK         0.0000 
     14 H14         4.3834   51.7556   20.5156 H         1 UNK         0.0000 
     15 N15         2.9474   52.5991   19.3004 N.3       1 UNK         0.0000 
     16 N16         3.7904   53.1221   18.3226 N.pl3     1 UNK         0.0000 
     17 C17         3.6751   52.9368   16.9642 C.ar      1 UNK         0.0000 
     18 N18         4.6174   53.5826   16.3239 N.2       1 UNK         0.0000 
     19 N19         5.3962   54.2207   17.2831 N.2       1 UNK         0.0000 
     20 C20         4.8908   53.9392   18.4610 C.ar      1 UNK         0.0000 
     21 S21         5.5041   54.5144   20.0066 S.3       1 UNK         0.0000 
     22 C22         2.6111   52.0887   16.3028 C.3       1 UNK         0.0000 
     23 C23         2.5683   51.8641   21.6115 C.ar      1 UNK         0.0000 
     24 C24         2.6447   50.5064   21.9279 C.ar      1 UNK         0.0000 
     25 C25         1.7915   49.9567   22.8835 C.ar      1 UNK         0.0000 
     26 C26         0.8483   50.7549   23.5517 C.ar      1 UNK         0.0000 
     27 C27         0.7520   52.1087   23.2041 C.ar      1 UNK         0.0000 
     28 C28         1.5888   52.6505   22.2282 C.ar      1 UNK         0.0000 
     29 Br29       -0.4934   53.2548   24.0811 Br        1 UNK         0.0000 
     30 O30         0.0045   50.2917   24.5470 O.3       1 UNK         0.0000 
     31 C31         0.1501   48.9599   25.0346 C.3       1 UNK         0.0000 
     32 H32         3.1511   55.1346   29.0654 H         1 UNK         0.0000 
     33 H33         2.7566   53.4463   28.7065 H         1 UNK         0.0000 
     34 H34         1.9322   54.7765   27.8590 H         1 UNK         0.0000 
     35 H35         5.5932   54.5660   28.6159 H         1 UNK         0.0000 
     36 H36         7.3431   54.5588   26.8920 H         1 UNK         0.0000 
     37 H37         6.7508   54.4291   24.5105 H         1 UNK         0.0000 
     38 H38         2.5823   54.2432   25.5737 H         1 UNK         0.0000 
     39 H39         3.2501   54.5646   23.3601 H         1 UNK         0.0000 
     40 H40         2.7181   51.6629   18.9977 H         1 UNK         0.0000 
     41 H41         2.6779   52.1216   15.2135 H         1 UNK         0.0000 
     42 H42         2.7046   51.0398   16.5927 H         1 UNK         0.0000 
     43 H43         1.6062   52.4145   16.5738 H         1 UNK         0.0000 
     44 H44         3.3763   49.8783   21.4431 H         1 UNK         0.0000 
     45 H45         1.8927   48.9075   23.1115 H         1 UNK         0.0000 
     46 H46         1.4936   53.6965   21.9740 H         1 UNK         0.0000 
     47 H47        -0.5925   48.7782   25.8121 H         1 UNK         0.0000 
     48 H48        -0.0095   48.2181   24.2516 H         1 UNK         0.0000 
     49 H49         1.1313   48.8015   25.4817 H         1 UNK         0.0000 
@<TRIPOS>BOND
     1    1    2 1    
     2    1   32 1    
     3    1   33 1    
     4    1   34 1    
     5    2    7 ar   
     6    2    3 ar   
     7    3    4 ar   
     8    3   35 1    
     9    4    5 ar   
    10    4   36 1    
    11    5    6 ar   
    12    5   37 1    
    13    6    7 ar   
    14    6    8 1    
    15    7   38 1    
    16    8    9 am   BACKBONE|DICT|INTERRES
    17    8   39 1    
    18    9   10 2    
    19    9   11 1    
    20   11   12 1    
    21   11   21 1    
    22   11   13 1    
    23   13   14 1    
    24   13   15 1    
    25   13   23 1    
    26   15   16 1    
    27   15   40 1    
    28   16   20 ar   
    29   16   17 ar   
    30   17   18 ar   
    31   17   22 1    
    32   18   19 ar   
    33   19   20 ar   
    34   20   21 1    
    35   22   41 1    
    36   22   42 1    
    37   22   43 1    
    38   23   28 ar   
    39   23   24 ar   
    40   24   25 ar   
    41   24   44 1    
    42   25   26 ar   
    43   25   45 1    
    44   26   27 ar   
    45   26   30 1    
    46   27   28 ar   
    47   27   29 1    
    48   28   46 1    
    49   30   31 1    
    50   31   47 1    
    51   31   48 1    
    52   31   49 1    
@<TRIPOS>SUBSTRUCTURE
     1 UNK         1 GROUP             0       ****    0 ROOT    
