@<TRIPOS>MOLECULE
ZINC08833006_5126
50   52    1
SMALL
USER_CHARGES


@<TRIPOS>ATOM
      1 C1          2.6352   53.6061   22.7971 C.ar      1 UNK         0.0000 
      2 C2          2.6144   53.7563   24.1841 C.ar      1 UNK         0.0000 
      3 C3          3.7722   54.0725   24.9215 C.ar      1 UNK         0.0000 
      4 C4          4.9610   54.2853   24.1810 C.ar      1 UNK         0.0000 
      5 C5          4.9779   54.0964   22.7946 C.ar      1 UNK         0.0000 
      6 C6          3.8285   53.7613   22.0815 C.ar      1 UNK         0.0000 
      7 C7          3.9039   53.6287   20.5749 C.2       1 UNK         0.0000 
      8 O8          4.8384   54.1531   19.9601 O.2       1 UNK         0.0000 
      9 N9          2.9223   52.8948   19.9970 N.am      1 UNK         0.0000 
     10 C10         2.5491   52.7704   18.6856 C.2       1 UNK         0.0000 
     11 S11         1.1366   51.9302   18.3955 S.2       1 UNK         0.0000 
     12 N12         3.3337   53.3685   17.7316 N.pl3     1 UNK         0.0000 
     13 C13         3.1993   53.4356   16.3339 C.ar      1 UNK         0.0000 
     14 C14         3.1093   52.2569   15.5828 C.ar      1 UNK         0.0000 
     15 C15         3.0353   52.3070   14.1936 C.ar      1 UNK         0.0000 
     16 C16         3.0590   53.5389   13.5417 C.ar      1 UNK         0.0000 
     17 C17         3.1548   54.7185   14.2811 C.ar      1 UNK         0.0000 
     18 C18         3.2280   54.6862   15.6823 C.ar      1 UNK         0.0000 
     19 C19         3.3177   55.9986   16.4738 C.3       1 UNK         0.0000 
     20 F20         3.3299   57.0744   15.6858 F         1 UNK         0.0000 
     21 F21         2.2616   56.0952   17.2805 F         1 UNK         0.0000 
     22 F22         4.4281   56.0164   17.2130 F         1 UNK         0.0000 
     23 Cl23        2.9717   53.6046   11.8195 Cl        1 UNK         0.0000 
     24 N24         6.2221   54.7289   24.7925 N.pl3     1 UNK         0.0000 
     25 O25         6.2193   55.6963   25.5465 O.co2     1 UNK         0.0000 
     26 O26         7.2250   54.1012   24.4834 O.co2     1 UNK         0.0000 
     27 N27         3.7245   54.1432   26.3255 N.pl3     1 UNK         0.0000 
     28 C28         4.7808   53.5136   27.1493 C.3       1 UNK         0.0000 
     29 C29         5.0029   54.2659   28.4694 C.3       1 UNK         0.0000 
     30 C30         3.7290   54.2266   29.3181 C.3       1 UNK         0.0000 
     31 C31         2.5247   54.6837   28.4831 C.3       1 UNK         0.0000 
     32 C32         2.4640   54.0102   27.0920 C.3       1 UNK         0.0000 
     33 H33         1.7087   53.3703   22.2937 H         1 UNK         0.0000 
     34 H34         1.6696   53.5849   24.6742 H         1 UNK         0.0000 
     35 H35         5.9068   54.2539   22.2607 H         1 UNK         0.0000 
     36 H36         2.2854   52.4611   20.6444 H         1 UNK         0.0000 
     37 H37         4.0908   53.9320   18.0974 H         1 UNK         0.0000 
     38 H38         3.1022   51.2977   16.0800 H         1 UNK         0.0000 
     39 H39         2.9673   51.3887   13.6274 H         1 UNK         0.0000 
     40 H40         3.1733   55.6607   13.7509 H         1 UNK         0.0000 
     41 H41         5.7368   53.3782   26.6543 H         1 UNK         0.0000 
     42 H42         4.4578   52.4984   27.3694 H         1 UNK         0.0000 
     43 H43         5.2999   55.2959   28.2635 H         1 UNK         0.0000 
     44 H44         5.8361   53.8188   29.0108 H         1 UNK         0.0000 
     45 H45         3.5627   53.2108   29.6816 H         1 UNK         0.0000 
     46 H46         3.8435   54.8610   30.1943 H         1 UNK         0.0000 
     47 H47         1.6060   54.4600   29.0265 H         1 UNK         0.0000 
     48 H48         2.5205   55.7653   28.3630 H         1 UNK         0.0000 
     49 H49         1.6520   54.4963   26.5562 H         1 UNK         0.0000 
     50 H50         2.1916   52.9561   27.1755 H         1 UNK         0.0000 
@<TRIPOS>BOND
     1    1    6 ar   
     2    1    2 ar   
     3    1   33 1    
     4    2    3 ar   
     5    2   34 1    
     6    3    4 ar   
     7    3   27 1    
     8    4    5 ar   
     9    4   24 1    
    10    5    6 ar   
    11    5   35 1    
    12    6    7 1    
    13    7    8 2    
    14    7    9 am   BACKBONE|DICT|INTERRES
    15    9   10 am   BACKBONE|DICT|INTERRES
    16    9   36 1    
    17   10   11 2    
    18   10   12 1    
    19   12   13 1    
    20   12   37 1    
    21   13   18 ar   
    22   13   14 ar   
    23   14   15 ar   
    24   14   38 1    
    25   15   16 ar   
    26   15   39 1    
    27   16   17 ar   
    28   16   23 1    
    29   17   18 ar   
    30   17   40 1    
    31   18   19 1    
    32   19   20 1    
    33   19   21 1    
    34   19   22 1    
    35   24   25 2    
    36   24   26 1    
    37   27   32 1    
    38   27   28 1    
    39   28   29 1    
    40   28   41 1    
    41   28   42 1    
    42   29   30 1    
    43   29   43 1    
    44   29   44 1    
    45   30   31 1    
    46   30   45 1    
    47   30   46 1    
    48   31   32 1    
    49   31   47 1    
    50   31   48 1    
    51   32   49 1    
    52   32   50 1    
@<TRIPOS>SUBSTRUCTURE
     1 UNK         1 GROUP             0       ****    0 ROOT    
