@<TRIPOS>MOLECULE
ZINC16741976_4177
63   66    1
SMALL
USER_CHARGES


@<TRIPOS>ATOM
      1 C1          0.9674   54.4891   28.2818 C.3       1 UNK         0.0000 
      2 C2          2.1506   53.7774   28.9069 C.ar      1 UNK         0.0000 
      3 C3          1.9510   52.9812   30.0372 C.ar      1 UNK         0.0000 
      4 C4          3.0185   52.2925   30.6024 C.ar      1 UNK         0.0000 
      5 C5          4.2873   52.3912   30.0371 C.ar      1 UNK         0.0000 
      6 C6          4.5149   53.2211   28.9351 C.ar      1 UNK         0.0000 
      7 C7          3.4358   53.9043   28.3547 C.ar      1 UNK         0.0000 
      8 O8          3.6371   54.6842   27.2399 O.3       1 UNK         0.0000 
      9 C9          3.4587   53.9912   26.0039 C.3       1 UNK         0.0000 
     10 C10         4.5078   54.4340   24.9741 C.2       1 UNK         0.0000 
     11 O11         5.4357   55.1847   25.2796 O.2       1 UNK         0.0000 
     12 N12         4.2829   53.9313   23.7453 N.am      1 UNK         0.0000 
     13 C13         4.9798   54.1104   22.5548 C.2       1 UNK         0.0000 
     14 C14         4.5533   53.6618   21.2877 C.2       1 UNK         0.0000 
     15 C15         5.3929   54.1718   20.2509 C.2       1 UNK         0.0000 
     16 C16         6.4828   54.9039   20.7607 C.2       1 UNK         0.0000 
     17 S17         6.5235   54.9057   22.4844 S.3       1 UNK         0.0000 
     18 C18         7.5391   55.6256   19.9318 C.3       1 UNK         0.0000 
     19 C19         7.4975   55.0799   18.4876 C.3       1 UNK         0.0000 
     20 H20         7.9080   54.0678   18.4829 H         1 UNK         0.0000 
     21 C21         6.0407   55.0786   17.9793 C.3       1 UNK         0.0000 
     22 C22         5.1801   54.0428   18.7333 C.3       1 UNK         0.0000 
     23 C23         8.4117   55.9204   17.5799 C.3       1 UNK         0.0000 
     24 C24         3.3224   52.8960   21.1035 C.2       1 UNK         0.0000 
     25 O25         2.4351   52.8906   21.9595 O.2       1 UNK         0.0000 
     26 N26         3.2150   52.1941   19.9618 N.am      1 UNK         0.0000 
     27 C27         2.0118   51.4659   19.5690 C.3       1 UNK         0.0000 
     28 H28         1.6550   50.8003   20.3623 H         1 UNK         0.0000 
     29 C29         2.3099   50.5825   18.3404 C.3       1 UNK         0.0000 
     30 C30         0.9862   50.0565   17.7669 C.3       1 UNK         0.0000 
     31 S31        -0.2133   51.4818   17.9826 S.o2      1 UNK         0.0000 
     32 O32        -0.3513   52.2350   16.7322 O.2       1 UNK         0.0000 
     33 O33        -1.4007   51.0073   18.7018 O.2       1 UNK         0.0000 
     34 C34         0.8906   52.4347   19.1510 C.3       1 UNK         0.0000 
     35 C35         5.9362   53.3851   28.4077 C.3       1 UNK         0.0000 
     36 H36         0.7664   54.0391   27.3115 H         1 UNK         0.0000 
     37 H37         0.0705   54.4211   28.8961 H         1 UNK         0.0000 
     38 H38         1.1912   55.5443   28.1230 H         1 UNK         0.0000 
     39 H39         0.9668   52.8883   30.4742 H         1 UNK         0.0000 
     40 H40         2.8616   51.6928   31.4864 H         1 UNK         0.0000 
     41 H41         5.1020   51.8430   30.4832 H         1 UNK         0.0000 
     42 H42         3.5296   52.9043   26.1150 H         1 UNK         0.0000 
     43 H43         2.4661   54.2245   25.6221 H         1 UNK         0.0000 
     44 H44         3.4294   53.4022   23.6193 H         1 UNK         0.0000 
     45 H45         7.3249   56.6941   19.9299 H         1 UNK         0.0000 
     46 H46         8.5352   55.4963   20.3605 H         1 UNK         0.0000 
     47 H47         5.6157   56.0832   18.0254 H         1 UNK         0.0000 
     48 H48         6.0273   54.8296   16.9171 H         1 UNK         0.0000 
     49 H49         5.4501   53.0369   18.4036 H         1 UNK         0.0000 
     50 H50         4.1332   54.1906   18.4615 H         1 UNK         0.0000 
     51 H51         8.0783   56.9560   17.5208 H         1 UNK         0.0000 
     52 H52         9.4383   55.9235   17.9503 H         1 UNK         0.0000 
     53 H53         8.4322   55.5213   16.5636 H         1 UNK         0.0000 
     54 H54         4.0382   52.0373   19.3972 H         1 UNK         0.0000 
     55 H55         2.8391   51.1610   17.5805 H         1 UNK         0.0000 
     56 H56         2.9982   49.7736   18.6001 H         1 UNK         0.0000 
     57 H57         0.9920   49.7030   16.7359 H         1 UNK         0.0000 
     58 H58         0.6395   49.2412   18.4012 H         1 UNK         0.0000 
     59 H59         0.3712   53.0030   19.9167 H         1 UNK         0.0000 
     60 H60         1.3546   53.1737   18.4964 H         1 UNK         0.0000 
     61 H61         6.0083   54.0993   27.5896 H         1 UNK         0.0000 
     62 H62         6.5970   53.7466   29.1938 H         1 UNK         0.0000 
     63 H63         6.3338   52.4341   28.0666 H         1 UNK         0.0000 
@<TRIPOS>BOND
     1    1    2 1    
     2    1   36 1    
     3    1   37 1    
     4    1   38 1    
     5    2    7 ar   
     6    2    3 ar   
     7    3    4 ar   
     8    3   39 1    
     9    4    5 ar   
    10    4   40 1    
    11    5    6 ar   
    12    5   41 1    
    13    6    7 ar   
    14    6   35 1    
    15    7    8 1    
    16    8    9 1    
    17    9   10 1    
    18    9   42 1    
    19    9   43 1    
    20   10   11 2    
    21   10   12 am   BACKBONE|DICT|INTERRES
    22   12   13 am   BACKBONE|DICT|INTERRES
    23   12   44 1    
    24   13   17 1    
    25   13   14 2    
    26   14   15 1    
    27   14   24 1    
    28   15   22 1    
    29   15   16 2    
    30   16   17 1    
    31   16   18 1    
    32   18   19 1    
    33   18   45 1    
    34   18   46 1    
    35   19   20 1    
    36   19   21 1    
    37   19   23 1    
    38   21   22 1    
    39   21   47 1    
    40   21   48 1    
    41   22   49 1    
    42   22   50 1    
    43   23   51 1    
    44   23   52 1    
    45   23   53 1    
    46   24   25 2    
    47   24   26 am   BACKBONE|DICT|INTERRES
    48   26   27 1    
    49   26   54 1    
    50   27   28 1    
    51   27   34 1    
    52   27   29 1    
    53   29   30 1    
    54   29   55 1    
    55   29   56 1    
    56   30   31 1    
    57   30   57 1    
    58   30   58 1    
    59   31   32 2    
    60   31   33 2    
    61   31   34 1    
    62   34   59 1    
    63   34   60 1    
    64   35   61 1    
    65   35   62 1    
    66   35   63 1    
@<TRIPOS>SUBSTRUCTURE
     1 UNK         1 GROUP             0       ****    0 ROOT    
