ZINC19818669_873
                    3D
 Schrodinger Suite 2024-2.
 65 68  0  0  1  0            999 V2000
   -3.4072   50.9715   27.3341 C   0  0  0  0  0  0
   -4.0970   49.7796   27.1283 C   0  0  0  0  0  0
   -3.7368   48.9421   26.0745 C   0  0  0  0  0  0
   -2.6805   49.2881   25.2315 C   0  0  0  0  0  0
   -1.9674   50.4857   25.4305 C   0  0  0  0  0  0
   -2.3576   51.3253   26.4871 C   0  0  0  0  0  0
   -0.9271   50.8414   24.5732 N   0  0  0  0  0  0
   -0.6027   52.2570   24.3194 C   0  0  0  0  0  0
    0.2755   52.4941   23.0763 C   0  0  0  0  0  0
    1.5648   51.6606   23.2085 N   0  3  0  0  0  0
    1.1888   50.1704   23.3245 C   0  0  0  0  0  0
    0.2638   49.9713   24.5441 C   0  0  0  0  0  0
    2.5458   51.9157   22.0273 C   0  0  0  0  0  0
    3.4206   53.1635   22.2989 C   0  0  0  0  0  0
    3.0846   53.9380   23.1981 O   0  0  0  0  0  0
    4.5568   53.3592   21.5752 N   0  0  0  0  0  0
    4.9103   52.5497   20.3978 C   0  0  0  0  0  0
    4.9489   53.5024   19.1850 C   0  0  0  0  0  0
    5.7964   54.6797   19.4318 N   0  0  0  0  0  0
    6.0288   55.2464   20.6324 C   0  0  0  0  0  0
    6.6345   56.3140   20.7080 O   0  0  0  0  0  0
    5.4631   54.4988   21.8775 C   0  0  2  0  0  0
    4.8619   55.2965   22.3000 H   0  0  0  0  0  0
    6.6198   54.2054   22.8928 C   0  0  0  0  0  0
    6.3602   54.6557   24.3420 C   0  0  0  0  0  0
    7.1041   55.4837   24.8671 O   0  0  0  0  0  0
    5.3086   54.0971   24.9679 N   0  0  0  0  0  0
    4.9528   54.1958   26.3223 C   0  0  0  0  0  0
    5.8785   54.4506   27.3451 C   0  0  0  0  0  0
    5.4581   54.4966   28.6696 C   0  0  0  0  0  0
    4.1214   54.2749   28.9902 C   0  0  0  0  0  0
    3.1869   54.0006   27.9857 C   0  0  0  0  0  0
    3.6138   53.9642   26.6517 C   0  0  0  0  0  0
    1.7270   53.7410   28.3501 C   0  0  0  0  0  0
    1.6341   53.0797   29.5055 F   0  0  0  0  0  0
    1.1021   53.0276   27.4114 F   0  0  0  0  0  0
    1.1039   54.9110   28.4784 F   0  0  0  0  0  0
   -2.3736   48.4554   24.2068 F   0  0  0  0  0  0
   -3.6770   51.6151   28.1584 H   0  0  0  0  0  0
   -4.9025   49.4987   27.7923 H   0  0  0  0  0  0
   -4.2698   48.0161   25.9175 H   0  0  0  0  0  0
   -1.8333   52.2496   26.6785 H   0  0  0  0  0  0
   -0.0359   52.5946   25.1886 H   0  0  0  0  0  0
   -1.5132   52.8549   24.2548 H   0  0  0  0  0  0
    0.5890   53.5391   23.0449 H   0  0  0  0  0  0
   -0.2206   52.2208   22.1429 H   0  0  0  0  0  0
    0.7314   49.8548   22.3845 H   0  0  0  0  0  0
    2.1263   49.6353   23.4884 H   0  0  0  0  0  0
    0.0046   48.9172   24.6539 H   0  0  0  0  0  0
    0.8299   50.2536   25.4337 H   0  0  0  0  0  0
    1.9467   52.0073   21.1195 H   0  0  0  0  0  0
    3.1681   51.0227   21.9605 H   0  0  0  0  0  0
    4.2314   51.7239   20.1878 H   0  0  0  0  0  0
    5.8957   52.1175   20.5617 H   0  0  0  0  0  0
    3.9488   53.8529   18.9225 H   0  0  0  0  0  0
    5.3386   52.9678   18.3169 H   0  0  0  0  0  0
    6.1711   55.1715   18.6331 H   0  0  0  0  0  0
    7.5612   54.6742   22.5938 H   0  0  0  0  0  0
    6.8406   53.1384   22.9086 H   0  0  0  0  0  0
    4.6342   53.6308   24.3768 H   0  0  0  0  0  0
    6.9269   54.6010   27.1375 H   0  0  0  0  0  0
    6.1750   54.7034   29.4484 H   0  0  0  0  0  0
    3.8170   54.3130   30.0247 H   0  0  0  0  0  0
    2.8993   53.7584   25.8679 H   0  0  0  0  0  0
    2.0319   51.9323   24.0639 H   0  0  0  0  0  0
  1  6  2  0  0  0
  1  2  1  0  0  0
  1 39  1  0  0  0
  2  3  2  0  0  0
  2 40  1  0  0  0
  3  4  1  0  0  0
  3 41  1  0  0  0
  4  5  2  0  0  0
  4 38  1  0  0  0
  5  6  1  0  0  0
  5  7  1  0  0  0
  6 42  1  0  0  0
  7 12  1  0  0  0
  7  8  1  0  0  0
  8  9  1  0  0  0
  8 43  1  0  0  0
  8 44  1  0  0  0
  9 10  1  0  0  0
  9 45  1  0  0  0
  9 46  1  0  0  0
 10 11  1  0  0  0
 10 13  1  0  0  0
 10 65  1  0  0  0
 11 12  1  0  0  0
 11 47  1  0  0  0
 11 48  1  0  0  0
 12 49  1  0  0  0
 12 50  1  0  0  0
 13 14  1  0  0  0
 13 51  1  0  0  0
 13 52  1  0  0  0
 14 15  2  0  0  0
 14 16  1  0  0  0
 16 22  1  0  0  0
 16 17  1  0  0  0
 17 18  1  0  0  0
 17 53  1  0  0  0
 17 54  1  0  0  0
 18 19  1  0  0  0
 18 55  1  0  0  0
 18 56  1  0  0  0
 19 20  1  0  0  0
 19 57  1  0  0  0
 20 21  2  0  0  0
 20 22  1  0  0  0
 22 23  1  0  0  0
 22 24  1  0  0  0
 24 25  1  0  0  0
 24 58  1  0  0  0
 24 59  1  0  0  0
 25 26  2  0  0  0
 25 27  1  0  0  0
 27 28  1  0  0  0
 27 60  1  0  0  0
 28 33  2  0  0  0
 28 29  1  0  0  0
 29 30  2  0  0  0
 29 61  1  0  0  0
 30 31  1  0  0  0
 30 62  1  0  0  0
 31 32  2  0  0  0
 31 63  1  0  0  0
 32 33  1  0  0  0
 32 34  1  0  0  0
 33 64  1  0  0  0
 34 35  1  0  0  0
 34 36  1  0  0  0
 34 37  1  0  0  0
M  CHG  1  10   1
M  END
> <i_i_glide_confnum>
92

> <i_i_glide_lignum>
874

> <i_i_glide_posenum>
350

> <i_i_glide_rotatable_bonds>
9

> <i_m_Source_File_Index>
1939

> <b_m_subgroup_collapsed>
0

> <r_i_docking_score>
-6.76485

> <r_i_glide_ecoul>
-4.03368

> <r_i_glide_eff_state_penalty>
0

> <r_i_glide_einternal>
10.5998

> <r_i_glide_emodel>
-69.8462

> <r_i_glide_energy>
-51.8673

> <r_i_glide_erotb>
0.60257

> <r_i_glide_esite>
-0.0277081

> <r_i_glide_evdw>
-47.8336

> <r_i_glide_gscore>
-6.76485

> <r_i_glide_hbond>
-0.37853

> <r_i_glide_ligand_efficiency>
-0.182834

> <r_i_glide_ligand_efficiency_ln>
-1.46714

> <r_i_glide_ligand_efficiency_sa>
-0.609243

> <r_i_glide_lipo>
-2.34834

> <r_i_glide_metal>
0

> <r_i_glide_rewards>
-1.61611

> <s_i_glide_gridfile>
wee1_glide-grid

> <s_m_Source_File>
wee1_decoys_glide_SP.sdf

> <s_m_Source_Path>
/Users/zhangxujun/Desktop

> <s_m_entry_id>
2214

> <s_m_entry_name>
wee1_decoys_glide_SP.1939

> <s_m_subgroup_title>
wee1_decoys_glide_SP

> <s_m_subgroupid>
wee1_decoys_glide_SP


$$$$
