ZINC36071907_5811
                    3D
 Schrodinger Suite 2024-2.
 67 70  0  0  1  0            999 V2000
   -4.3799   53.0737   25.3036 C   0  0  0  0  0  0
   -2.9624   52.6535   24.9660 C   0  0  0  0  0  0
   -2.4628   52.8649   23.6835 C   0  0  0  0  0  0
   -1.1562   52.4968   23.3728 C   0  0  0  0  0  0
   -0.3202   51.9201   24.3362 C   0  0  0  0  0  0
   -0.8329   51.6843   25.6309 C   0  0  0  0  0  0
   -2.1465   52.0635   25.9326 C   0  0  0  0  0  0
   -0.0174   51.0086   26.7298 C   0  0  0  0  0  0
    1.1078   51.5197   23.9175 C   0  0  2  0  0  0
    1.5043   50.8981   24.7132 H   0  0  0  0  0  0
    2.0955   52.7102   23.6756 C   0  0  0  0  0  0
    2.6581   52.8989   22.4375 C   0  0  0  0  0  0
    2.3387   52.1389   21.3502 N   0  0  0  0  0  0
    1.6530   51.0795   21.5264 C   0  0  0  0  0  0
    1.1078   50.6226   22.7237 N   0  0  0  0  0  0
    0.4605   49.3999   22.6488 C   0  0  0  0  0  0
    0.3288   48.9809   21.3769 C   0  0  0  0  0  0
    1.1332   50.0191   20.2055 S   0  0  0  0  0  0
   -0.0971   48.6888   23.7893 C   0  0  0  0  0  0
   -1.2796   48.0491   23.8420 C   0  0  0  0  0  0
   -2.1778   47.9027   22.9311 O   0  5  0  0  0  0
   -1.6640   47.4310   25.0111 N   0  0  0  0  0  0
   -2.5528   46.2948   25.2153 C   0  0  0  0  0  0
   -3.9880   46.7141   25.5838 C   0  0  0  0  0  0
   -4.9430   45.5370   25.7432 C   0  0  0  0  0  0
   -6.2128   45.5435   25.1533 C   0  0  0  0  0  0
   -7.0427   44.4337   25.3390 C   0  0  0  0  0  0
   -6.5914   43.3563   26.1046 C   0  0  0  0  0  0
   -5.3124   43.4254   26.6632 C   0  0  0  0  0  0
   -4.4957   44.4946   26.4896 N   0  0  0  0  0  0
    3.6379   53.9979   22.0183 C   0  0  0  0  0  0
    2.5107   53.4714   24.8701 C   0  0  0  0  0  0
    1.7618   53.6857   25.8212 O   0  0  0  0  0  0
    3.8238   53.8249   24.8608 O   0  0  0  0  0  0
    4.4427   54.5449   25.9252 C   0  0  0  0  0  0
    4.6785   53.6568   27.1624 C   0  0  0  0  0  0
    5.7696   55.0844   25.3719 C   0  0  0  0  0  0
   -4.5512   53.0887   26.3811 H   0  0  0  0  0  0
   -4.5732   54.0808   24.9297 H   0  0  0  0  0  0
   -5.0983   52.4005   24.8360 H   0  0  0  0  0  0
   -3.0876   53.3066   22.9221 H   0  0  0  0  0  0
   -0.7876   52.6576   22.3702 H   0  0  0  0  0  0
   -2.5400   51.8848   26.9224 H   0  0  0  0  0  0
   -0.5046   51.0796   27.7022 H   0  0  0  0  0  0
    0.1254   49.9517   26.5097 H   0  0  0  0  0  0
    0.9667   51.4636   26.8336 H   0  0  0  0  0  0
   -0.1805   48.0857   21.0542 H   0  0  0  0  0  0
    0.5161   48.6737   24.6773 H   0  0  0  0  0  0
   -1.3016   47.8053   25.8780 H   0  0  0  0  0  0
   -2.5536   45.6973   24.3025 H   0  0  0  0  0  0
   -2.1112   45.6994   26.0154 H   0  0  0  0  0  0
   -3.9759   47.2770   26.5196 H   0  0  0  0  0  0
   -4.3696   47.3989   24.8246 H   0  0  0  0  0  0
   -6.5498   46.3850   24.5663 H   0  0  0  0  0  0
   -8.0290   44.4119   24.8982 H   0  0  0  0  0  0
   -7.2175   42.4899   26.2657 H   0  0  0  0  0  0
   -4.9232   42.6195   27.2708 H   0  0  0  0  0  0
    4.6576   53.6305   22.1069 H   0  0  0  0  0  0
    3.4978   54.3128   20.9843 H   0  0  0  0  0  0
    3.5354   54.8944   22.6246 H   0  0  0  0  0  0
    3.8074   55.3899   26.1963 H   0  0  0  0  0  0
    5.1592   54.2222   27.9616 H   0  0  0  0  0  0
    5.3223   52.8108   26.9210 H   0  0  0  0  0  0
    3.7447   53.2612   27.5595 H   0  0  0  0  0  0
    6.2892   55.6912   26.1129 H   0  0  0  0  0  0
    6.4395   54.2713   25.0851 H   0  0  0  0  0  0
    5.6069   55.6986   24.4869 H   0  0  0  0  0  0
  1  2  1  0  0  0
  1 38  1  0  0  0
  1 39  1  0  0  0
  1 40  1  0  0  0
  2  7  2  0  0  0
  2  3  1  0  0  0
  3  4  2  0  0  0
  3 41  1  0  0  0
  4  5  1  0  0  0
  4 42  1  0  0  0
  5  6  2  0  0  0
  5  9  1  0  0  0
  6  7  1  0  0  0
  6  8  1  0  0  0
  7 43  1  0  0  0
  8 44  1  0  0  0
  8 45  1  0  0  0
  8 46  1  0  0  0
  9 10  1  0  0  0
  9 15  1  0  0  0
  9 11  1  0  0  0
 11 12  2  0  0  0
 11 32  1  0  0  0
 12 13  1  0  0  0
 12 31  1  0  0  0
 13 14  2  0  0  0
 14 18  1  0  0  0
 14 15  1  0  0  0
 15 16  1  0  0  0
 16 17  2  0  0  0
 16 19  1  0  0  0
 17 18  1  0  0  0
 17 47  1  0  0  0
 19 20  2  0  0  0
 19 48  1  0  0  0
 20 21  1  0  0  0
 20 22  1  0  0  0
 22 23  1  0  0  0
 22 49  1  0  0  0
 23 24  1  0  0  0
 23 50  1  0  0  0
 23 51  1  0  0  0
 24 25  1  0  0  0
 24 52  1  0  0  0
 24 53  1  0  0  0
 25 30  2  0  0  0
 25 26  1  0  0  0
 26 27  2  0  0  0
 26 54  1  0  0  0
 27 28  1  0  0  0
 27 55  1  0  0  0
 28 29  2  0  0  0
 28 56  1  0  0  0
 29 30  1  0  0  0
 29 57  1  0  0  0
 31 58  1  0  0  0
 31 59  1  0  0  0
 31 60  1  0  0  0
 32 33  2  0  0  0
 32 34  1  0  0  0
 34 35  1  0  0  0
 35 36  1  0  0  0
 35 37  1  0  0  0
 35 61  1  0  0  0
 36 62  1  0  0  0
 36 63  1  0  0  0
 36 64  1  0  0  0
 37 65  1  0  0  0
 37 66  1  0  0  0
 37 67  1  0  0  0
M  CHG  1  21  -1
M  END
> <i_i_glide_confnum>
108

> <i_i_glide_lignum>
5812

> <i_i_glide_posenum>
48

> <i_i_glide_rotatable_bonds>
9

> <i_m_Source_File_Index>
6050

> <b_m_subgroup_collapsed>
0

> <r_i_docking_score>
-4.06677

> <r_i_glide_ecoul>
-1.27645

> <r_i_glide_eff_state_penalty>
0

> <r_i_glide_einternal>
4.68187

> <r_i_glide_emodel>
-53.4614

> <r_i_glide_energy>
-43.055

> <r_i_glide_erotb>
0.564119

> <r_i_glide_esite>
-0.0806132

> <r_i_glide_evdw>
-41.7786

> <r_i_glide_gscore>
-4.06677

> <r_i_glide_hbond>
-0.121417

> <r_i_glide_ligand_efficiency>
-0.112966

> <r_i_glide_ligand_efficiency_ln>
-0.88726

> <r_i_glide_ligand_efficiency_sa>
-0.373005

> <r_i_glide_lipo>
-1.67315

> <r_i_glide_metal>
0

> <r_i_glide_rewards>
-0.475319

> <s_i_glide_gridfile>
wee1_glide-grid

> <s_m_Source_File>
wee1_decoys_glide_SP.sdf

> <s_m_Source_Path>
/Users/zhangxujun/Desktop

> <s_m_entry_id>
6325

> <s_m_entry_name>
wee1_decoys_glide_SP.6050

> <s_m_subgroup_title>
wee1_decoys_glide_SP

> <s_m_subgroupid>
wee1_decoys_glide_SP


$$$$
