@<TRIPOS>MOLECULE
ZINC39947287_2163
54   57    1
SMALL
USER_CHARGES


@<TRIPOS>ATOM
      1 C1          0.8386   55.6398   30.6589 C.3       1 UNK         0.0000 
      2 C2          0.3044   54.5989   29.6577 C.3       1 UNK         0.0000 
      3 C3          1.0674   53.2696   29.6242 C.3       1 UNK         0.0000 
      4 H4          1.0998   52.9214   30.6595 H         1 UNK         0.0000 
      5 C5          2.5185   53.3929   29.1533 C.ar      1 UNK         0.0000 
      6 C6          3.3897   52.3715   29.5122 C.ar      1 UNK         0.0000 
      7 C7          4.7052   52.4226   29.0986 C.ar      1 UNK         0.0000 
      8 C8          5.1858   53.4919   28.3510 C.ar      1 UNK         0.0000 
      9 C9          4.3129   54.4971   27.9628 C.ar      1 UNK         0.0000 
     10 C10         2.9838   54.4610   28.3688 C.ar      1 UNK         0.0000 
     11 C11         6.6574   53.5717   27.9848 C.3       1 UNK         0.0000 
     12 N12         0.3164   52.2384   28.8960 N.am      1 UNK         0.0000 
     13 C13         0.1741   52.1346   27.5601 C.2       1 UNK         0.0000 
     14 O14         0.7041   52.8964   26.7515 O.2       1 UNK         0.0000 
     15 C15        -0.7241   51.0011   27.0733 C.3       1 UNK         0.0000 
     16 S16         0.1633   49.7541   26.0811 S.3       1 UNK         0.0000 
     17 C17        -0.3119   50.2627   24.4026 C.3       1 UNK         0.0000 
     18 H18        -1.2470   50.8146   24.4912 H         1 UNK         0.0000 
     19 N19        -0.5134   49.1396   23.5456 N.pl3     1 UNK         0.0000 
     20 N20         0.3147   49.2969   22.4437 N.2       1 UNK         0.0000 
     21 C21         0.9703   50.3614   22.6673 C.2       1 UNK         0.0000 
     22 O22         0.6344   51.0550   23.7978 O.3       1 UNK         0.0000 
     23 C23         1.9888   50.8649   21.7864 C.2       1 UNK         0.0000 
     24 C24         2.7090   51.9966   21.9361 C.2       1 UNK         0.0000 
     25 C25         2.7024   53.0659   22.9541 C.2       1 UNK         0.0000 
     26 C26         3.5683   54.0966   22.8800 C.2       1 UNK         0.0000 
     27 C27         4.5016   54.1242   21.7617 C.2       1 UNK         0.0000 
     28 C28         4.5194   53.1547   20.8108 C.2       1 UNK         0.0000 
     29 C29         3.6279   52.0788   20.8796 C.2       1 UNK         0.0000 
     30 N30         3.5045   51.0569   20.0631 N.pl3     1 UNK         0.0000 
     31 C31         2.4406   50.1536   20.5263 C.3       1 UNK         0.0000 
     32 H32         0.3066   56.5839   30.5557 H         1 UNK         0.0000 
     33 H33         0.7045   55.2960   31.6841 H         1 UNK         0.0000 
     34 H34         1.8983   55.8533   30.5093 H         1 UNK         0.0000 
     35 H35         0.3044   55.0085   28.6481 H         1 UNK         0.0000 
     36 H36        -0.7384   54.3990   29.9055 H         1 UNK         0.0000 
     37 H37         3.0392   51.5299   30.0867 H         1 UNK         0.0000 
     38 H38         5.3472   51.5902   29.3134 H         1 UNK         0.0000 
     39 H39         4.6688   55.3018   27.3430 H         1 UNK         0.0000 
     40 H40         2.3335   55.2575   28.0466 H         1 UNK         0.0000 
     41 H41         7.2708   53.2965   28.8464 H         1 UNK         0.0000 
     42 H42         6.8930   52.8968   27.1625 H         1 UNK         0.0000 
     43 H43         6.9483   54.5843   27.7064 H         1 UNK         0.0000 
     44 H44        -0.1370   51.5382   29.4669 H         1 UNK         0.0000 
     45 H45        -1.1754   50.4968   27.9261 H         1 UNK         0.0000 
     46 H46        -1.5581   51.4274   26.5200 H         1 UNK         0.0000 
     47 H47        -1.4340   48.8590   23.2329 H         1 UNK         0.0000 
     48 H48         2.0174   53.0544   23.7908 H         1 UNK         0.0000 
     49 H49         3.5707   54.8791   23.6253 H         1 UNK         0.0000 
     50 H50         5.1933   54.9502   21.6803 H         1 UNK         0.0000 
     51 H51         5.2296   53.2304   19.9994 H         1 UNK         0.0000 
     52 H52         2.8770   49.1681   20.7026 H         1 UNK         0.0000 
     53 H53         1.6813   50.0943   19.7437 H         1 UNK         0.0000 
     54 H54         4.0782   50.8949   19.2242 H         1 UNK         0.0000 
@<TRIPOS>BOND
     1    1    2 1    
     2    1   32 1    
     3    1   33 1    
     4    1   34 1    
     5    2    3 1    
     6    2   35 1    
     7    2   36 1    
     8    3    4 1    
     9    3    5 1    
    10    3   12 1    
    11    5   10 ar   
    12    5    6 ar   
    13    6    7 ar   
    14    6   37 1    
    15    7    8 ar   
    16    7   38 1    
    17    8    9 ar   
    18    8   11 1    
    19    9   10 ar   
    20    9   39 1    
    21   10   40 1    
    22   11   41 1    
    23   11   42 1    
    24   11   43 1    
    25   12   13 am   BACKBONE|DICT|INTERRES
    26   12   44 1    
    27   13   14 2    
    28   13   15 1    
    29   15   16 1    
    30   15   45 1    
    31   15   46 1    
    32   16   17 1    
    33   17   18 1    
    34   17   22 1    
    35   17   19 1    
    36   19   20 1    
    37   19   47 1    
    38   20   21 2    
    39   21   22 1    
    40   21   23 1    
    41   23   31 1    
    42   23   24 2    
    43   24   29 1    
    44   24   25 1    
    45   25   26 2    
    46   25   48 1    
    47   26   27 1    
    48   26   49 1    
    49   27   28 2    
    50   27   50 1    
    51   28   29 1    
    52   28   51 1    
    53   29   30 2    
    54   30   31 1    
    55   30   54 1    
    56   31   52 1    
    57   31   53 1    
@<TRIPOS>SUBSTRUCTURE
     1 UNK         1 GROUP             0       ****    0 ROOT    
