@<TRIPOS>MOLECULE
ZINC43221526_5061
64   69    1
SMALL
USER_CHARGES


@<TRIPOS>ATOM
      1 C1         -5.0656   54.1237   24.4821 C.3       1 UNK         0.0000 
      2 C2         -6.2188   53.2072   24.8817 C.ar      1 UNK         0.0000 
      3 C3         -7.5075   53.7528   24.9013 C.ar      1 UNK         0.0000 
      4 C4         -8.6149   52.9566   25.1841 C.ar      1 UNK         0.0000 
      5 C5         -8.4479   51.5994   25.4430 C.ar      1 UNK         0.0000 
      6 C6         -7.1727   51.0391   25.4254 C.ar      1 UNK         0.0000 
      7 C7         -6.0435   51.8288   25.1519 C.ar      1 UNK         0.0000 
      8 N8         -4.7665   51.2147   25.1799 N.am      1 UNK         0.0000 
      9 C9         -3.7408   51.6411   25.9856 C.2       1 UNK         0.0000 
     10 O10        -3.7449   52.4951   26.8699 O.2       1 UNK         0.0000 
     11 C11        -2.5293   50.8978   25.4853 C.3       1 UNK         0.0000 
     12 H12        -2.1197   51.4935   24.6649 H         1 UNK         0.0000 
     13 C13        -1.3823   50.4516   26.3783 C.3       1 UNK         0.0000 
     14 H14        -1.7725   50.0967   27.3237 H         1 UNK         0.0000 
     15 N15        -0.9595   49.1218   25.6816 N.4       1 UNK         0.0000 
     16 C16        -1.9389   48.8242   24.4814 C.3       1 UNK         0.0000 
     17 C17        -3.1294   49.6244   25.0781 C.3       1 UNK         0.0000 
     18 H18        -3.4858   49.0088   25.9166 H         1 UNK         0.0000 
     19 C19        -4.4299   50.0954   24.4539 C.2       1 UNK         0.0000 
     20 O20        -5.0572   49.5371   23.5543 O.2       1 UNK         0.0000 
     21 C21        -1.2306   49.3454   23.1956 C.ar      1 UNK         0.0000 
     22 C22        -1.9244   50.0529   22.2028 C.ar      1 UNK         0.0000 
     23 C23        -1.2646   50.5274   21.0721 C.ar      1 UNK         0.0000 
     24 C24         0.0974   50.2904   20.9143 C.ar      1 UNK         0.0000 
     25 C25         0.8017   49.5680   21.8711 C.ar      1 UNK         0.0000 
     26 C26         0.1392   49.0912   22.9980 C.ar      1 UNK         0.0000 
     27 C27        -2.1223   47.2741   24.3507 C.2       1 UNK         0.0000 
     28 O28        -1.2962   46.4974   24.8817 O.co2     1 UNK         0.0000 
     29 O29        -3.0977   46.8635   23.6830 O.co2     1 UNK         0.0000 
     30 C30        -0.2036   51.4310   26.5158 C.ar      1 UNK         0.0000 
     31 C31         0.4830   51.8219   25.3657 C.ar      1 UNK         0.0000 
     32 C32         1.5260   52.7301   25.4133 C.ar      1 UNK         0.0000 
     33 C33         1.9448   53.2944   26.6218 C.ar      1 UNK         0.0000 
     34 C34         1.2524   52.9468   27.8189 C.ar      1 UNK         0.0000 
     35 C35         0.1662   52.0056   27.7803 C.ar      1 UNK         0.0000 
     36 C36        -0.4905   51.7001   29.0112 C.ar      1 UNK         0.0000 
     37 C37        -0.0959   52.2915   30.2055 C.ar      1 UNK         0.0000 
     38 C38         0.9472   53.2007   30.2338 C.ar      1 UNK         0.0000 
     39 C39         1.6215   53.5280   29.0647 C.ar      1 UNK         0.0000 
     40 O40         3.0068   54.1789   26.7185 O.3       1 UNK         0.0000 
     41 C41         3.7609   54.5060   25.5556 C.3       1 UNK         0.0000 
     42 H42        -4.6273   54.6027   25.3580 H         1 UNK         0.0000 
     43 H43        -4.2847   53.5805   23.9504 H         1 UNK         0.0000 
     44 H44        -5.4063   54.8967   23.7931 H         1 UNK         0.0000 
     45 H45        -7.6589   54.7995   24.6782 H         1 UNK         0.0000 
     46 H46        -9.6042   53.3897   25.1910 H         1 UNK         0.0000 
     47 H47        -9.3065   50.9796   25.6571 H         1 UNK         0.0000 
     48 H48        -7.0659   49.9843   25.6360 H         1 UNK         0.0000 
     49 H49        -1.0316   48.3783   26.3728 H         1 UNK         0.0000 
     50 H50        -2.9805   50.2413   22.2783 H         1 UNK         0.0000 
     51 H51        -1.8095   51.0711   20.3149 H         1 UNK         0.0000 
     52 H52         0.6095   50.6559   20.0357 H         1 UNK         0.0000 
     53 H53         1.8559   49.3704   21.7366 H         1 UNK         0.0000 
     54 H54         0.7051   48.5128   23.7150 H         1 UNK         0.0000 
     55 H55         0.2029   51.4260   24.4018 H         1 UNK         0.0000 
     56 H56         2.0139   52.9774   24.4835 H         1 UNK         0.0000 
     57 H57        -1.3100   51.0024   29.0608 H         1 UNK         0.0000 
     58 H58        -0.6056   52.0375   31.1246 H         1 UNK         0.0000 
     59 H59         1.2276   53.6520   31.1734 H         1 UNK         0.0000 
     60 H60         2.4333   54.2401   29.1018 H         1 UNK         0.0000 
     61 H61         4.5461   55.2131   25.8229 H         1 UNK         0.0000 
     62 H62         4.2423   53.6240   25.1310 H         1 UNK         0.0000 
     63 H63         3.1404   54.9775   24.7922 H         1 UNK         0.0000 
     64 H64         0.0053   49.1313   25.3897 H         1 UNK         0.0000 
@<TRIPOS>BOND
     1    1    2 1    
     2    1   42 1    
     3    1   43 1    
     4    1   44 1    
     5    2    7 ar   
     6    2    3 ar   
     7    3    4 ar   
     8    3   45 1    
     9    4    5 ar   
    10    4   46 1    
    11    5    6 ar   
    12    5   47 1    
    13    6    7 ar   
    14    6   48 1    
    15    7    8 1    
    16    8   19 am   BACKBONE|DICT|INTERRES
    17    8    9 am   BACKBONE|DICT|INTERRES
    18    9   10 2    
    19    9   11 1    
    20   11   12 1    
    21   11   17 1    
    22   11   13 1    
    23   13   14 1    
    24   13   15 1    
    25   13   30 1    
    26   15   16 1    
    27   15   49 1    
    28   15   64 1    
    29   16   17 1    
    30   16   21 1    
    31   16   27 1    
    32   17   18 1    
    33   17   19 1    
    34   19   20 2    
    35   21   26 ar   
    36   21   22 ar   
    37   22   23 ar   
    38   22   50 1    
    39   23   24 ar   
    40   23   51 1    
    41   24   25 ar   
    42   24   52 1    
    43   25   26 ar   
    44   25   53 1    
    45   26   54 1    
    46   27   28 2    
    47   27   29 1    
    48   30   35 ar   
    49   30   31 ar   
    50   31   32 ar   
    51   31   55 1    
    52   32   33 ar   
    53   32   56 1    
    54   33   34 ar   
    55   33   40 1    
    56   34   39 ar   
    57   34   35 ar   
    58   35   36 ar   
    59   36   37 ar   
    60   36   57 1    
    61   37   38 ar   
    62   37   58 1    
    63   38   39 ar   
    64   38   59 1    
    65   39   60 1    
    66   40   41 1    
    67   41   61 1    
    68   41   62 1    
    69   41   63 1    
@<TRIPOS>SUBSTRUCTURE
     1 UNK         1 GROUP             0       ****    0 ROOT    
