@<TRIPOS>MOLECULE
ZINC02374379_3608
44   46    1
SMALL
USER_CHARGES


@<TRIPOS>ATOM
      1 C1          6.7045   55.1176   23.1679 C.ar      1 UNK         0.0000 
      2 C2          6.6908   55.2660   24.5510 C.ar      1 UNK         0.0000 
      3 C3          5.6162   54.7793   25.2902 C.ar      1 UNK         0.0000 
      4 C4          4.5472   54.1557   24.6458 C.ar      1 UNK         0.0000 
      5 C5          4.5388   54.0154   23.2425 C.ar      1 UNK         0.0000 
      6 C6          5.6397   54.4967   22.5207 C.ar      1 UNK         0.0000 
      7 C7          3.3682   53.4009   22.5239 C.ar      1 UNK         0.0000 
      8 N8          2.1421   53.4184   22.9987 N.2       1 UNK         0.0000 
      9 N9          1.3175   52.7761   22.0863 N.2       1 UNK         0.0000 
     10 C10         2.0758   52.3631   21.1042 C.ar      1 UNK         0.0000 
     11 N11         3.3819   52.7601   21.2970 N.pl3     1 UNK         0.0000 
     12 N12         4.4498   52.5520   20.4323 N.3       1 UNK         0.0000 
     13 S13         1.4484   51.5639   19.6672 S.3       1 UNK         0.0000 
     14 C14         2.5492   50.1146   19.6823 C.3       1 UNK         0.0000 
     15 C15         1.7791   48.8101   19.5440 C.2       1 UNK         0.0000 
     16 O16         0.9842   48.4957   20.4289 O.2       1 UNK         0.0000 
     17 N17         2.0301   48.0991   18.4257 N.am      1 UNK         0.0000 
     18 C18         1.4427   46.8970   17.9887 C.ar      1 UNK         0.0000 
     19 C19         1.7136   46.5207   16.6720 C.ar      1 UNK         0.0000 
     20 C20         1.1756   45.3426   16.1371 C.ar      1 UNK         0.0000 
     21 C21         0.3830   44.5228   16.9484 C.ar      1 UNK         0.0000 
     22 C22         0.1125   44.8706   18.2752 C.ar      1 UNK         0.0000 
     23 C23         0.6348   46.0651   18.7830 C.ar      1 UNK         0.0000 
     24 C24        -0.7393   43.9511   19.1524 C.3       1 UNK         0.0000 
     25 F25         0.0281   42.9788   19.6483 F         1 UNK         0.0000 
     26 F26        -1.7190   43.3867   18.4448 F         1 UNK         0.0000 
     27 F27        -1.2946   44.6033   20.1748 F         1 UNK         0.0000 
     28 C28         1.4278   44.9378   14.6870 C.3       1 UNK         0.0000 
     29 F29         1.9043   43.6938   14.6436 F         1 UNK         0.0000 
     30 F30         0.2801   44.9807   14.0120 F         1 UNK         0.0000 
     31 F31         2.2969   45.7464   14.0793 F         1 UNK         0.0000 
     32 F32         3.5226   53.7019   25.4072 F         1 UNK         0.0000 
     33 H33         7.5334   55.5023   22.5895 H         1 UNK         0.0000 
     34 H34         7.5044   55.7700   25.0403 H         1 UNK         0.0000 
     35 H35         5.6050   54.8867   26.3649 H         1 UNK         0.0000 
     36 H36         5.6718   54.4489   21.4444 H         1 UNK         0.0000 
     37 H37         4.6183   51.5697   20.2611 H         1 UNK         0.0000 
     38 H38         4.3373   53.0808   19.5787 H         1 UNK         0.0000 
     39 H39         3.1057   50.0490   20.6184 H         1 UNK         0.0000 
     40 H40         3.2759   50.2303   18.8815 H         1 UNK         0.0000 
     41 H41         2.7213   48.4958   17.7919 H         1 UNK         0.0000 
     42 H42         2.3391   47.1579   16.0596 H         1 UNK         0.0000 
     43 H43        -0.0279   43.6098   16.5395 H         1 UNK         0.0000 
     44 H44         0.4142   46.3198   19.8063 H         1 UNK         0.0000 
@<TRIPOS>BOND
     1    1    6 ar   
     2    1    2 ar   
     3    1   33 1    
     4    2    3 ar   
     5    2   34 1    
     6    3    4 ar   
     7    3   35 1    
     8    4    5 ar   
     9    4   32 1    
    10    5    6 ar   
    11    5    7 1    
    12    6   36 1    
    13    7   11 ar   
    14    7    8 ar   
    15    8    9 ar   
    16    9   10 ar   
    17   10   11 ar   
    18   10   13 1    
    19   11   12 1    
    20   12   37 1    
    21   12   38 1    
    22   13   14 1    
    23   14   15 1    
    24   14   39 1    
    25   14   40 1    
    26   15   16 2    
    27   15   17 am   BACKBONE|DICT|INTERRES
    28   17   18 1    
    29   17   41 1    
    30   18   23 ar   
    31   18   19 ar   
    32   19   20 ar   
    33   19   42 1    
    34   20   21 ar   
    35   20   28 1    
    36   21   22 ar   
    37   21   43 1    
    38   22   23 ar   
    39   22   24 1    
    40   23   44 1    
    41   24   25 1    
    42   24   26 1    
    43   24   27 1    
    44   28   29 1    
    45   28   30 1    
    46   28   31 1    
@<TRIPOS>SUBSTRUCTURE
     1 UNK         1 GROUP             0       ****    0 ROOT    
