@<TRIPOS>MOLECULE
ZINC39654604_4898
78   81    1
SMALL
USER_CHARGES


@<TRIPOS>ATOM
      1 C1          5.7870   55.0000   20.6434 C.3       1 UNK         0.0000 
      2 C2          5.0541   53.9889   21.5427 C.3       1 UNK         0.0000 
      3 C3          5.2687   54.2329   23.0329 C.ar      1 UNK         0.0000 
      4 C4          6.5605   54.2461   23.5642 C.ar      1 UNK         0.0000 
      5 C5          6.7480   54.4626   24.9251 C.ar      1 UNK         0.0000 
      6 C6          5.6567   54.6332   25.7746 C.ar      1 UNK         0.0000 
      7 C7          4.3708   54.6708   25.2320 C.ar      1 UNK         0.0000 
      8 C8          4.1730   54.4571   23.8720 C.ar      1 UNK         0.0000 
      9 C9          5.8790   54.7999   27.2802 C.3       1 UNK         0.0000 
     10 C10         5.3862   53.6344   28.1713 C.3       1 UNK         0.0000 
     11 N11         3.9817   53.2974   27.9505 N.am      1 UNK         0.0000 
     12 C12         2.9154   53.9515   28.4508 C.2       1 UNK         0.0000 
     13 O13         3.0378   54.8278   29.3047 O.2       1 UNK         0.0000 
     14 C14         1.4957   53.6653   27.8711 C.3       1 UNK         0.0000 
     15 H15         1.1049   54.6397   27.5811 H         1 UNK         0.0000 
     16 C16         1.6115   52.8467   26.5502 C.3       1 UNK         0.0000 
     17 N17         0.3950   52.0459   26.4956 N.am      1 UNK         0.0000 
     18 C18        -0.4191   52.1963   27.6934 C.3       1 UNK         0.0000 
     19 C19         0.5015   52.8484   28.7493 C.3       1 UNK         0.0000 
     20 C20         1.1915   51.6972   29.5504 C.3       1 UNK         0.0000 
     21 C21         1.7231   52.1046   30.9621 C.3       1 UNK         0.0000 
     22 N22         0.6542   52.8564   31.7676 N.4       1 UNK         0.0000 
     23 C23         0.2090   54.1143   31.0175 C.3       1 UNK         0.0000 
     24 C24        -0.4275   53.6483   29.7039 C.3       1 UNK         0.0000 
     25 C25         0.0673   51.2804   25.4238 C.2       1 UNK         0.0000 
     26 O26         0.8112   51.2056   24.4434 O.2       1 UNK         0.0000 
     27 C27        -1.2708   50.4906   25.4557 C.3       1 UNK         0.0000 
     28 H28        -1.2757   50.0222   26.4391 H         1 UNK         0.0000 
     29 C29        -1.4692   49.3418   24.4178 C.3       1 UNK         0.0000 
     30 C30        -1.5313   49.8064   22.9447 C.3       1 UNK         0.0000 
     31 C31        -0.4621   48.1872   24.5989 C.3       1 UNK         0.0000 
     32 O32        -2.3133   51.4679   25.3127 O.3       1 UNK         0.0000 
     33 C33        -3.4832   51.4006   26.0445 C.ar      1 UNK         0.0000 
     34 C34        -3.8025   50.3990   26.9765 C.ar      1 UNK         0.0000 
     35 C35        -5.0057   50.4528   27.6762 C.ar      1 UNK         0.0000 
     36 C36        -5.8994   51.4941   27.4383 C.ar      1 UNK         0.0000 
     37 C37        -5.5995   52.4855   26.5081 C.ar      1 UNK         0.0000 
     38 C38        -4.3899   52.4379   25.8201 C.ar      1 UNK         0.0000 
     39 H39         5.5549   54.8215   19.5935 H         1 UNK         0.0000 
     40 H40         5.4951   56.0231   20.8796 H         1 UNK         0.0000 
     41 H41         6.8698   54.9272   20.7555 H         1 UNK         0.0000 
     42 H42         5.3778   52.9749   21.3062 H         1 UNK         0.0000 
     43 H43         3.9871   54.0208   21.3141 H         1 UNK         0.0000 
     44 H44         7.4220   54.0944   22.9301 H         1 UNK         0.0000 
     45 H45         7.7505   54.4980   25.3142 H         1 UNK         0.0000 
     46 H46         3.5180   54.8685   25.8594 H         1 UNK         0.0000 
     47 H47         3.1700   54.4719   23.4704 H         1 UNK         0.0000 
     48 H48         5.3692   55.6966   27.6018 H         1 UNK         0.0000 
     49 H49         6.9313   54.9958   27.4940 H         1 UNK         0.0000 
     50 H50         5.5883   53.8292   29.2258 H         1 UNK         0.0000 
     51 H51         5.9326   52.7327   27.8877 H         1 UNK         0.0000 
     52 H52         3.8269   52.5587   27.2805 H         1 UNK         0.0000 
     53 H53         2.3989   52.0974   26.5901 H         1 UNK         0.0000 
     54 H54         1.7050   53.4971   25.6776 H         1 UNK         0.0000 
     55 H55        -1.2068   52.9012   27.4266 H         1 UNK         0.0000 
     56 H56        -0.9264   51.3073   28.0720 H         1 UNK         0.0000 
     57 H57         0.4333   50.9252   29.6817 H         1 UNK         0.0000 
     58 H58         1.9438   51.1826   28.9488 H         1 UNK         0.0000 
     59 H59         1.9914   51.2933   31.6236 H         1 UNK         0.0000 
     60 H60         2.5811   52.7719   30.9113 H         1 UNK         0.0000 
     61 H61        -0.1576   52.2668   31.9586 H         1 UNK         0.0000 
     62 H62        -0.4937   54.6169   31.6804 H         1 UNK         0.0000 
     63 H63         1.0759   54.7602   30.8813 H         1 UNK         0.0000 
     64 H64        -0.8864   54.4765   29.1795 H         1 UNK         0.0000 
     65 H65        -1.2670   52.9991   29.9772 H         1 UNK         0.0000 
     66 H66        -2.4513   48.9138   24.6356 H         1 UNK         0.0000 
     67 H67        -0.5688   50.1685   22.5835 H         1 UNK         0.0000 
     68 H68        -1.8308   48.9901   22.2883 H         1 UNK         0.0000 
     69 H69        -2.2576   50.6102   22.8118 H         1 UNK         0.0000 
     70 H70         0.5631   48.5031   24.3976 H         1 UNK         0.0000 
     71 H71        -0.4950   47.7987   25.6185 H         1 UNK         0.0000 
     72 H72        -0.6855   47.3548   23.9308 H         1 UNK         0.0000 
     73 H73        -3.1447   49.5683   27.1846 H         1 UNK         0.0000 
     74 H74        -5.2469   49.6817   28.3954 H         1 UNK         0.0000 
     75 H75        -6.8370   51.5251   27.9759 H         1 UNK         0.0000 
     76 H76        -6.2983   53.2885   26.3217 H         1 UNK         0.0000 
     77 H77        -4.1505   53.2077   25.1022 H         1 UNK         0.0000 
     78 H78         1.0186   53.0965   32.6793 H         1 UNK         0.0000 
@<TRIPOS>BOND
     1    1    2 1    
     2    1   39 1    
     3    1   40 1    
     4    1   41 1    
     5    2    3 1    
     6    2   42 1    
     7    2   43 1    
     8    3    8 ar   
     9    3    4 ar   
    10    4    5 ar   
    11    4   44 1    
    12    5    6 ar   
    13    5   45 1    
    14    6    7 ar   
    15    6    9 1    
    16    7    8 ar   
    17    7   46 1    
    18    8   47 1    
    19    9   10 1    
    20    9   48 1    
    21    9   49 1    
    22   10   11 1    
    23   10   50 1    
    24   10   51 1    
    25   11   12 am   BACKBONE|DICT|INTERRES
    26   11   52 1    
    27   12   13 2    
    28   12   14 1    
    29   14   15 1    
    30   14   19 1    
    31   14   16 1    
    32   16   17 1    
    33   16   53 1    
    34   16   54 1    
    35   17   18 1    
    36   17   25 am   BACKBONE|DICT|INTERRES
    37   18   19 1    
    38   18   55 1    
    39   18   56 1    
    40   19   24 1    
    41   19   20 1    
    42   20   21 1    
    43   20   57 1    
    44   20   58 1    
    45   21   22 1    
    46   21   59 1    
    47   21   60 1    
    48   22   23 1    
    49   22   61 1    
    50   22   78 1    
    51   23   24 1    
    52   23   62 1    
    53   23   63 1    
    54   24   64 1    
    55   24   65 1    
    56   25   26 2    
    57   25   27 1    
    58   27   28 1    
    59   27   29 1    
    60   27   32 1    
    61   29   30 1    
    62   29   31 1    
    63   29   66 1    
    64   30   67 1    
    65   30   68 1    
    66   30   69 1    
    67   31   70 1    
    68   31   71 1    
    69   31   72 1    
    70   32   33 1    
    71   33   38 ar   
    72   33   34 ar   
    73   34   35 ar   
    74   34   73 1    
    75   35   36 ar   
    76   35   74 1    
    77   36   37 ar   
    78   36   75 1    
    79   37   38 ar   
    80   37   76 1    
    81   38   77 1    
@<TRIPOS>SUBSTRUCTURE
     1 UNK         1 GROUP             0       ****    0 ROOT    
