@<TRIPOS>MOLECULE
ZINC35646529_5751
77   80    1
SMALL
USER_CHARGES


@<TRIPOS>ATOM
      1 C1          2.3185   48.7102   20.8160 C.3       1 UNK         0.0000 
      2 C2          0.9157   49.3211   20.7630 C.3       1 UNK         0.0000 
      3 N3          0.7787   50.5323   21.6127 N.am      1 UNK         0.0000 
      4 C4          0.6952   50.5156   23.0086 C.2       1 UNK         0.0000 
      5 C5          0.7486   51.6807   23.7234 C.2       1 UNK         0.0000 
      6 C6          1.1996   52.9663   22.9936 C.3       1 UNK         0.0000 
      7 H7          0.7047   53.8447   23.4144 H         1 UNK         0.0000 
      8 N8          0.7873   52.8474   21.5830 N.am      1 UNK         0.0000 
      9 C9          0.6546   51.6955   20.8851 C.2       1 UNK         0.0000 
     10 O10         0.3562   51.8001   19.6941 O.2       1 UNK         0.0000 
     11 C11         2.6804   53.3478   23.1904 C.ar      1 UNK         0.0000 
     12 C12         3.0472   54.0982   24.3112 C.ar      1 UNK         0.0000 
     13 C13         4.3577   54.4969   24.5049 C.ar      1 UNK         0.0000 
     14 C14         5.3283   54.2300   23.5329 C.ar      1 UNK         0.0000 
     15 C15         4.9709   53.4941   22.4025 C.ar      1 UNK         0.0000 
     16 C16         3.6596   53.0510   22.2305 C.ar      1 UNK         0.0000 
     17 O17         6.6237   54.7016   23.6093 O.3       1 UNK         0.0000 
     18 C18         6.9380   55.6408   24.6388 C.3       1 UNK         0.0000 
     19 C19         0.5406   51.8299   25.1972 C.2       1 UNK         0.0000 
     20 O20         0.7041   52.8967   25.7786 O.2       1 UNK         0.0000 
     21 O21         0.1524   50.7347   25.8692 O.3       1 UNK         0.0000 
     22 C22        -0.0182   50.7376   27.2831 C.3       1 UNK         0.0000 
     23 C23        -1.2749   51.4918   27.7540 C.3       1 UNK         0.0000 
     24 C24         0.3198   49.1455   23.6133 C.3       1 UNK         0.0000 
     25 N25        -1.1083   48.9161   23.8796 N.3       1 UNK         0.0000 
     26 C26        -1.8446   48.5916   22.6490 C.3       1 UNK         0.0000 
     27 C27        -3.3333   48.2370   22.8927 C.3       1 UNK         0.0000 
     28 N28        -3.4167   47.2414   23.9830 N.am      1 UNK         0.0000 
     29 C29        -2.7786   47.6466   25.2523 C.3       1 UNK         0.0000 
     30 H30        -2.8085   46.8329   25.9798 H         1 UNK         0.0000 
     31 C31        -1.2841   47.8794   24.9072 C.3       1 UNK         0.0000 
     32 C32        -3.4570   48.8429   25.9444 C.3       1 UNK         0.0000 
     33 C33        -4.1040   46.0692   23.8961 C.2       1 UNK         0.0000 
     34 O34        -4.3511   45.3671   24.8819 O.2       1 UNK         0.0000 
     35 C35        -4.4933   45.5237   22.5405 C.ar      1 UNK         0.0000 
     36 C36        -3.5648   45.4599   21.4920 C.ar      1 UNK         0.0000 
     37 C37        -3.9249   44.9066   20.2666 C.ar      1 UNK         0.0000 
     38 C38        -5.2124   44.4013   20.0810 C.ar      1 UNK         0.0000 
     39 C39        -6.1336   44.4348   21.1289 C.ar      1 UNK         0.0000 
     40 C40        -5.7732   44.9862   22.3552 C.ar      1 UNK         0.0000 
     41 C41        -5.6005   43.7899   18.7479 C.3       1 UNK         0.0000 
     42 H42         2.3562   47.7801   20.2477 H         1 UNK         0.0000 
     43 H43         3.0496   49.3841   20.3617 H         1 UNK         0.0000 
     44 H44         2.6481   48.4942   21.8324 H         1 UNK         0.0000 
     45 H45         0.1644   48.5783   21.0121 H         1 UNK         0.0000 
     46 H46         0.7253   49.5208   19.7060 H         1 UNK         0.0000 
     47 H47         0.9393   53.6614   20.9986 H         1 UNK         0.0000 
     48 H48         2.3240   54.4053   25.0470 H         1 UNK         0.0000 
     49 H49         4.5839   55.0640   25.3938 H         1 UNK         0.0000 
     50 H50         5.7081   53.2851   21.6433 H         1 UNK         0.0000 
     51 H51         3.4098   52.4954   21.3391 H         1 UNK         0.0000 
     52 H52         7.9039   56.0965   24.4607 H         1 UNK         0.0000 
     53 H53         6.2271   56.4668   24.6747 H         1 UNK         0.0000 
     54 H54         6.9727   55.1562   25.6165 H         1 UNK         0.0000 
     55 H55        -0.0956   49.6967   27.5714 H         1 UNK         0.0000 
     56 H56         0.8735   51.1249   27.7804 H         1 UNK         0.0000 
     57 H57        -1.4468   51.3166   28.8162 H         1 UNK         0.0000 
     58 H58        -1.1797   52.5663   27.6049 H         1 UNK         0.0000 
     59 H59        -2.1617   51.1581   27.2164 H         1 UNK         0.0000 
     60 H60         0.9251   49.0005   24.5100 H         1 UNK         0.0000 
     61 H61         0.7095   48.3330   23.0170 H         1 UNK         0.0000 
     62 H62        -1.3825   47.7015   22.2193 H         1 UNK         0.0000 
     63 H63        -1.7925   49.4243   21.9467 H         1 UNK         0.0000 
     64 H64        -3.8203   47.9330   21.9680 H         1 UNK         0.0000 
     65 H65        -3.8547   49.1398   23.2094 H         1 UNK         0.0000 
     66 H66        -0.8637   46.9416   24.5403 H         1 UNK         0.0000 
     67 H67        -0.7508   48.1345   25.8247 H         1 UNK         0.0000 
     68 H68        -2.9504   49.0583   26.8817 H         1 UNK         0.0000 
     69 H69        -3.3990   49.7550   25.3507 H         1 UNK         0.0000 
     70 H70        -4.5026   48.6316   26.1775 H         1 UNK         0.0000 
     71 H71        -2.5572   45.8288   21.6190 H         1 UNK         0.0000 
     72 H72        -3.2022   44.8719   19.4637 H         1 UNK         0.0000 
     73 H73        -7.1282   44.0349   20.9973 H         1 UNK         0.0000 
     74 H74        -6.4969   45.0009   23.1594 H         1 UNK         0.0000 
     75 H75        -4.7443   43.3053   18.2769 H         1 UNK         0.0000 
     76 H76        -6.3655   43.0233   18.8729 H         1 UNK         0.0000 
     77 H77        -5.9787   44.5556   18.0711 H         1 UNK         0.0000 
@<TRIPOS>BOND
     1    1    2 1    
     2    1   42 1    
     3    1   43 1    
     4    1   44 1    
     5    2    3 1    
     6    2   45 1    
     7    2   46 1    
     8    3    9 am   BACKBONE|DICT|INTERRES
     9    3    4 1    
    10    4    5 2    
    11    4   24 1    
    12    5    6 1    
    13    5   19 1    
    14    6    7 1    
    15    6    8 1    
    16    6   11 1    
    17    8    9 am   BACKBONE|DICT|INTERRES
    18    8   47 1    
    19    9   10 2    
    20   11   16 ar   
    21   11   12 ar   
    22   12   13 ar   
    23   12   48 1    
    24   13   14 ar   
    25   13   49 1    
    26   14   15 ar   
    27   14   17 1    
    28   15   16 ar   
    29   15   50 1    
    30   16   51 1    
    31   17   18 1    
    32   18   52 1    
    33   18   53 1    
    34   18   54 1    
    35   19   20 2    
    36   19   21 1    
    37   21   22 1    
    38   22   23 1    
    39   22   55 1    
    40   22   56 1    
    41   23   57 1    
    42   23   58 1    
    43   23   59 1    
    44   24   25 1    
    45   24   60 1    
    46   24   61 1    
    47   25   31 1    
    48   25   26 1    
    49   26   27 1    
    50   26   62 1    
    51   26   63 1    
    52   27   28 1    
    53   27   64 1    
    54   27   65 1    
    55   28   29 1    
    56   28   33 am   BACKBONE|DICT|INTERRES
    57   29   30 1    
    58   29   31 1    
    59   29   32 1    
    60   31   66 1    
    61   31   67 1    
    62   32   68 1    
    63   32   69 1    
    64   32   70 1    
    65   33   34 2    
    66   33   35 1    
    67   35   40 ar   
    68   35   36 ar   
    69   36   37 ar   
    70   36   71 1    
    71   37   38 ar   
    72   37   72 1    
    73   38   39 ar   
    74   38   41 1    
    75   39   40 ar   
    76   39   73 1    
    77   40   74 1    
    78   41   75 1    
    79   41   76 1    
    80   41   77 1    
@<TRIPOS>SUBSTRUCTURE
     1 UNK         1 GROUP             0       ****    0 ROOT    
