ZINC09155190_4059
                    3D
 Schrodinger Suite 2024-2.
 58 62  0  0  1  0            999 V2000
    2.9624   58.9549   16.3207 C   0  0  0  0  0  0
    4.1611   58.8292   15.3511 C   0  0  0  0  0  0
    5.4010   57.9960   15.8295 C   0  0  2  0  0  0
    4.9109   56.6194   16.2647 C   0  0  0  0  0  0
    4.2405   55.8330   15.5906 O   0  0  0  0  0  0
    5.3026   56.4898   17.5490 N   0  0  0  0  0  0
    5.9044   57.5842   18.0807 C   0  0  0  0  0  0
    6.4448   57.6969   19.1822 O   0  0  0  0  0  0
    5.8836   58.4967   17.1004 N   0  0  0  0  0  0
    4.9044   55.4032   18.3351 N   0  0  0  0  0  0
    5.7062   54.3169   18.4094 C   0  0  0  0  0  0
    6.7536   54.1972   17.7708 O   0  0  0  0  0  0
    5.3454   53.1948   19.3888 C   0  0  0  0  0  0
    3.1001   52.3761   18.5209 C   0  0  0  0  0  0
    1.5903   52.3056   18.8012 C   0  0  0  0  0  0
    1.4186   51.5255   20.0840 C   0  0  0  0  0  0
    2.3647   51.5020   21.1138 C   0  0  0  0  0  0
    1.9504   50.6688   22.1675 C   0  0  0  0  0  0
    0.6958   50.1137   21.9733 C   0  0  0  0  0  0
    0.0027   50.5962   20.4631 S   0  0  0  0  0  0
    3.6928   52.2757   21.0730 C   0  0  2  0  0  0
    4.4902   51.5291   21.0616 H   0  0  0  0  0  0
    3.8602   53.2320   22.2538 C   0  0  0  0  0  0
    2.8694   53.8209   23.0433 C   0  0  0  0  0  0
    3.3459   54.4954   24.1681 C   0  0  0  0  0  0
    4.7244   54.4965   24.2438 C   0  0  0  0  0  0
    5.4267   53.6960   22.8876 S   0  0  0  0  0  0
    6.5513   57.8741   14.7871 C   0  0  0  0  0  0
    6.3212   58.0859   13.4163 C   0  0  0  0  0  0
    7.3515   57.9498   12.4897 C   0  0  0  0  0  0
    8.6253   57.5904   12.9182 C   0  0  0  0  0  0
    8.8780   57.3626   14.2670 C   0  0  0  0  0  0
    7.8472   57.4997   15.1923 C   0  0  0  0  0  0
    2.2109   59.6319   15.9139 H   0  0  0  0  0  0
    2.4693   58.0000   16.5019 H   0  0  0  0  0  0
    3.2642   59.3662   17.2817 H   0  0  0  0  0  0
    4.5024   59.8355   15.1102 H   0  0  0  0  0  0
    3.7600   58.4195   14.4239 H   0  0  0  0  0  0
    5.8992   59.4973   17.2810 H   0  0  0  0  0  0
    4.0746   55.5780   18.8835 H   0  0  0  0  0  0
    5.8771   53.4155   20.3050 H   0  0  0  0  0  0
    5.6985   52.2227   19.0473 H   0  0  0  0  0  0
    3.2949   52.9744   17.6294 H   0  0  0  0  0  0
    3.5044   51.3731   18.3874 H   0  0  0  0  0  0
    1.1533   53.2967   18.8891 H   0  0  0  0  0  0
    1.0724   51.8205   17.9730 H   0  0  0  0  0  0
    2.5458   50.4885   23.0522 H   0  0  0  0  0  0
    0.1568   49.4542   22.6380 H   0  0  0  0  0  0
    1.8149   53.7074   22.8363 H   0  0  0  0  0  0
    2.7042   54.9530   24.9017 H   0  0  0  0  0  0
    5.3516   54.9449   25.0004 H   0  0  0  0  0  0
    5.3485   58.3574   13.0365 H   0  0  0  0  0  0
    7.1605   58.1202   11.4395 H   0  0  0  0  0  0
    9.4220   57.4832   12.1973 H   0  0  0  0  0  0
    9.8664   57.0739   14.5960 H   0  0  0  0  0  0
    8.0697   57.3055   16.2315 H   0  0  0  0  0  0
    3.8232   53.0547   19.7223 N   0  3  1  0  0  0
    3.4002   53.9623   19.8645 H   0  0  0  0  0  0
  1  2  1  0  0  0
  1 34  1  0  0  0
  1 35  1  0  0  0
  1 36  1  0  0  0
  2  3  1  0  0  0
  2 37  1  0  0  0
  2 38  1  0  0  0
  3  9  1  0  0  0
  3  4  1  0  0  0
  3 28  1  0  0  0
  4  5  2  0  0  0
  4  6  1  0  0  0
  6  7  1  0  0  0
  6 10  1  0  0  0
  7  8  2  0  0  0
  7  9  1  0  0  0
  9 39  1  0  0  0
 10 11  1  0  0  0
 10 40  1  0  0  0
 11 12  2  0  0  0
 11 13  1  0  0  0
 13 41  1  0  0  0
 13 42  1  0  0  0
 13 57  1  0  0  0
 14 15  1  0  0  0
 14 43  1  0  0  0
 14 44  1  0  0  0
 14 57  1  0  0  0
 15 16  1  0  0  0
 15 45  1  0  0  0
 15 46  1  0  0  0
 16 20  1  0  0  0
 16 17  2  0  0  0
 17 18  1  0  0  0
 17 21  1  0  0  0
 18 19  2  0  0  0
 18 47  1  0  0  0
 19 20  1  0  0  0
 19 48  1  0  0  0
 21 22  1  0  0  0
 21 23  1  0  0  0
 21 57  1  0  0  0
 23 27  1  0  0  0
 23 24  2  0  0  0
 24 25  1  0  0  0
 24 49  1  0  0  0
 25 26  2  0  0  0
 25 50  1  0  0  0
 26 27  1  0  0  0
 26 51  1  0  0  0
 28 33  2  0  0  0
 28 29  1  0  0  0
 29 30  2  0  0  0
 29 52  1  0  0  0
 30 31  1  0  0  0
 30 53  1  0  0  0
 31 32  2  0  0  0
 31 54  1  0  0  0
 32 33  1  0  0  0
 32 55  1  0  0  0
 33 56  1  0  0  0
 57 58  1  0  0  0
M  CHG  1  57   1
M  END
> <i_i_glide_confnum>
13

> <i_i_glide_lignum>
4060

> <i_i_glide_posenum>
350

> <i_i_glide_rotatable_bonds>
7

> <i_m_Source_File_Index>
2421

> <b_m_subgroup_collapsed>
0

> <r_i_docking_score>
-3.3869

> <r_i_glide_ecoul>
-5.28089

> <r_i_glide_eff_state_penalty>
0

> <r_i_glide_einternal>
9.32035

> <r_i_glide_emodel>
-40.5911

> <r_i_glide_energy>
-34.6825

> <r_i_glide_erotb>
0.524791

> <r_i_glide_esite>
-0.124115

> <r_i_glide_evdw>
-29.4017

> <r_i_glide_gscore>
-3.3869

> <r_i_glide_hbond>
-0.150088

> <r_i_glide_ligand_efficiency>
-0.102633

> <r_i_glide_ligand_efficiency_ln>
-0.753228

> <r_i_glide_ligand_efficiency_sa>
-0.3292

> <r_i_glide_lipo>
-1.17895

> <r_i_glide_metal>
0

> <r_i_glide_rewards>
-0.196315

> <s_i_glide_gridfile>
wee1_glide-grid

> <s_m_Source_File>
wee1_decoys_glide_SP.sdf

> <s_m_Source_Path>
/Users/zhangxujun/Desktop

> <s_m_entry_id>
2696

> <s_m_entry_name>
wee1_decoys_glide_SP.2421

> <s_m_subgroup_title>
wee1_decoys_glide_SP

> <s_m_subgroupid>
wee1_decoys_glide_SP


$$$$
