@<TRIPOS>MOLECULE
ZINC66091374_1503
42   45    1
SMALL
USER_CHARGES


@<TRIPOS>ATOM
      1 C1          9.1370   56.2375   18.2823 C.3       1 UNK         0.0000 
      2 N2          7.7435   55.8272   18.3804 N.pl3     1 UNK         0.0000 
      3 C3          7.0995   55.5268   19.5516 C.2       1 UNK         0.0000 
      4 N4          7.5933   55.6962   20.7550 N.2       1 UNK         0.0000 
      5 C5          6.7500   55.2730   21.6703 C.2       1 UNK         0.0000 
      6 C6          5.5306   54.7693   21.2388 C.2       1 UNK         0.0000 
      7 S7          5.4979   54.8443   19.4995 S.3       1 UNK         0.0000 
      8 C8          4.4356   54.3631   22.2157 C.3       1 UNK         0.0000 
      9 H9          3.8430   55.2745   22.3622 H         1 UNK         0.0000 
     10 C10         5.1170   53.9807   23.5794 C.3       1 UNK         0.0000 
     11 C11         6.3534   54.8250   24.0127 C.2       1 UNK         0.0000 
     12 O12         6.7044   54.9733   25.1812 O.2       1 UNK         0.0000 
     13 N13         7.1041   55.2942   22.9943 N.am      1 UNK         0.0000 
     14 C14         3.4455   53.2631   21.7683 C.ar      1 UNK         0.0000 
     15 C15         3.8661   52.1892   20.9591 C.ar      1 UNK         0.0000 
     16 C16         2.9274   51.2268   20.5982 C.ar      1 UNK         0.0000 
     17 C17         1.6246   51.2879   21.0016 C.ar      1 UNK         0.0000 
     18 C18         1.1640   52.3181   21.8278 C.ar      1 UNK         0.0000 
     19 C19         2.1063   53.2917   22.2294 C.ar      1 UNK         0.0000 
     20 O20         1.7195   54.3183   23.0533 O.3       1 UNK         0.0000 
     21 C21         1.3631   53.9278   24.3670 C.3       1 UNK         0.0000 
     22 O22        -0.1484   52.4398   22.2578 O.3       1 UNK         0.0000 
     23 C23        -1.1393   51.5145   21.8285 C.3       1 UNK         0.0000 
     24 O24         0.9608   50.2050   20.5048 O.3       1 UNK         0.0000 
     25 C25         1.8312   49.6078   19.5889 C.3       1 UNK         0.0000 
     26 O26         3.1061   50.0973   19.8649 O.3       1 UNK         0.0000 
     27 H27         9.7967   55.3918   18.4809 H         1 UNK         0.0000 
     28 H28         9.3554   56.6053   17.2794 H         1 UNK         0.0000 
     29 H29         9.3697   57.0252   19.0004 H         1 UNK         0.0000 
     30 H30         7.4205   55.3778   17.5352 H         1 UNK         0.0000 
     31 H31         4.3942   53.9887   24.3938 H         1 UNK         0.0000 
     32 H32         5.5041   52.9647   23.4978 H         1 UNK         0.0000 
     33 H33         7.9910   55.6965   23.2817 H         1 UNK         0.0000 
     34 H34         4.8892   52.1096   20.6224 H         1 UNK         0.0000 
     35 H35         0.4932   53.2750   24.4178 H         1 UNK         0.0000 
     36 H36         2.1902   53.4544   24.8972 H         1 UNK         0.0000 
     37 H37         1.1045   54.8394   24.8819 H         1 UNK         0.0000 
     38 H38        -2.1035   51.8018   22.2479 H         1 UNK         0.0000 
     39 H39        -1.2426   51.5154   20.7430 H         1 UNK         0.0000 
     40 H40        -0.9212   50.5035   22.1761 H         1 UNK         0.0000 
     41 H41         1.8117   48.5210   19.6718 H         1 UNK         0.0000 
     42 H42         1.5560   49.8902   18.5703 H         1 UNK         0.0000 
@<TRIPOS>BOND
     1    1    2 1    
     2    1   27 1    
     3    1   28 1    
     4    1   29 1    
     5    2    3 1    
     6    2   30 1    
     7    3    7 1    
     8    3    4 2    
     9    4    5 1    
    10    5   13 1    
    11    5    6 2    
    12    6    7 1    
    13    6    8 1    
    14    8    9 1    
    15    8   10 1    
    16    8   14 1    
    17   10   11 1    
    18   10   31 1    
    19   10   32 1    
    20   11   12 2    
    21   11   13 am   BACKBONE|DICT|INTERRES
    22   13   33 1    
    23   14   19 ar   
    24   14   15 ar   
    25   15   16 ar   
    26   15   34 1    
    27   16   26 1    
    28   16   17 ar   
    29   17   18 ar   
    30   17   24 1    
    31   18   19 ar   
    32   18   22 1    
    33   19   20 1    
    34   20   21 1    
    35   21   35 1    
    36   21   36 1    
    37   21   37 1    
    38   22   23 1    
    39   23   38 1    
    40   23   39 1    
    41   23   40 1    
    42   24   25 1    
    43   25   26 1    
    44   25   41 1    
    45   25   42 1    
@<TRIPOS>SUBSTRUCTURE
     1 UNK         1 GROUP             0       ****    0 ROOT    
