@<TRIPOS>MOLECULE
ZINC65924952_1821
46   49    1
SMALL
USER_CHARGES


@<TRIPOS>ATOM
      1 C1         -1.1787   51.5719   23.1409 C.ar      1 UNK         0.0000 
      2 C2         -0.2271   52.4007   23.7288 C.ar      1 UNK         0.0000 
      3 C3          0.4508   52.0108   24.8906 C.ar      1 UNK         0.0000 
      4 C4          0.1812   50.7436   25.4309 C.ar      1 UNK         0.0000 
      5 C5         -0.7960   49.9179   24.8688 C.ar      1 UNK         0.0000 
      6 C6         -1.4722   50.3372   23.7133 C.ar      1 UNK         0.0000 
      7 N7         -1.1090   48.7375   25.5601 N.am      1 UNK         0.0000 
      8 C8         -1.7159   47.6380   25.0872 C.2       1 UNK         0.0000 
      9 O9         -1.9475   47.3632   23.9130 O.2       1 UNK         0.0000 
     10 N10        -2.0958   46.8540   26.0818 N.am      1 UNK         0.0000 
     11 C11         1.4961   52.9426   25.4641 C.2       1 UNK         0.0000 
     12 O12         2.2997   53.4314   24.6642 O.2       1 UNK         0.0000 
     13 N13         1.5054   53.2751   26.7944 N.am      1 UNK         0.0000 
     14 C14         0.5523   52.7603   27.7980 C.3       1 UNK         0.0000 
     15 C15         1.1708   52.3830   29.1736 C.3       1 UNK         0.0000 
     16 C16         2.6199   51.8006   29.1201 C.3       1 UNK         0.0000 
     17 C17         3.7720   52.8410   28.9887 C.3       1 UNK         0.0000 
     18 C18         3.5922   53.9275   30.0528 C.3       1 UNK         0.0000 
     19 C19         2.2087   54.6039   29.8584 C.3       1 UNK         0.0000 
     20 C20         1.1005   53.5754   30.1524 C.3       1 UNK         0.0000 
     21 C21         2.0862   55.2033   28.4358 C.3       1 UNK         0.0000 
     22 C22         2.5239   54.2399   27.2818 C.3       1 UNK         0.0000 
     23 C23         3.8513   53.5359   27.6194 C.3       1 UNK         0.0000 
     24 H24        -1.6986   51.8898   22.2497 H         1 UNK         0.0000 
     25 H25        -0.0150   53.3596   23.2809 H         1 UNK         0.0000 
     26 H26         0.7183   50.3943   26.3017 H         1 UNK         0.0000 
     27 H27        -2.2425   49.7304   23.2628 H         1 UNK         0.0000 
     28 H28        -0.8940   48.7264   26.5517 H         1 UNK         0.0000 
     29 H29        -1.8931   47.1567   27.0366 H         1 UNK         0.0000 
     30 H30        -2.7006   46.0712   25.9168 H         1 UNK         0.0000 
     31 H31        -0.1653   53.5598   27.9787 H         1 UNK         0.0000 
     32 H32        -0.0507   51.9283   27.4595 H         1 UNK         0.0000 
     33 H33         0.5202   51.6078   29.5825 H         1 UNK         0.0000 
     34 H34         2.7911   51.2968   30.0668 H         1 UNK         0.0000 
     35 H35         2.6979   51.0365   28.3491 H         1 UNK         0.0000 
     36 H36         4.7222   52.3314   29.1603 H         1 UNK         0.0000 
     37 H37         3.6944   53.4471   31.0241 H         1 UNK         0.0000 
     38 H38         4.3936   54.6665   29.9925 H         1 UNK         0.0000 
     39 H39         2.1001   55.4263   30.5659 H         1 UNK         0.0000 
     40 H40         0.1180   54.0496   30.1245 H         1 UNK         0.0000 
     41 H41         1.2103   53.2094   31.1750 H         1 UNK         0.0000 
     42 H42         1.0748   55.5725   28.2592 H         1 UNK         0.0000 
     43 H43         2.7052   56.0952   28.4061 H         1 UNK         0.0000 
     44 H44         2.7460   54.8963   26.4401 H         1 UNK         0.0000 
     45 H45         4.6607   54.2679   27.6238 H         1 UNK         0.0000 
     46 H46         4.1194   52.8223   26.8412 H         1 UNK         0.0000 
@<TRIPOS>BOND
     1    1    6 ar   
     2    1    2 ar   
     3    1   24 1    
     4    2    3 ar   
     5    2   25 1    
     6    3    4 ar   
     7    3   11 1    
     8    4    5 ar   
     9    4   26 1    
    10    5    6 ar   
    11    5    7 1    
    12    6   27 1    
    13    7    8 am   BACKBONE|DICT|INTERRES
    14    7   28 1    
    15    8    9 2    
    16    8   10 am   BACKBONE|DICT|INTERRES
    17   10   29 1    
    18   10   30 1    
    19   11   12 2    
    20   11   13 am   BACKBONE|DICT|INTERRES
    21   13   22 1    
    22   13   14 1    
    23   14   15 1    
    24   14   31 1    
    25   14   32 1    
    26   15   20 1    
    27   15   16 1    
    28   15   33 1    
    29   16   17 1    
    30   16   34 1    
    31   16   35 1    
    32   17   23 1    
    33   17   18 1    
    34   17   36 1    
    35   18   19 1    
    36   18   37 1    
    37   18   38 1    
    38   19   20 1    
    39   19   21 1    
    40   19   39 1    
    41   20   40 1    
    42   20   41 1    
    43   21   22 1    
    44   21   42 1    
    45   21   43 1    
    46   22   23 1    
    47   22   44 1    
    48   23   45 1    
    49   23   46 1    
@<TRIPOS>SUBSTRUCTURE
     1 UNK         1 GROUP             0       ****    0 ROOT    
