ZINC20418921_5741
                    3D
 Schrodinger Suite 2024-2.
 72 76  0  0  1  0            999 V2000
    2.7595   54.1345   16.8818 C   0  0  0  0  0  0
    4.0501   54.4309   17.6388 C   0  0  0  0  0  0
    5.2191   54.9352   17.1530 C   0  0  0  0  0  0
    6.4607   55.1187   18.0847 C   0  0  1  0  0  0
    6.8536   56.1257   17.9165 H   0  0  0  0  0  0
    6.0672   54.9862   19.5851 C   0  0  0  0  0  0
    4.8303   54.5714   19.9492 C   0  0  0  0  0  0
    3.9043   54.2326   18.9941 N   0  0  0  0  0  0
    4.3717   54.4016   21.3951 C   0  0  0  0  0  0
    5.5621   54.1360   22.3456 C   0  0  1  0  0  0
    5.9116   53.1197   22.1622 H   0  0  0  0  0  0
    6.7193   55.1385   22.0795 C   0  0  0  0  0  0
    7.0453   55.4020   20.6044 C   0  0  0  0  0  0
    8.0192   56.0960   20.3200 O   0  0  0  0  0  0
    5.1757   54.1482   23.8406 C   0  0  0  0  0  0
    3.8364   54.0963   24.2498 C   0  0  0  0  0  0
    3.5043   54.1115   25.6001 C   0  0  0  0  0  0
    4.4910   54.2268   26.5886 C   0  0  0  0  0  0
    5.8298   54.2650   26.1757 C   0  0  0  0  0  0
    6.1692   54.2138   24.8261 C   0  0  0  0  0  0
    4.1379   54.3138   27.9612 N   0  0  0  0  0  0
    5.1725   54.4358   28.9857 C   0  0  0  0  0  0
    2.7670   54.0381   28.3963 C   0  0  0  0  0  0
    7.6670   54.2439   17.6811 C   0  0  0  0  0  0
    7.4666   52.9177   17.2815 C   0  0  0  0  0  0
    8.5392   52.1282   16.8817 C   0  0  0  0  0  0
    9.8394   52.6481   16.8815 C   0  0  0  0  0  0
   10.0403   53.9754   17.2822 C   0  0  0  0  0  0
    8.9656   54.7643   17.6796 C   0  0  0  0  0  0
   10.9914   51.8002   16.4786 N   0  3  0  0  0  0
   10.7738   50.6362   16.1464 O   0  0  0  0  0  0
   12.1150   52.2966   16.4853 O   0  5  0  0  0  0
    5.4224   55.2190   15.7046 C   0  0  0  0  0  0
    4.6623   54.8375   14.8114 O   0  0  0  0  0  0
    6.5437   55.9358   15.4526 O   0  0  0  0  0  0
    6.9279   56.2726   14.1247 C   0  0  0  0  0  0
    8.2671   57.0374   14.1224 C   0  0  2  0  0  0
    8.1199   58.0246   14.5652 H   0  0  0  0  0  0
    8.9928   57.0517   12.7783 C   0  0  0  0  0  0
   10.4636   57.1442   13.1270 C   0  0  0  0  0  0
   10.5308   56.6861   14.5832 C   0  0  0  0  0  0
    9.1973   56.3124   14.9241 O   0  0  0  0  0  0
    2.5719   54.8635   16.0932 H   0  0  0  0  0  0
    2.8115   53.1408   16.4344 H   0  0  0  0  0  0
    1.8838   54.1655   17.5299 H   0  0  0  0  0  0
    2.9643   54.0575   19.3192 H   0  0  0  0  0  0
    3.8167   55.2966   21.6816 H   0  0  0  0  0  0
    3.7185   53.5304   21.4713 H   0  0  0  0  0  0
    6.4462   56.0972   22.5162 H   0  0  0  0  0  0
    7.6468   54.8188   22.5478 H   0  0  0  0  0  0
    3.0264   54.0316   23.5409 H   0  0  0  0  0  0
    2.4574   54.0775   25.8546 H   0  0  0  0  0  0
    6.6337   54.3276   26.8923 H   0  0  0  0  0  0
    7.2140   54.2349   24.5592 H   0  0  0  0  0  0
    5.8010   53.5452   28.9777 H   0  0  0  0  0  0
    5.8145   55.2962   28.7877 H   0  0  0  0  0  0
    4.7499   54.5492   29.9848 H   0  0  0  0  0  0
    2.0682   54.7418   27.9420 H   0  0  0  0  0  0
    2.4701   53.0339   28.0900 H   0  0  0  0  0  0
    2.6514   54.1024   29.4777 H   0  0  0  0  0  0
    6.4723   52.4913   17.2878 H   0  0  0  0  0  0
    8.3513   51.1071   16.5863 H   0  0  0  0  0  0
   11.0328   54.4031   17.3009 H   0  0  0  0  0  0
    9.1497   55.7849   17.9757 H   0  0  0  0  0  0
    6.1488   56.9310   13.7354 H   0  0  0  0  0  0
    6.9661   55.3925   13.4801 H   0  0  0  0  0  0
    8.6287   57.8454   12.1254 H   0  0  0  0  0  0
    8.7918   56.1240   12.2373 H   0  0  0  0  0  0
   10.8230   58.1682   13.0324 H   0  0  0  0  0  0
   11.0687   56.5162   12.4743 H   0  0  0  0  0  0
   10.8638   57.4883   15.2448 H   0  0  0  0  0  0
   11.2034   55.8383   14.7260 H   0  0  0  0  0  0
  1  2  1  0  0  0
  1 43  1  0  0  0
  1 44  1  0  0  0
  1 45  1  0  0  0
  2  8  1  0  0  0
  2  3  2  0  0  0
  3  4  1  0  0  0
  3 33  1  0  0  0
  4  5  1  0  0  0
  4  6  1  0  0  0
  4 24  1  0  0  0
  6 13  1  0  0  0
  6  7  2  0  0  0
  7  8  1  0  0  0
  7  9  1  0  0  0
  8 46  1  0  0  0
  9 10  1  0  0  0
  9 47  1  0  0  0
  9 48  1  0  0  0
 10 11  1  0  0  0
 10 12  1  0  0  0
 10 15  1  0  0  0
 12 13  1  0  0  0
 12 49  1  0  0  0
 12 50  1  0  0  0
 13 14  2  0  0  0
 15 20  2  0  0  0
 15 16  1  0  0  0
 16 17  2  0  0  0
 16 51  1  0  0  0
 17 18  1  0  0  0
 17 52  1  0  0  0
 18 19  2  0  0  0
 18 21  1  0  0  0
 19 20  1  0  0  0
 19 53  1  0  0  0
 20 54  1  0  0  0
 21 22  1  0  0  0
 21 23  1  0  0  0
 22 55  1  0  0  0
 22 56  1  0  0  0
 22 57  1  0  0  0
 23 58  1  0  0  0
 23 59  1  0  0  0
 23 60  1  0  0  0
 24 29  2  0  0  0
 24 25  1  0  0  0
 25 26  2  0  0  0
 25 61  1  0  0  0
 26 27  1  0  0  0
 26 62  1  0  0  0
 27 28  2  0  0  0
 27 30  1  0  0  0
 28 29  1  0  0  0
 28 63  1  0  0  0
 29 64  1  0  0  0
 30 31  2  0  0  0
 30 32  1  0  0  0
 33 34  2  0  0  0
 33 35  1  0  0  0
 35 36  1  0  0  0
 36 37  1  0  0  0
 36 65  1  0  0  0
 36 66  1  0  0  0
 37 38  1  0  0  0
 37 42  1  0  0  0
 37 39  1  0  0  0
 39 40  1  0  0  0
 39 67  1  0  0  0
 39 68  1  0  0  0
 40 41  1  0  0  0
 40 69  1  0  0  0
 40 70  1  0  0  0
 41 42  1  0  0  0
 41 71  1  0  0  0
 41 72  1  0  0  0
M  CHG  2  30   1  32  -1
M  END
> <i_i_glide_confnum>
26

> <i_i_glide_lignum>
5742

> <i_i_glide_posenum>
343

> <i_i_glide_rotatable_bonds>
8

> <i_m_Source_File_Index>
1231

> <b_m_subgroup_collapsed>
0

> <r_i_docking_score>
-5.61938

> <r_i_glide_ecoul>
-2.09124

> <r_i_glide_eff_state_penalty>
0

> <r_i_glide_einternal>
3.57061

> <r_i_glide_emodel>
-55.0646

> <r_i_glide_energy>
-41.0072

> <r_i_glide_erotb>
0.364846

> <r_i_glide_esite>
-0.0365651

> <r_i_glide_evdw>
-38.916

> <r_i_glide_gscore>
-5.61938

> <r_i_glide_hbond>
-0.233584

> <r_i_glide_ligand_efficiency>
-0.144087

> <r_i_glide_ligand_efficiency_ln>
-1.20495

> <r_i_glide_ligand_efficiency_sa>
-0.488628

> <r_i_glide_lipo>
-2.8452

> <r_i_glide_metal>
0

> <r_i_glide_rewards>
-0.609389

> <s_i_glide_gridfile>
wee1_glide-grid

> <s_m_Source_File>
wee1_decoys_glide_SP.sdf

> <s_m_Source_Path>
/Users/zhangxujun/Desktop

> <s_m_entry_id>
1506

> <s_m_entry_name>
wee1_decoys_glide_SP.1231

> <s_m_subgroup_title>
wee1_decoys_glide_SP

> <s_m_subgroupid>
wee1_decoys_glide_SP


$$$$
