@<TRIPOS>MOLECULE
ZINC13865323_4952
64   68    1
SMALL
USER_CHARGES


@<TRIPOS>ATOM
      1 C1          5.0757   54.7750   29.5483 C.3       1 UNK         0.0000 
      2 O2          4.3043   53.7054   30.0813 O.3       1 UNK         0.0000 
      3 C3          3.1106   53.4298   29.4703 C.ar      1 UNK         0.0000 
      4 C4          2.3416   54.4053   28.8280 C.ar      1 UNK         0.0000 
      5 C5          1.1725   54.0414   28.1888 C.ar      1 UNK         0.0000 
      6 C6          0.7609   52.7097   28.1769 C.ar      1 UNK         0.0000 
      7 C7          1.4894   51.7511   28.8817 C.ar      1 UNK         0.0000 
      8 C8          2.6690   52.1118   29.5223 C.ar      1 UNK         0.0000 
      9 C9         -0.4341   52.3918   27.3918 C.2       1 UNK         0.0000 
     10 C10        -0.6138   51.4096   26.4723 C.2       1 UNK         0.0000 
     11 C11         0.4569   50.3835   26.0545 C.3       1 UNK         0.0000 
     12 C12        -0.1045   49.0765   25.4555 C.3       1 UNK         0.0000 
     13 C13        -1.1707   49.3673   24.3927 C.3       1 UNK         0.0000 
     14 C14        -2.3381   50.1785   25.0067 C.3       1 UNK         0.0000 
     15 H15        -2.8193   49.5318   25.7408 H         1 UNK         0.0000 
     16 C16        -1.8603   51.4165   25.7370 C.2       1 UNK         0.0000 
     17 N17        -2.6846   52.3823   25.6261 N.2       1 UNK         0.0000 
     18 N18        -3.7011   52.0323   24.8078 N.am      1 UNK         0.0000 
     19 C19        -3.4129   50.7769   24.0932 C.3       1 UNK         0.0000 
     20 H20        -4.2768   50.1113   24.0798 H         1 UNK         0.0000 
     21 C21        -2.9773   51.0167   22.6349 C.ar      1 UNK         0.0000 
     22 C22        -1.9594   51.9317   22.3338 C.ar      1 UNK         0.0000 
     23 C23        -1.5172   52.0920   21.0249 C.ar      1 UNK         0.0000 
     24 C24        -2.1137   51.3627   19.9867 C.ar      1 UNK         0.0000 
     25 C25        -3.1529   50.4811   20.2840 C.ar      1 UNK         0.0000 
     26 C26        -3.5766   50.2976   21.5974 C.ar      1 UNK         0.0000 
     27 O27        -1.7380   51.4489   18.6600 O.3       1 UNK         0.0000 
     28 C28        -0.6046   52.2356   18.3031 C.3       1 UNK         0.0000 
     29 C29        -4.8721   52.7043   24.8897 C.2       1 UNK         0.0000 
     30 O30        -4.9401   53.9327   24.7833 O.2       1 UNK         0.0000 
     31 C31        -6.1366   51.9160   25.2600 C.3       1 UNK         0.0000 
     32 S32        -6.6485   52.2236   26.9911 S.3       1 UNK         0.0000 
     33 C33        -5.5527   51.1867   27.9226 C.ar      1 UNK         0.0000 
     34 N34        -5.4924   51.2779   29.2485 N.2       1 UNK         0.0000 
     35 C35        -4.5616   50.4131   29.5596 C.ar      1 UNK         0.0000 
     36 N36        -4.0956   49.8128   28.4323 N.pl3     1 UNK         0.0000 
     37 H37        -3.3544   49.1189   28.3883 H         1 UNK         0.0000 
     38 N38        -4.7460   50.2965   27.3736 N.2       1 UNK         0.0000 
     39 N39        -4.0924   50.0964   30.7968 N.pl3     1 UNK         0.0000 
     40 H40         6.0133   54.8968   30.0807 H         1 UNK         0.0000 
     41 H41         5.3000   54.6328   28.4897 H         1 UNK         0.0000 
     42 H42         4.5384   55.6967   29.6816 H         1 UNK         0.0000 
     43 H43         2.6327   55.4434   28.8005 H         1 UNK         0.0000 
     44 H44         0.6159   54.8110   27.6818 H         1 UNK         0.0000 
     45 H45         1.1520   50.7318   28.9306 H         1 UNK         0.0000 
     46 H46         3.2669   51.3744   30.0335 H         1 UNK         0.0000 
     47 H47        -1.2550   53.0644   27.5988 H         1 UNK         0.0000 
     48 H48         1.1042   50.8562   25.3138 H         1 UNK         0.0000 
     49 H49         1.1048   50.1147   26.8817 H         1 UNK         0.0000 
     50 H50         0.7039   48.4882   25.0217 H         1 UNK         0.0000 
     51 H51        -0.5278   48.4596   26.2486 H         1 UNK         0.0000 
     52 H52        -1.5486   48.4333   23.9746 H         1 UNK         0.0000 
     53 H53        -0.6954   49.8984   23.5679 H         1 UNK         0.0000 
     54 H54        -1.4767   52.4930   23.1204 H         1 UNK         0.0000 
     55 H55        -0.6930   52.7638   20.8411 H         1 UNK         0.0000 
     56 H56        -3.6176   49.9166   19.4890 H         1 UNK         0.0000 
     57 H57        -4.3655   49.5898   21.8036 H         1 UNK         0.0000 
     58 H58        -0.4048   52.1126   17.2392 H         1 UNK         0.0000 
     59 H59         0.2932   51.9261   18.8413 H         1 UNK         0.0000 
     60 H60        -0.7809   53.2970   18.4813 H         1 UNK         0.0000 
     61 H61        -6.9347   52.2573   24.6011 H         1 UNK         0.0000 
     62 H62        -6.0511   50.8476   25.0789 H         1 UNK         0.0000 
     63 H63        -4.4193   50.5436   31.6413 H         1 UNK         0.0000 
     64 H64        -3.2233   49.5600   30.8819 H         1 UNK         0.0000 
@<TRIPOS>BOND
     1    1    2 1    
     2    1   40 1    
     3    1   41 1    
     4    1   42 1    
     5    2    3 1    
     6    3    8 ar   
     7    3    4 ar   
     8    4    5 ar   
     9    4   43 1    
    10    5    6 ar   
    11    5   44 1    
    12    6    7 ar   
    13    6    9 1    
    14    7    8 ar   
    15    7   45 1    
    16    8   46 1    
    17    9   10 2    
    18    9   47 1    
    19   10   16 1    
    20   10   11 1    
    21   11   12 1    
    22   11   48 1    
    23   11   49 1    
    24   12   13 1    
    25   12   50 1    
    26   12   51 1    
    27   13   14 1    
    28   13   52 1    
    29   13   53 1    
    30   14   15 1    
    31   14   19 1    
    32   14   16 1    
    33   16   17 2    
    34   17   18 1    
    35   18   19 1    
    36   18   29 am   BACKBONE|DICT|INTERRES
    37   19   20 1    
    38   19   21 1    
    39   21   26 ar   
    40   21   22 ar   
    41   22   23 ar   
    42   22   54 1    
    43   23   24 ar   
    44   23   55 1    
    45   24   25 ar   
    46   24   27 1    
    47   25   26 ar   
    48   25   56 1    
    49   26   57 1    
    50   27   28 1    
    51   28   58 1    
    52   28   59 1    
    53   28   60 1    
    54   29   30 2    
    55   29   31 1    
    56   31   32 1    
    57   31   61 1    
    58   31   62 1    
    59   32   33 1    
    60   33   38 ar   
    61   33   34 ar   
    62   34   35 ar   
    63   35   36 ar   
    64   35   39 1    
    65   36   37 1    
    66   36   38 ar   
    67   39   63 1    
    68   39   64 1    
@<TRIPOS>SUBSTRUCTURE
     1 UNK         1 GROUP             0       ****    0 ROOT    
