@<TRIPOS>MOLECULE
ZINC16179209_675
51   53    1
SMALL
USER_CHARGES


@<TRIPOS>ATOM
      1 C1          6.3783   55.1812   25.0102 C.3       1 UNK         0.0000 
      2 C2          5.7466   54.6653   26.2896 C.ar      1 UNK         0.0000 
      3 C3          6.5474   54.1115   27.2850 C.ar      1 UNK         0.0000 
      4 C4          5.9772   53.6876   28.4815 C.ar      1 UNK         0.0000 
      5 C5          4.5976   53.7731   28.6899 C.ar      1 UNK         0.0000 
      6 C6          3.7749   54.2731   27.6693 C.ar      1 UNK         0.0000 
      7 C7          4.3685   54.7653   26.4980 C.ar      1 UNK         0.0000 
      8 N8          2.3874   54.4102   27.8335 N.pl3     1 UNK         0.0000 
      9 S9          1.2464   53.0368   27.9264 S.o2      1 UNK         0.0000 
     10 O10         0.0162   53.6092   28.4824 O.2       1 UNK         0.0000 
     11 O11         1.9118   51.9054   28.5812 O.2       1 UNK         0.0000 
     12 C12         0.8621   52.4972   26.2546 C.ar      1 UNK         0.0000 
     13 C13         1.6750   52.8963   25.1954 C.ar      1 UNK         0.0000 
     14 C14         1.4174   52.4963   23.8883 C.ar      1 UNK         0.0000 
     15 C15         0.2992   51.6952   23.6294 C.ar      1 UNK         0.0000 
     16 C16        -0.5363   51.3096   24.6805 C.ar      1 UNK         0.0000 
     17 C17        -0.2683   51.7067   26.0043 C.ar      1 UNK         0.0000 
     18 O18        -1.0597   51.3649   27.0811 O.3       1 UNK         0.0000 
     19 C19        -2.2209   50.5660   26.8798 C.3       1 UNK         0.0000 
     20 N20         2.3275   52.9605   22.9272 N.am      1 UNK         0.0000 
     21 C21         2.5685   52.5190   21.6771 C.2       1 UNK         0.0000 
     22 O22         1.9530   51.6149   21.1116 O.2       1 UNK         0.0000 
     23 C23         3.6597   53.2241   21.0361 C.2       1 UNK         0.0000 
     24 C24         4.6466   54.0275   21.6448 C.2       1 UNK         0.0000 
     25 C25         5.4888   54.4970   20.6557 C.2       1 UNK         0.0000 
     26 O26         5.0913   53.9906   19.4634 O.3       1 UNK         0.0000 
     27 C27         4.0071   53.1976   19.6817 C.2       1 UNK         0.0000 
     28 C28         3.4287   52.5353   18.4506 C.3       1 UNK         0.0000 
     29 C29         6.6988   55.3966   20.6469 C.3       1 UNK         0.0000 
     30 Br30        3.9044   53.2866   30.4038 Br        1 UNK         0.0000 
     31 H31         5.7106   55.8586   24.4818 H         1 UNK         0.0000 
     32 H32         7.2837   55.7468   25.2292 H         1 UNK         0.0000 
     33 H33         6.6482   54.3544   24.3522 H         1 UNK         0.0000 
     34 H34         7.6152   54.0349   27.1530 H         1 UNK         0.0000 
     35 H35         6.6221   53.3034   29.2541 H         1 UNK         0.0000 
     36 H36         3.7584   55.2301   25.7394 H         1 UNK         0.0000 
     37 H37         1.9727   55.3097   27.6479 H         1 UNK         0.0000 
     38 H38         2.5436   53.4953   25.3844 H         1 UNK         0.0000 
     39 H39         0.0589   51.3731   22.6281 H         1 UNK         0.0000 
     40 H40        -1.3923   50.6938   24.4468 H         1 UNK         0.0000 
     41 H41        -2.7223   50.4178   27.8366 H         1 UNK         0.0000 
     42 H42        -2.9317   51.0524   26.2104 H         1 UNK         0.0000 
     43 H43        -1.9665   49.5835   26.4787 H         1 UNK         0.0000 
     44 H44         2.9349   53.7002   23.2365 H         1 UNK         0.0000 
     45 H45         4.7383   54.2614   22.6940 H         1 UNK         0.0000 
     46 H46         3.1051   51.5135   18.6483 H         1 UNK         0.0000 
     47 H47         2.5662   53.0844   18.0731 H         1 UNK         0.0000 
     48 H48         4.1576   52.4804   17.6390 H         1 UNK         0.0000 
     49 H49         6.9773   55.7144   21.6514 H         1 UNK         0.0000 
     50 H50         6.5196   56.2989   20.0608 H         1 UNK         0.0000 
     51 H51         7.5661   54.8974   20.2144 H         1 UNK         0.0000 
@<TRIPOS>BOND
     1    1    2 1    
     2    1   31 1    
     3    1   32 1    
     4    1   33 1    
     5    2    7 ar   
     6    2    3 ar   
     7    3    4 ar   
     8    3   34 1    
     9    4    5 ar   
    10    4   35 1    
    11    5    6 ar   
    12    5   30 1    
    13    6    7 ar   
    14    6    8 1    
    15    7   36 1    
    16    8    9 1    
    17    8   37 1    
    18    9   10 2    
    19    9   11 2    
    20    9   12 1    
    21   12   17 ar   
    22   12   13 ar   
    23   13   14 ar   
    24   13   38 1    
    25   14   15 ar   
    26   14   20 1    
    27   15   16 ar   
    28   15   39 1    
    29   16   17 ar   
    30   16   40 1    
    31   17   18 1    
    32   18   19 1    
    33   19   41 1    
    34   19   42 1    
    35   19   43 1    
    36   20   21 am   BACKBONE|DICT|INTERRES
    37   20   44 1    
    38   21   22 2    
    39   21   23 1    
    40   23   27 2    
    41   23   24 1    
    42   24   25 2    
    43   24   45 1    
    44   25   26 1    
    45   25   29 1    
    46   26   27 1    
    47   27   28 1    
    48   28   46 1    
    49   28   47 1    
    50   28   48 1    
    51   29   49 1    
    52   29   50 1    
    53   29   51 1    
@<TRIPOS>SUBSTRUCTURE
     1 UNK         1 GROUP             0       ****    0 ROOT    
