@<TRIPOS>MOLECULE
ZINC49122184_1854
43   45    1
SMALL
USER_CHARGES


@<TRIPOS>ATOM
      1 C1          7.1043   54.6883   24.2665 C.3       1 UNK         0.0000 
      2 C2          6.2325   53.8894   25.2324 C.3       1 UNK         0.0000 
      3 C3          5.5411   54.7961   26.2866 C.3       1 UNK         0.0000 
      4 H4          5.3468   55.7685   25.8312 H         1 UNK         0.0000 
      5 C5          6.5006   55.0199   27.4856 C.3       1 UNK         0.0000 
      6 C6          6.6240   53.8096   28.4288 C.3       1 UNK         0.0000 
      7 C7          5.2383   53.3191   28.8813 C.3       1 UNK         0.0000 
      8 C8          4.3657   53.0142   27.6603 C.3       1 UNK         0.0000 
      9 C9          4.1490   54.2853   26.8052 C.3       1 UNK         0.0000 
     10 H10         3.7140   55.0523   27.4460 H         1 UNK         0.0000 
     11 N11         3.1283   54.0643   25.7462 N.pl3     1 UNK         0.0000 
     12 C12         1.8567   53.5069   25.8174 C.ar      1 UNK         0.0000 
     13 N13         1.3149   53.5051   24.6182 N.2       1 UNK         0.0000 
     14 N14         2.2218   54.1209   23.7730 N.2       1 UNK         0.0000 
     15 N15         3.3341   54.4964   24.4891 N.2       1 UNK         0.0000 
     16 C16         1.1258   53.0080   27.0376 C.ar      1 UNK         0.0000 
     17 C17         1.1307   53.7900   28.2054 C.ar      1 UNK         0.0000 
     18 C18         0.4728   53.3649   29.3620 C.ar      1 UNK         0.0000 
     19 C19        -0.2298   52.1633   29.3526 C.ar      1 UNK         0.0000 
     20 C20        -0.2856   51.4064   28.1887 C.ar      1 UNK         0.0000 
     21 C21         0.3900   51.8076   27.0416 C.ar      1 UNK         0.0000 
     22 N22         0.3043   50.9745   25.9266 N.pl3     1 UNK         0.0000 
     23 N23        -0.8955   51.6968   30.4816 N.pl3     1 UNK         0.0000 
     24 H24         7.5545   54.0326   23.5216 H         1 UNK         0.0000 
     25 H25         6.5291   55.4449   23.7322 H         1 UNK         0.0000 
     26 H26         7.9012   55.1905   24.8161 H         1 UNK         0.0000 
     27 H27         6.8678   53.1570   25.7255 H         1 UNK         0.0000 
     28 H28         5.5227   53.2972   24.6582 H         1 UNK         0.0000 
     29 H29         6.1600   55.8585   28.0808 H         1 UNK         0.0000 
     30 H30         7.4920   55.2976   27.1408 H         1 UNK         0.0000 
     31 H31         7.1620   52.9949   27.9425 H         1 UNK         0.0000 
     32 H32         7.2345   54.0936   29.2819 H         1 UNK         0.0000 
     33 H33         5.3226   52.4220   29.4898 H         1 UNK         0.0000 
     34 H34         4.7566   54.0710   29.5082 H         1 UNK         0.0000 
     35 H35         4.9066   52.2883   27.0678 H         1 UNK         0.0000 
     36 H36         3.4502   52.5638   28.0311 H         1 UNK         0.0000 
     37 H37         1.6468   54.7375   28.2250 H         1 UNK         0.0000 
     38 H38         0.5017   53.9717   30.2552 H         1 UNK         0.0000 
     39 H39        -0.8635   50.4968   28.1734 H         1 UNK         0.0000 
     40 H40         0.7628   51.2504   25.0703 H         1 UNK         0.0000 
     41 H41        -0.1762   50.0889   26.0089 H         1 UNK         0.0000 
     42 H42        -0.8246   52.1170   31.4062 H         1 UNK         0.0000 
     43 H43        -1.2996   50.7665   30.4312 H         1 UNK         0.0000 
@<TRIPOS>BOND
     1    1    2 1    
     2    1   24 1    
     3    1   25 1    
     4    1   26 1    
     5    2    3 1    
     6    2   27 1    
     7    2   28 1    
     8    3    4 1    
     9    3    9 1    
    10    3    5 1    
    11    5    6 1    
    12    5   29 1    
    13    5   30 1    
    14    6    7 1    
    15    6   31 1    
    16    6   32 1    
    17    7    8 1    
    18    7   33 1    
    19    7   34 1    
    20    8    9 1    
    21    8   35 1    
    22    8   36 1    
    23    9   10 1    
    24    9   11 1    
    25   11   15 ar   
    26   11   12 ar   
    27   12   13 ar   
    28   12   16 1    
    29   13   14 ar   
    30   14   15 ar   
    31   16   21 ar   
    32   16   17 ar   
    33   17   18 ar   
    34   17   37 1    
    35   18   19 ar   
    36   18   38 1    
    37   19   20 ar   
    38   19   23 1    
    39   20   21 ar   
    40   20   39 1    
    41   21   22 1    
    42   22   40 1    
    43   22   41 1    
    44   23   42 1    
    45   23   43 1    
@<TRIPOS>SUBSTRUCTURE
     1 UNK         1 GROUP             0       ****    0 ROOT    
