@<TRIPOS>MOLECULE
ZINC34923880_5902
54   57    1
SMALL
USER_CHARGES


@<TRIPOS>ATOM
      1 C1          2.7417   54.4968   27.1967 C.3       1 UNK         0.0000 
      2 C2          1.7892   53.4455   26.6279 C.2       1 UNK         0.0000 
      3 C3          0.9044   52.6693   27.3356 C.2       1 UNK         0.0000 
      4 C4          0.0923   51.5547   26.5897 C.3       1 UNK         0.0000 
      5 H5          0.2323   50.6144   27.1278 H         1 UNK         0.0000 
      6 N6          0.7043   51.3282   25.2505 N.pl3     1 UNK         0.0000 
      7 C7          0.4329   50.2520   24.4280 C.2       1 UNK         0.0000 
      8 C8          0.7401   50.5117   23.1446 C.2       1 UNK         0.0000 
      9 S9          1.5048   52.0871   22.9159 S.3       1 UNK         0.0000 
     10 C10         1.4469   52.3507   24.6703 C.2       1 UNK         0.0000 
     11 N11         1.9234   53.3725   25.2680 N.2       1 UNK         0.0000 
     12 C12        -0.1795   49.0199   24.8922 C.2       1 UNK         0.0000 
     13 C13        -1.2124   48.3761   24.3259 C.2       1 UNK         0.0000 
     14 O14        -1.8741   48.6610   23.2587 O.co2     1 UNK         0.0000 
     15 N15        -1.6970   47.2416   24.9432 N.pl3     1 UNK         0.0000 
     16 C16        -3.0390   46.8341   25.0203 C.ar      1 UNK         0.0000 
     17 C17        -3.7598   47.1348   26.1804 C.ar      1 UNK         0.0000 
     18 C18        -5.0858   46.7235   26.3129 C.ar      1 UNK         0.0000 
     19 C19        -5.6983   46.0028   25.2883 C.ar      1 UNK         0.0000 
     20 C20        -4.9830   45.6898   24.1328 C.ar      1 UNK         0.0000 
     21 C21        -3.6545   46.0969   23.9959 C.ar      1 UNK         0.0000 
     22 F22        -2.9697   45.7352   22.8831 F         1 UNK         0.0000 
     23 C23        -1.4322   51.7755   26.4981 C.ar      1 UNK         0.0000 
     24 C24        -2.2918   51.1354   27.3943 C.ar      1 UNK         0.0000 
     25 C25        -3.6710   51.3024   27.3138 C.ar      1 UNK         0.0000 
     26 C26        -4.2118   52.1442   26.3452 C.ar      1 UNK         0.0000 
     27 C27        -3.3732   52.8097   25.4368 C.ar      1 UNK         0.0000 
     28 C28        -1.9957   52.5873   25.5066 C.ar      1 UNK         0.0000 
     29 O29        -3.8144   53.6968   24.4745 O.3       1 UNK         0.0000 
     30 C30        -5.1815   54.0908   24.4817 C.3       1 UNK         0.0000 
     31 C31         0.7187   52.8075   28.8037 C.2       1 UNK         0.0000 
     32 O32         1.2655   53.6752   29.4911 O.2       1 UNK         0.0000 
     33 O33        -0.1234   51.8939   29.3248 O.3       1 UNK         0.0000 
     34 C34        -0.4944   51.9257   30.6937 C.3       1 UNK         0.0000 
     35 H35         3.3945   54.0395   27.9404 H         1 UNK         0.0000 
     36 H36         3.3879   54.9500   26.4422 H         1 UNK         0.0000 
     37 H37         2.1826   55.2969   27.6817 H         1 UNK         0.0000 
     38 H38         0.5845   49.8445   22.3098 H         1 UNK         0.0000 
     39 H39         0.2364   48.5992   25.7979 H         1 UNK         0.0000 
     40 H40        -1.1979   47.0263   25.7958 H         1 UNK         0.0000 
     41 H41        -3.2952   47.6963   26.9809 H         1 UNK         0.0000 
     42 H42        -5.6362   46.9662   27.2097 H         1 UNK         0.0000 
     43 H43        -6.7258   45.6851   25.3915 H         1 UNK         0.0000 
     44 H44        -5.4576   45.1256   23.3436 H         1 UNK         0.0000 
     45 H45        -1.8914   50.4967   28.1648 H         1 UNK         0.0000 
     46 H46        -4.3144   50.7880   28.0121 H         1 UNK         0.0000 
     47 H47        -5.2831   52.2691   26.3160 H         1 UNK         0.0000 
     48 H48        -1.3553   53.0927   24.7994 H         1 UNK         0.0000 
     49 H49        -5.3333   54.8732   23.7371 H         1 UNK         0.0000 
     50 H50        -5.8363   53.2561   24.2268 H         1 UNK         0.0000 
     51 H51        -5.4796   54.4962   25.4498 H         1 UNK         0.0000 
     52 H52        -1.2612   51.1737   30.8816 H         1 UNK         0.0000 
     53 H53         0.3597   51.7161   31.3384 H         1 UNK         0.0000 
     54 H54        -0.8956   52.8989   30.9735 H         1 UNK         0.0000 
@<TRIPOS>BOND
     1    1    2 1    
     2    1   35 1    
     3    1   36 1    
     4    1   37 1    
     5    2   11 1    
     6    2    3 2    
     7    3    4 1    
     8    3   31 1    
     9    4    5 1    
    10    4    6 1    
    11    4   23 1    
    12    6   10 1    
    13    6    7 1    
    14    7    8 2    
    15    7   12 1    
    16    8    9 1    
    17    8   38 1    
    18    9   10 1    
    19   10   11 2    
    20   12   13 2    
    21   12   39 1    
    22   13   14 1    
    23   13   15 1    
    24   15   16 1    
    25   15   40 1    
    26   16   21 ar   
    27   16   17 ar   
    28   17   18 ar   
    29   17   41 1    
    30   18   19 ar   
    31   18   42 1    
    32   19   20 ar   
    33   19   43 1    
    34   20   21 ar   
    35   20   44 1    
    36   21   22 1    
    37   23   28 ar   
    38   23   24 ar   
    39   24   25 ar   
    40   24   45 1    
    41   25   26 ar   
    42   25   46 1    
    43   26   27 ar   
    44   26   47 1    
    45   27   28 ar   
    46   27   29 1    
    47   28   48 1    
    48   29   30 1    
    49   30   49 1    
    50   30   50 1    
    51   30   51 1    
    52   31   32 2    
    53   31   33 1    
    54   33   34 1    
    55   34   52 1    
    56   34   53 1    
    57   34   54 1    
@<TRIPOS>SUBSTRUCTURE
     1 UNK         1 GROUP             0       ****    0 ROOT    
