ZINC65074812_2229
                    3D
 Schrodinger Suite 2024-2.
 61 64  0  0  1  0            999 V2000
   -0.1005   53.2770   28.3023 C   0  0  0  0  0  0
   -0.4424   52.2828   27.2083 C   0  0  0  0  0  0
   -1.5268   52.4954   26.3579 C   0  0  0  0  0  0
   -1.8148   51.5803   25.3475 C   0  0  0  0  0  0
   -1.0324   50.4313   25.1660 C   0  0  0  0  0  0
    0.0489   50.2068   26.0473 C   0  0  0  0  0  0
    0.3392   51.1442   27.0426 C   0  0  0  0  0  0
    0.9077   48.9592   26.0136 C   0  0  0  0  0  0
   -1.5424   49.2871   23.8471 S   0  0  0  0  0  0
   -2.9394   49.6128   23.5340 O   0  0  0  0  0  0
   -1.1842   47.9176   24.2306 O   0  0  0  0  0  0
   -0.5674   49.7246   22.4298 N   0  0  0  0  0  0
    0.8348   49.2573   22.3194 C   0  0  0  0  0  0
    1.8506   50.3922   22.5404 C   0  0  0  0  0  0
    1.5762   51.6340   21.6549 C   0  0  0  0  0  0
    0.0970   52.0668   21.8864 C   0  0  0  0  0  0
   -0.9218   50.9347   21.6541 C   0  0  0  0  0  0
    2.5807   52.7539   21.9883 C   0  0  0  0  0  0
    3.6841   52.9892   21.2611 N   0  3  0  0  0  0
    3.9876   52.3632   19.9769 C   0  0  0  0  0  0
    3.1047   51.1265   19.7968 C   0  0  0  0  0  0
    1.7354   51.4064   20.2085 N   0  0  0  0  0  0
    2.3221   53.4739   23.0886 N   0  0  0  0  0  0
    3.0284   54.6697   23.5508 C   0  0  0  0  0  0
    4.1248   54.4099   24.5679 C   0  0  0  0  0  0
    3.7894   54.1513   25.8999 C   0  0  0  0  0  0
    4.7957   53.9968   26.8497 C   0  0  0  0  0  0
    6.1302   54.0983   26.4648 C   0  0  0  0  0  0
    6.4695   54.3463   25.1367 C   0  0  0  0  0  0
    5.4661   54.4964   24.1845 C   0  0  0  0  0  0
    7.1041   53.9573   27.3895 F   0  0  0  0  0  0
   -0.4852   52.9323   29.2624 H   0  0  0  0  0  0
    0.9791   53.3962   28.3914 H   0  0  0  0  0  0
   -0.5126   54.2610   28.0853 H   0  0  0  0  0  0
   -2.1576   53.3624   26.4823 H   0  0  0  0  0  0
   -2.6654   51.7698   24.7098 H   0  0  0  0  0  0
    1.1644   50.9715   27.7185 H   0  0  0  0  0  0
    1.5926   48.8937   26.8584 H   0  0  0  0  0  0
    0.2573   48.0968   26.0811 H   0  0  0  0  0  0
    1.4972   48.8968   25.1053 H   0  0  0  0  0  0
    0.9636   48.7668   21.3540 H   0  0  0  0  0  0
    0.9998   48.4963   23.0738 H   0  0  0  0  0  0
    2.8629   50.0177   22.3954 H   0  0  0  0  0  0
    1.8179   50.6945   23.5874 H   0  0  0  0  0  0
   -0.0459   52.4370   22.9014 H   0  0  0  0  0  0
   -0.1413   52.8964   21.2253 H   0  0  0  0  0  0
   -1.0016   50.6575   20.6024 H   0  0  0  0  0  0
   -1.9163   51.2676   21.9531 H   0  0  0  0  0  0
    3.7761   53.1010   19.2023 H   0  0  0  0  0  0
    5.0467   52.1085   19.9242 H   0  0  0  0  0  0
    3.1049   50.8157   18.7492 H   0  0  0  0  0  0
    3.5041   50.2683   20.3364 H   0  0  0  0  0  0
    1.1370   50.6399   19.9329 H   0  0  0  0  0  0
    1.5038   53.2027   23.6153 H   0  0  0  0  0  0
    2.2669   55.2961   24.0166 H   0  0  0  0  0  0
    3.3957   55.2032   22.6743 H   0  0  0  0  0  0
    2.7547   54.0865   26.2052 H   0  0  0  0  0  0
    4.5475   53.8025   27.8825 H   0  0  0  0  0  0
    7.5058   54.4239   24.8445 H   0  0  0  0  0  0
    5.7380   54.7051   23.1601 H   0  0  0  0  0  0
    4.2737   53.7468   21.5710 H   0  0  0  0  0  0
  1  2  1  0  0  0
  1 32  1  0  0  0
  1 33  1  0  0  0
  1 34  1  0  0  0
  2  7  2  0  0  0
  2  3  1  0  0  0
  3  4  2  0  0  0
  3 35  1  0  0  0
  4  5  1  0  0  0
  4 36  1  0  0  0
  5  6  2  0  0  0
  5  9  1  0  0  0
  6  7  1  0  0  0
  6  8  1  0  0  0
  7 37  1  0  0  0
  8 38  1  0  0  0
  8 39  1  0  0  0
  8 40  1  0  0  0
  9 10  2  0  0  0
  9 11  2  0  0  0
  9 12  1  0  0  0
 12 17  1  0  0  0
 12 13  1  0  0  0
 13 14  1  0  0  0
 13 41  1  0  0  0
 13 42  1  0  0  0
 14 15  1  0  0  0
 14 43  1  0  0  0
 14 44  1  0  0  0
 15 22  1  0  0  0
 15 16  1  0  0  0
 15 18  1  0  0  0
 16 17  1  0  0  0
 16 45  1  0  0  0
 16 46  1  0  0  0
 17 47  1  0  0  0
 17 48  1  0  0  0
 18 19  2  0  0  0
 18 23  1  0  0  0
 19 20  1  0  0  0
 19 61  1  0  0  0
 20 21  1  0  0  0
 20 49  1  0  0  0
 20 50  1  0  0  0
 21 22  1  0  0  0
 21 51  1  0  0  0
 21 52  1  0  0  0
 22 53  1  0  0  0
 23 24  1  0  0  0
 23 54  1  0  0  0
 24 25  1  0  0  0
 24 55  1  0  0  0
 24 56  1  0  0  0
 25 30  2  0  0  0
 25 26  1  0  0  0
 26 27  2  0  0  0
 26 57  1  0  0  0
 27 28  1  0  0  0
 27 58  1  0  0  0
 28 29  2  0  0  0
 28 31  1  0  0  0
 29 30  1  0  0  0
 29 59  1  0  0  0
 30 60  1  0  0  0
M  CHG  1  19   1
M  END
> <i_i_glide_confnum>
44

> <i_i_glide_lignum>
2230

> <i_i_glide_posenum>
385

> <i_i_glide_rotatable_bonds>
5

> <i_m_Source_File_Index>
1555

> <b_m_subgroup_collapsed>
0

> <r_i_docking_score>
-3.93417

> <r_i_glide_ecoul>
0.984863

> <r_i_glide_eff_state_penalty>
0

> <r_i_glide_einternal>
2.77167

> <r_i_glide_emodel>
-42.7216

> <r_i_glide_energy>
-33.572

> <r_i_glide_erotb>
0.503921

> <r_i_glide_esite>
-0.0503512

> <r_i_glide_evdw>
-34.5569

> <r_i_glide_gscore>
-3.93417

> <r_i_glide_hbond>
0

> <r_i_glide_ligand_efficiency>
-0.126909

> <r_i_glide_ligand_efficiency_ln>
-0.887276

> <r_i_glide_ligand_efficiency_sa>
-0.398669

> <r_i_glide_lipo>
-2.02764

> <r_i_glide_metal>
0

> <r_i_glide_rewards>
-0.779988

> <s_i_glide_gridfile>
wee1_glide-grid

> <s_m_Source_File>
wee1_decoys_glide_SP.sdf

> <s_m_Source_Path>
/Users/zhangxujun/Desktop

> <s_m_entry_id>
1830

> <s_m_entry_name>
wee1_decoys_glide_SP.1555

> <s_m_subgroup_title>
wee1_decoys_glide_SP

> <s_m_subgroupid>
wee1_decoys_glide_SP


$$$$
