@<TRIPOS>MOLECULE
ZINC34955919_1733
19   19    1
SMALL
USER_CHARGES


@<TRIPOS>ATOM
      1 C1          2.7053   53.4812   26.9228 C.ar      1 UNK         0.0000 
      2 C2          3.3940   53.1456   28.0920 C.ar      1 UNK         0.0000 
      3 C3          4.7500   53.4731   28.2110 C.ar      1 UNK         0.0000 
      4 C4          5.4165   54.1179   27.1636 C.ar      1 UNK         0.0000 
      5 C5          4.7256   54.4353   25.9942 C.ar      1 UNK         0.0000 
      6 C6          3.3734   54.1121   25.8712 C.ar      1 UNK         0.0000 
      7 Cl7         2.5339   54.4912   24.4114 Cl        1 UNK         0.0000 
      8 Cl8         7.1012   54.4923   27.2909 Cl        1 UNK         0.0000 
      9 S9          2.5399   52.2505   29.3925 S.o2      1 UNK         0.0000 
     10 O10         3.5817   51.6969   30.2636 O.2       1 UNK         0.0000 
     11 O11         1.6631   51.3051   28.6974 O.2       1 UNK         0.0000 
     12 N12         1.7563   53.3958   30.0837 N.2       1 UNK         0.0000 
     13 N13         0.6182   52.8924   30.8440 N.4       1 UNK         0.0000 
     14 H14         1.6594   53.2274   26.8190 H         1 UNK         0.0000 
     15 H15         5.2916   53.2011   29.1021 H         1 UNK         0.0000 
     16 H16         5.2400   54.9217   25.1782 H         1 UNK         0.0000 
     17 H17         0.1483   53.6662   31.2941 H         1 UNK         0.0000 
     18 H18         0.9385   52.2350   31.5443 H         1 UNK         0.0000 
     19 H19        -0.0238   52.4268   30.2161 H         1 UNK         0.0000 
@<TRIPOS>BOND
     1    1    6 ar   
     2    1    2 ar   
     3    1   14 1    
     4    2    3 ar   
     5    2    9 1    
     6    3    4 ar   
     7    3   15 1    
     8    4    5 ar   
     9    4    8 1    
    10    5    6 ar   
    11    5   16 1    
    12    6    7 1    
    13    9   10 2    
    14    9   11 2    
    15    9   12 1    
    16   12   13 1    
    17   13   17 1    
    18   13   18 1    
    19   13   19 1    
@<TRIPOS>SUBSTRUCTURE
     1 UNK         1 GROUP             0       ****    0 ROOT    
