@<TRIPOS>MOLECULE
ZINC50633927_1650
35   36    1
SMALL
USER_CHARGES


@<TRIPOS>ATOM
      1 C1          5.9407   53.9231   23.5784 C.3       1 UNK         0.0000 
      2 C2          6.5941   54.4776   24.8612 C.3       1 UNK         0.0000 
      3 C3          6.9585   55.9525   24.6537 C.3       1 UNK         0.0000 
      4 C4          5.7138   54.3303   26.0994 C.ar      1 UNK         0.0000 
      5 C5          4.4496   54.8963   26.0808 C.ar      1 UNK         0.0000 
      6 C6          3.6407   54.8201   27.1961 C.ar      1 UNK         0.0000 
      7 C7          3.9986   54.1129   28.3464 C.ar      1 UNK         0.0000 
      8 C8          5.2851   53.5593   28.3566 C.ar      1 UNK         0.0000 
      9 C9          6.1477   53.6807   27.2596 C.ar      1 UNK         0.0000 
     10 N10         3.1677   53.9111   29.4306 N.2       1 UNK         0.0000 
     11 S11         1.6581   54.3738   29.5337 S.o2      1 UNK         0.0000 
     12 O12         1.1044   54.1957   30.8793 O.2       1 UNK         0.0000 
     13 O13         1.3361   55.6408   28.8710 O.2       1 UNK         0.0000 
     14 C14         0.8324   53.1083   28.5619 C.ar      1 UNK         0.0000 
     15 C15         1.0336   52.9225   27.1861 C.ar      1 UNK         0.0000 
     16 N16         0.4086   51.9592   26.4669 N.ar      1 UNK         0.0000 
     17 C17        -0.4435   51.1734   27.1574 C.ar      1 UNK         0.0000 
     18 N18        -0.7525   51.2967   28.4704 N.ar      1 UNK         0.0000 
     19 C19        -0.0965   52.2566   29.1648 C.ar      1 UNK         0.0000 
     20 N20        -0.9888   50.0967   26.4817 N.pl3     1 UNK         0.0000 
     21 H21         5.6107   52.8968   23.6988 H         1 UNK         0.0000 
     22 H22         6.6450   53.9401   22.7465 H         1 UNK         0.0000 
     23 H23         5.0706   54.5062   23.2764 H         1 UNK         0.0000 
     24 H24         7.5044   53.9064   25.0227 H         1 UNK         0.0000 
     25 H25         7.5044   56.3512   25.5050 H         1 UNK         0.0000 
     26 H26         7.5521   56.0962   23.7543 H         1 UNK         0.0000 
     27 H27         6.0656   56.5627   24.5310 H         1 UNK         0.0000 
     28 H28         4.0889   55.4118   25.2068 H         1 UNK         0.0000 
     29 H29         2.7031   55.3132   27.1090 H         1 UNK         0.0000 
     30 H30         5.6140   53.0086   29.2239 H         1 UNK         0.0000 
     31 H31         7.1311   53.2365   27.3041 H         1 UNK         0.0000 
     32 H32         1.6767   53.5414   26.5938 H         1 UNK         0.0000 
     33 H33        -0.3347   52.3229   30.2182 H         1 UNK         0.0000 
     34 H34        -1.2973   49.3527   27.1219 H         1 UNK         0.0000 
     35 H35        -0.6144   49.8708   25.5756 H         1 UNK         0.0000 
@<TRIPOS>BOND
     1    1    2 1    
     2    1   21 1    
     3    1   22 1    
     4    1   23 1    
     5    2    3 1    
     6    2    4 1    
     7    2   24 1    
     8    3   25 1    
     9    3   26 1    
    10    3   27 1    
    11    4    9 ar   
    12    4    5 ar   
    13    5    6 ar   
    14    5   28 1    
    15    6    7 ar   
    16    6   29 1    
    17    7    8 ar   
    18    7   10 1    
    19    8    9 ar   
    20    8   30 1    
    21    9   31 1    
    22   10   11 1    
    23   11   12 2    
    24   11   13 2    
    25   11   14 1    
    26   14   19 ar   
    27   14   15 ar   
    28   15   16 ar   
    29   15   32 1    
    30   16   17 ar   
    31   17   18 ar   
    32   17   20 1    
    33   18   19 ar   
    34   19   33 1    
    35   20   34 1    
    36   20   35 1    
@<TRIPOS>SUBSTRUCTURE
     1 UNK         1 GROUP             0       ****    0 ROOT    
