@<TRIPOS>MOLECULE
ZINC12446477_111
57   60    1
SMALL
USER_CHARGES


@<TRIPOS>ATOM
      1 C1         -0.2350   49.6236   22.9419 C.ar      1 UNK         0.0000 
      2 C2          0.0553   50.4394   24.0387 C.ar      1 UNK         0.0000 
      3 C3         -0.4147   50.0865   25.3109 C.ar      1 UNK         0.0000 
      4 C4         -1.3841   48.1043   24.4215 C.ar      1 UNK         0.0000 
      5 C5         -0.9929   48.4562   23.1200 C.ar      1 UNK         0.0000 
      6 C6         -1.3866   47.5930   21.9218 C.3       1 UNK         0.0000 
      7 F7         -2.5621   48.0184   21.4657 F         1 UNK         0.0000 
      8 F8         -0.4958   47.6791   20.9327 F         1 UNK         0.0000 
      9 F9         -1.5121   46.3117   22.2680 F         1 UNK         0.0000 
     10 N10        -0.2295   50.9375   26.4414 N.pl3     1 UNK         0.0000 
     11 C11        -1.0445   50.7822   27.6536 C.3       1 UNK         0.0000 
     12 C12        -1.2124   52.0975   28.3818 C.3       1 UNK         0.0000 
     13 C13         0.1330   52.6780   28.8191 C.3       1 UNK         0.0000 
     14 C14         1.0789   52.7593   27.6065 C.3       1 UNK         0.0000 
     15 H15         0.6593   53.5261   26.9588 H         1 UNK         0.0000 
     16 C16         1.1044   51.4821   26.7439 C.3       1 UNK         0.0000 
     17 N17         2.4117   53.2742   27.8460 N.am      1 UNK         0.0000 
     18 C18         3.3175   52.8532   28.7362 C.2       1 UNK         0.0000 
     19 O19         3.1104   51.9597   29.5594 O.2       1 UNK         0.0000 
     20 C20         4.6935   53.5212   28.6648 C.3       1 UNK         0.0000 
     21 C21         4.8394   54.7534   27.7286 C.3       1 UNK         0.0000 
     22 C22         5.3020   54.4534   26.3126 C.ar      1 UNK         0.0000 
     23 C23         4.6656   54.3086   25.0729 C.ar      1 UNK         0.0000 
     24 C24         5.7219   54.0968   24.1575 C.ar      1 UNK         0.0000 
     25 N25         6.8966   54.1196   24.7386 N.2       1 UNK         0.0000 
     26 N26         6.6319   54.3155   26.0289 N.pl3     1 UNK         0.0000 
     27 H27         7.3621   54.3440   26.7257 H         1 UNK         0.0000 
     28 C28         5.5363   53.8000   22.6734 C.3       1 UNK         0.0000 
     29 C29         4.0846   54.1095   22.2410 C.3       1 UNK         0.0000 
     30 C30         3.0397   53.6170   23.2598 C.3       1 UNK         0.0000 
     31 C31         3.1989   54.2860   24.6432 C.3       1 UNK         0.0000 
     32 H32         0.1003   49.9191   21.9568 H         1 UNK         0.0000 
     33 H33         0.6005   51.3598   23.8855 H         1 UNK         0.0000 
     34 H34        -1.9480   47.2186   24.6796 H         1 UNK         0.0000 
     35 H35        -0.4902   50.0970   28.2838 H         1 UNK         0.0000 
     36 H36        -2.0147   50.3460   27.4106 H         1 UNK         0.0000 
     37 H37        -1.8635   51.9604   29.2454 H         1 UNK         0.0000 
     38 H38        -1.6953   52.7731   27.6805 H         1 UNK         0.0000 
     39 H39         0.5452   52.0207   29.5860 H         1 UNK         0.0000 
     40 H40        -0.0065   53.6609   29.2701 H         1 UNK         0.0000 
     41 H41         1.6164   51.6982   25.8081 H         1 UNK         0.0000 
     42 H42         1.6459   50.6994   27.2799 H         1 UNK         0.0000 
     43 H43         2.7246   53.9828   27.1998 H         1 UNK         0.0000 
     44 H44         5.5022   52.8001   28.5400 H         1 UNK         0.0000 
     45 H45         4.7919   53.9040   29.6798 H         1 UNK         0.0000 
     46 H46         5.5587   55.4324   28.1882 H         1 UNK         0.0000 
     47 H47         3.8998   55.2967   27.6787 H         1 UNK         0.0000 
     48 H48         5.7458   52.7459   22.4863 H         1 UNK         0.0000 
     49 H49         6.2358   54.3737   22.0638 H         1 UNK         0.0000 
     50 H50         3.8929   53.6559   21.2674 H         1 UNK         0.0000 
     51 H51         3.9623   55.1826   22.0865 H         1 UNK         0.0000 
     52 H52         3.0973   52.5316   23.3579 H         1 UNK         0.0000 
     53 H53         2.0374   53.8198   22.8786 H         1 UNK         0.0000 
     54 H54         2.8131   55.2971   24.5863 H         1 UNK         0.0000 
     55 H55         2.5719   53.7685   25.3600 H         1 UNK         0.0000 
     56 N56        -1.0871   48.9218   25.4519 N.pl3     1 UNK         0.0000 
     57 H57        -1.3553   48.6453   26.3948 H         1 UNK         0.0000 
@<TRIPOS>BOND
     1    1    5 ar   
     2    1    2 ar   
     3    1   32 1    
     4    2    3 ar   
     5    2   33 1    
     6    3   10 1    
     7    3   56 ar   
     8    4    5 ar   
     9    4   34 1    
    10    4   56 ar   
    11    5    6 1    
    12    6    7 1    
    13    6    8 1    
    14    6    9 1    
    15   10   16 1    
    16   10   11 1    
    17   11   12 1    
    18   11   35 1    
    19   11   36 1    
    20   12   13 1    
    21   12   37 1    
    22   12   38 1    
    23   13   14 1    
    24   13   39 1    
    25   13   40 1    
    26   14   15 1    
    27   14   16 1    
    28   14   17 1    
    29   16   41 1    
    30   16   42 1    
    31   17   18 am   BACKBONE|DICT|INTERRES
    32   17   43 1    
    33   18   19 2    
    34   18   20 1    
    35   20   21 1    
    36   20   44 1    
    37   20   45 1    
    38   21   22 1    
    39   21   46 1    
    40   21   47 1    
    41   22   26 ar   
    42   22   23 ar   
    43   23   31 1    
    44   23   24 ar   
    45   24   25 ar   
    46   24   28 1    
    47   25   26 ar   
    48   26   27 1    
    49   28   29 1    
    50   28   48 1    
    51   28   49 1    
    52   29   30 1    
    53   29   50 1    
    54   29   51 1    
    55   30   31 1    
    56   30   52 1    
    57   30   53 1    
    58   31   54 1    
    59   31   55 1    
    60   56   57 1    
@<TRIPOS>SUBSTRUCTURE
     1 UNK         1 GROUP             0       ****    0 ROOT    
