@<TRIPOS>MOLECULE
ZINC25149017_1182
65   68    1
SMALL
USER_CHARGES


@<TRIPOS>ATOM
      1 C1          5.3382   54.4565   27.1745 C.3       1 UNK         0.0000 
      2 C2          4.2130   54.1951   26.1773 C.ar      1 UNK         0.0000 
      3 C3          4.4682   54.4030   24.8195 C.ar      1 UNK         0.0000 
      4 C4          3.5081   54.0847   23.8418 C.ar      1 UNK         0.0000 
      5 C5          2.2656   53.6047   24.2497 C.ar      1 UNK         0.0000 
      6 C6          1.9986   53.4075   25.6031 C.ar      1 UNK         0.0000 
      7 C7          2.9588   53.6987   26.5796 C.ar      1 UNK         0.0000 
      8 N8          2.6332   53.4884   27.9078 N.pl3     1 UNK         0.0000 
      9 C9          2.6110   54.5619   28.9143 C.3       1 UNK         0.0000 
     10 C10         1.3735   54.5234   29.8390 C.3       1 UNK         0.0000 
     11 N11         1.2140   53.0996   30.4166 N.4       1 UNK         0.0000 
     12 C12         1.0625   52.1025   29.2542 C.3       1 UNK         0.0000 
     13 C13         2.3542   52.1452   28.4329 C.3       1 UNK         0.0000 
     14 C14        -0.0306   53.0173   31.3176 C.3       1 UNK         0.0000 
     15 N15         3.7215   54.2041   22.4550 N.am      1 UNK         0.0000 
     16 C16         4.9060   54.2152   21.8069 C.2       1 UNK         0.0000 
     17 O17         5.9917   54.0768   22.3706 O.2       1 UNK         0.0000 
     18 C18         4.8639   54.4483   20.2819 C.3       1 UNK         0.0000 
     19 H19         3.8978   54.9024   20.0654 H         1 UNK         0.0000 
     20 C20         4.9751   53.1070   19.5071 C.3       1 UNK         0.0000 
     21 C21         5.0086   53.3997   17.9812 C.3       1 UNK         0.0000 
     22 C22         6.1095   54.4056   17.5936 C.3       1 UNK         0.0000 
     23 N23         6.0097   55.6156   18.4331 N.pl3     1 UNK         0.0000 
     24 C24         6.0178   55.4149   19.8962 C.3       1 UNK         0.0000 
     25 S25         6.1874   57.2197   17.7099 S.o2      1 UNK         0.0000 
     26 O26         6.3056   58.2008   18.7944 O.2       1 UNK         0.0000 
     27 O27         7.1987   57.1347   16.6508 O.2       1 UNK         0.0000 
     28 C28         4.6269   57.5376   16.8892 C.ar      1 UNK         0.0000 
     29 C29         3.5049   56.7384   17.1318 C.ar      1 UNK         0.0000 
     30 C30         2.3057   57.0130   16.4806 C.ar      1 UNK         0.0000 
     31 C31         2.2236   58.0950   15.6055 C.ar      1 UNK         0.0000 
     32 C32         3.3377   58.8963   15.3672 C.ar      1 UNK         0.0000 
     33 C33         4.5426   58.6147   16.0076 C.ar      1 UNK         0.0000 
     34 Cl34        0.7263   58.4524   14.8260 Cl        1 UNK         0.0000 
     35 H35         6.2923   54.6581   26.6888 H         1 UNK         0.0000 
     36 H36         5.1011   55.2969   27.8226 H         1 UNK         0.0000 
     37 H37         5.4807   53.5850   27.8126 H         1 UNK         0.0000 
     38 H38         5.4313   54.8008   24.5408 H         1 UNK         0.0000 
     39 H39         1.5053   53.3587   23.5236 H         1 UNK         0.0000 
     40 H40         1.0308   53.0228   25.8942 H         1 UNK         0.0000 
     41 H41         2.7054   55.5412   28.4402 H         1 UNK         0.0000 
     42 H42         3.5142   54.4039   29.5075 H         1 UNK         0.0000 
     43 H43         1.5008   55.1967   30.6883 H         1 UNK         0.0000 
     44 H44         0.4527   54.7711   29.3029 H         1 UNK         0.0000 
     45 H45         0.9290   51.1128   29.6815 H         1 UNK         0.0000 
     46 H46         0.1777   52.3657   28.6698 H         1 UNK         0.0000 
     47 H47         3.2134   51.8710   29.0444 H         1 UNK         0.0000 
     48 H48         2.3051   51.3996   27.6437 H         1 UNK         0.0000 
     49 H49        -0.8954   53.2679   30.7076 H         1 UNK         0.0000 
     50 H50        -0.0955   51.9914   31.6820 H         1 UNK         0.0000 
     51 H51         0.0993   53.7140   32.1472 H         1 UNK         0.0000 
     52 H52         2.8911   54.2276   21.8814 H         1 UNK         0.0000 
     53 H53         5.9039   52.5853   19.7248 H         1 UNK         0.0000 
     54 H54         4.1142   52.4592   19.6834 H         1 UNK         0.0000 
     55 H55         5.1645   52.4963   17.4059 H         1 UNK         0.0000 
     56 H56         4.0374   53.7714   17.6563 H         1 UNK         0.0000 
     57 H57         7.0921   53.9617   17.7570 H         1 UNK         0.0000 
     58 H58         6.0521   54.6841   16.5414 H         1 UNK         0.0000 
     59 H59         5.9211   56.3865   20.3836 H         1 UNK         0.0000 
     60 H60         6.9936   54.9782   20.1240 H         1 UNK         0.0000 
     61 H61         3.5331   55.9220   17.8346 H         1 UNK         0.0000 
     62 H62         1.4343   56.4070   16.6737 H         1 UNK         0.0000 
     63 H63         3.2674   59.7556   14.7139 H         1 UNK         0.0000 
     64 H64         5.3969   59.2582   15.8465 H         1 UNK         0.0000 
     65 H65         2.0327   52.8504   30.9559 H         1 UNK         0.0000 
@<TRIPOS>BOND
     1    1    2 1    
     2    1   35 1    
     3    1   36 1    
     4    1   37 1    
     5    2    7 ar   
     6    2    3 ar   
     7    3    4 ar   
     8    3   38 1    
     9    4    5 ar   
    10    4   15 1    
    11    5    6 ar   
    12    5   39 1    
    13    6    7 ar   
    14    6   40 1    
    15    7    8 1    
    16    8   13 1    
    17    8    9 1    
    18    9   10 1    
    19    9   41 1    
    20    9   42 1    
    21   10   11 1    
    22   10   43 1    
    23   10   44 1    
    24   11   12 1    
    25   11   14 1    
    26   11   65 1    
    27   12   13 1    
    28   12   45 1    
    29   12   46 1    
    30   13   47 1    
    31   13   48 1    
    32   14   49 1    
    33   14   50 1    
    34   14   51 1    
    35   15   16 am   BACKBONE|DICT|INTERRES
    36   15   52 1    
    37   16   17 2    
    38   16   18 1    
    39   18   19 1    
    40   18   24 1    
    41   18   20 1    
    42   20   21 1    
    43   20   53 1    
    44   20   54 1    
    45   21   22 1    
    46   21   55 1    
    47   21   56 1    
    48   22   23 1    
    49   22   57 1    
    50   22   58 1    
    51   23   24 1    
    52   23   25 1    
    53   24   59 1    
    54   24   60 1    
    55   25   26 2    
    56   25   27 2    
    57   25   28 1    
    58   28   33 ar   
    59   28   29 ar   
    60   29   30 ar   
    61   29   61 1    
    62   30   31 ar   
    63   30   62 1    
    64   31   32 ar   
    65   31   34 1    
    66   32   33 ar   
    67   32   63 1    
    68   33   64 1    
@<TRIPOS>SUBSTRUCTURE
     1 UNK         1 GROUP             0       ****    0 ROOT    
