ZINC33253006_5977
                    3D
 Schrodinger Suite 2024-2.
 59 62  0  0  1  0            999 V2000
    6.1346   54.5205   27.0518 C   0  0  0  0  0  0
    4.7026   54.1966   27.4391 C   0  0  0  0  0  0
    4.2513   54.4182   28.7374 C   0  0  0  0  0  0
    2.9307   54.1304   29.0712 C   0  0  0  0  0  0
    2.0420   53.6122   28.1208 C   0  0  0  0  0  0
    2.4876   53.3838   26.7951 C   0  0  0  0  0  0
    3.8191   53.6981   26.4819 C   0  0  0  0  0  0
    1.6877   52.8935   25.7618 N   0  0  0  0  0  0
    0.6989   51.8161   25.9236 C   0  0  0  0  0  0
    0.4014   50.9535   24.6686 C   0  0  0  0  0  0
    0.8329   51.5058   23.3786 N   0  0  0  0  0  0
    0.7809   52.9671   23.3532 C   0  0  0  0  0  0
    1.4914   53.6695   24.5299 C   0  0  0  0  0  0
    0.7333   50.7524   22.2131 C   0  0  0  0  0  0
    1.7497   49.8028   22.0417 C   0  0  0  0  0  0
    1.8991   49.1146   20.8431 C   0  0  0  0  0  0
    1.0299   49.3604   19.7900 C   0  0  0  0  0  0
   -0.0487   50.2181   19.9746 C   0  0  0  0  0  0
   -0.2405   50.9138   21.1838 C   0  0  0  0  0  0
   -1.5182   51.6977   21.3402 C   0  0  0  0  0  0
   -1.9893   51.8782   22.4836 O   0  0  0  0  0  0
   -2.0962   52.0974   20.2990 O   0  5  0  0  0  0
    1.2715   48.7856   18.5425 N   0  0  0  0  0  0
    0.4741   47.2781   18.1016 S   0  0  0  0  0  0
    1.1043   46.2120   18.8876 O   0  0  0  0  0  0
   -0.9746   47.5071   18.1541 O   0  0  0  0  0  0
    0.9479   47.0152   16.4034 C   0  0  0  0  0  0
    2.3050   46.8950   16.1025 C   0  0  0  0  0  0
    2.7043   46.7276   14.7821 C   0  0  0  0  0  0
    1.7457   46.6666   13.7732 C   0  0  0  0  0  0
    0.3896   46.7795   14.0745 C   0  0  0  0  0  0
   -0.0153   46.9578   15.3949 C   0  0  0  0  0  0
    2.1370   46.4968   12.4898 F   0  0  0  0  0  0
    0.6064   53.3653   28.5773 C   0  0  0  0  0  0
    6.1792   54.8872   26.0229 H   0  0  0  0  0  0
    6.5519   55.3067   27.6832 H   0  0  0  0  0  0
    6.7623   53.6293   27.1263 H   0  0  0  0  0  0
    4.9192   54.8200   29.4862 H   0  0  0  0  0  0
    2.5925   54.3183   30.0796 H   0  0  0  0  0  0
    4.1888   53.5207   25.4835 H   0  0  0  0  0  0
    0.8627   51.1941   26.8047 H   0  0  0  0  0  0
   -0.2231   52.3666   26.1086 H   0  0  0  0  0  0
   -0.6433   50.6369   24.6649 H   0  0  0  0  0  0
    1.0387   50.0725   24.7836 H   0  0  0  0  0  0
   -0.2737   53.2041   23.4808 H   0  0  0  0  0  0
    1.0666   53.3760   22.3842 H   0  0  0  0  0  0
    1.0151   54.6272   24.7188 H   0  0  0  0  0  0
    2.4981   53.8469   24.1546 H   0  0  0  0  0  0
    2.4760   49.6332   22.8244 H   0  0  0  0  0  0
    2.7054   48.4126   20.7205 H   0  0  0  0  0  0
   -0.7468   50.3418   19.1552 H   0  0  0  0  0  0
    2.2559   48.7670   18.3185 H   0  0  0  0  0  0
    3.0525   46.9624   16.8832 H   0  0  0  0  0  0
    3.7557   46.6612   14.5474 H   0  0  0  0  0  0
   -0.3448   46.7348   13.2836 H   0  0  0  0  0  0
   -1.0660   47.0596   15.6285 H   0  0  0  0  0  0
   -0.1102   53.6988   27.8279 H   0  0  0  0  0  0
    0.4355   52.3040   28.7662 H   0  0  0  0  0  0
    0.3676   53.9148   29.4896 H   0  0  0  0  0  0
  1  2  1  0  0  0
  1 35  1  0  0  0
  1 36  1  0  0  0
  1 37  1  0  0  0
  2  7  2  0  0  0
  2  3  1  0  0  0
  3  4  2  0  0  0
  3 38  1  0  0  0
  4  5  1  0  0  0
  4 39  1  0  0  0
  5  6  2  0  0  0
  5 34  1  0  0  0
  6  7  1  0  0  0
  6  8  1  0  0  0
  7 40  1  0  0  0
  8 13  1  0  0  0
  8  9  1  0  0  0
  9 10  1  0  0  0
  9 41  1  0  0  0
  9 42  1  0  0  0
 10 11  1  0  0  0
 10 43  1  0  0  0
 10 44  1  0  0  0
 11 12  1  0  0  0
 11 14  1  0  0  0
 12 13  1  0  0  0
 12 45  1  0  0  0
 12 46  1  0  0  0
 13 47  1  0  0  0
 13 48  1  0  0  0
 14 19  2  0  0  0
 14 15  1  0  0  0
 15 16  2  0  0  0
 15 49  1  0  0  0
 16 17  1  0  0  0
 16 50  1  0  0  0
 17 18  2  0  0  0
 17 23  1  0  0  0
 18 19  1  0  0  0
 18 51  1  0  0  0
 19 20  1  0  0  0
 20 21  2  0  0  0
 20 22  1  0  0  0
 23 24  1  0  0  0
 23 52  1  0  0  0
 24 25  2  0  0  0
 24 26  2  0  0  0
 24 27  1  0  0  0
 27 32  2  0  0  0
 27 28  1  0  0  0
 28 29  2  0  0  0
 28 53  1  0  0  0
 29 30  1  0  0  0
 29 54  1  0  0  0
 30 31  2  0  0  0
 30 33  1  0  0  0
 31 32  1  0  0  0
 31 55  1  0  0  0
 32 56  1  0  0  0
 34 57  1  0  0  0
 34 58  1  0  0  0
 34 59  1  0  0  0
M  CHG  1  22  -1
M  END
> <i_i_glide_confnum>
591

> <i_i_glide_lignum>
5978

> <i_i_glide_posenum>
223

> <i_i_glide_rotatable_bonds>
6

> <i_m_Source_File_Index>
2092

> <b_m_subgroup_collapsed>
0

> <r_i_docking_score>
-2.07119

> <r_i_glide_ecoul>
-6.10403

> <r_i_glide_eff_state_penalty>
0

> <r_i_glide_einternal>
8.02995

> <r_i_glide_emodel>
-34.9122

> <r_i_glide_energy>
-42.4299

> <r_i_glide_erotb>
0.435776

> <r_i_glide_esite>
-0.127861

> <r_i_glide_evdw>
-36.3259

> <r_i_glide_gscore>
-2.07119

> <r_i_glide_hbond>
-0.16

> <r_i_glide_ligand_efficiency>
-0.0609175

> <r_i_glide_ligand_efficiency_ln>
-0.457585

> <r_i_glide_ligand_efficiency_sa>
-0.197349

> <r_i_glide_lipo>
-2.50125

> <r_i_glide_metal>
0

> <r_i_glide_rewards>
3.01404

> <s_i_glide_gridfile>
wee1_glide-grid

> <s_m_Source_File>
wee1_decoys_glide_SP.sdf

> <s_m_Source_Path>
/Users/zhangxujun/Desktop

> <s_m_entry_id>
2367

> <s_m_entry_name>
wee1_decoys_glide_SP.2092

> <s_m_subgroup_title>
wee1_decoys_glide_SP

> <s_m_subgroupid>
wee1_decoys_glide_SP


$$$$
