@<TRIPOS>MOLECULE
ZINC41006555_4958
67   70    1
SMALL
USER_CHARGES


@<TRIPOS>ATOM
      1 C1         -1.8198   47.6518   21.5376 C.3       1 UNK         0.0000 
      2 C2         -1.3533   48.1646   22.8958 C.ar      1 UNK         0.0000 
      3 C3         -2.1086   47.8212   24.0185 C.ar      1 UNK         0.0000 
      4 C4         -1.6839   48.1909   25.2898 C.ar      1 UNK         0.0000 
      5 C5         -0.4945   48.8971   25.4595 C.ar      1 UNK         0.0000 
      6 C6          0.2662   49.2534   24.3507 C.ar      1 UNK         0.0000 
      7 C7         -0.1674   48.9132   23.0677 C.ar      1 UNK         0.0000 
      8 N8          0.6496   49.2957   22.0035 N.am      1 UNK         0.0000 
      9 C9          0.2444   50.0403   20.9595 C.2       1 UNK         0.0000 
     10 O10        -0.8278   50.6538   20.9290 O.2       1 UNK         0.0000 
     11 C11         1.1998   50.0841   19.7467 C.3       1 UNK         0.0000 
     12 H12         2.0939   49.5194   20.0158 H         1 UNK         0.0000 
     13 C13         1.6185   51.5657   19.4183 C.3       1 UNK         0.0000 
     14 H14         0.6981   52.1537   19.3627 H         1 UNK         0.0000 
     15 C15         2.3032   51.6997   18.0042 C.3       1 UNK         0.0000 
     16 H16         3.2790   51.2215   18.0536 H         1 UNK         0.0000 
     17 C17         1.5183   50.9633   16.8600 C.3       1 UNK         0.0000 
     18 C18         1.3414   49.4839   17.2509 C.3       1 UNK         0.0000 
     19 C19         0.5744   49.3182   18.5518 C.2       1 UNK         0.0000 
     20 O20        -0.4294   48.6048   18.6067 O.2       1 UNK         0.0000 
     21 C21         0.1634   51.5867   16.4325 C.3       1 UNK         0.0000 
     22 O22         2.3043   50.8964   15.6930 O.3       1 UNK         0.0000 
     23 C23         2.5866   53.1939   17.6830 C.2       1 UNK         0.0000 
     24 O24         1.6406   53.9627   17.5084 O.2       1 UNK         0.0000 
     25 N25         3.8884   53.5606   17.6739 N.am      1 UNK         0.0000 
     26 C26         4.4694   54.8468   17.5861 C.ar      1 UNK         0.0000 
     27 C27         3.7530   56.0012   17.2220 C.ar      1 UNK         0.0000 
     28 C28         4.3764   57.2468   17.1848 C.ar      1 UNK         0.0000 
     29 C29         5.7252   57.3611   17.5069 C.ar      1 UNK         0.0000 
     30 C30         6.4512   56.2265   17.8644 C.ar      1 UNK         0.0000 
     31 C31         5.8369   54.9695   17.9063 C.ar      1 UNK         0.0000 
     32 C32         6.6800   53.7622   18.3084 C.3       1 UNK         0.0000 
     33 C33         2.4108   52.1870   20.6003 C.ar      1 UNK         0.0000 
     34 C34         3.8092   52.1491   20.6427 C.ar      1 UNK         0.0000 
     35 C35         4.5008   52.7699   21.6801 C.ar      1 UNK         0.0000 
     36 C36         3.8132   53.4366   22.7018 C.ar      1 UNK         0.0000 
     37 C37         2.4135   53.4531   22.6748 C.ar      1 UNK         0.0000 
     38 C38         1.7255   52.8400   21.6342 C.ar      1 UNK         0.0000 
     39 N39         4.5556   54.0969   23.8026 N.pl3     1 UNK         0.0000 
     40 O40         5.7755   54.2045   23.7046 O.co2     1 UNK         0.0000 
     41 O41         3.9209   54.4972   24.7745 O.co2     1 UNK         0.0000 
     42 H42        -2.3109   48.4431   20.9688 H         1 UNK         0.0000 
     43 H43        -0.9711   47.2867   20.9593 H         1 UNK         0.0000 
     44 H44        -2.5095   46.8138   21.6349 H         1 UNK         0.0000 
     45 H45        -3.0252   47.2602   23.9130 H         1 UNK         0.0000 
     46 H46        -2.2646   47.9168   26.1592 H         1 UNK         0.0000 
     47 H47        -0.1622   49.1521   26.4569 H         1 UNK         0.0000 
     48 H48         1.1903   49.7947   24.4939 H         1 UNK         0.0000 
     49 H49         1.6207   49.0313   22.0604 H         1 UNK         0.0000 
     50 H50         2.3042   48.9957   17.3950 H         1 UNK         0.0000 
     51 H51         0.8197   48.9309   16.4660 H         1 UNK         0.0000 
     52 H52        -0.4877   51.7611   17.2893 H         1 UNK         0.0000 
     53 H53         0.2919   52.5387   15.9189 H         1 UNK         0.0000 
     54 H54        -0.3707   50.9370   15.7398 H         1 UNK         0.0000 
     55 H55         3.0261   50.2731   15.8808 H         1 UNK         0.0000 
     56 H56         4.5526   52.8154   17.8364 H         1 UNK         0.0000 
     57 H57         2.7092   55.9666   16.9530 H         1 UNK         0.0000 
     58 H58         3.8133   58.1267   16.9041 H         1 UNK         0.0000 
     59 H59         6.2038   58.3295   17.4735 H         1 UNK         0.0000 
     60 H60         7.5003   56.3316   18.1097 H         1 UNK         0.0000 
     61 H61         7.7258   54.0222   18.4846 H         1 UNK         0.0000 
     62 H62         6.2811   53.3098   19.2162 H         1 UNK         0.0000 
     63 H63         6.6509   52.9955   17.5288 H         1 UNK         0.0000 
     64 H64         4.3790   51.6540   19.8732 H         1 UNK         0.0000 
     65 H65         5.5801   52.7316   21.6814 H         1 UNK         0.0000 
     66 H66         1.8527   53.9600   23.4474 H         1 UNK         0.0000 
     67 H67         0.6472   52.8958   21.6170 H         1 UNK         0.0000 
@<TRIPOS>BOND
     1    1    2 1    
     2    1   42 1    
     3    1   43 1    
     4    1   44 1    
     5    2    7 ar   
     6    2    3 ar   
     7    3    4 ar   
     8    3   45 1    
     9    4    5 ar   
    10    4   46 1    
    11    5    6 ar   
    12    5   47 1    
    13    6    7 ar   
    14    6   48 1    
    15    7    8 1    
    16    8    9 am   BACKBONE|DICT|INTERRES
    17    8   49 1    
    18    9   10 2    
    19    9   11 1    
    20   11   12 1    
    21   11   19 1    
    22   11   13 1    
    23   13   14 1    
    24   13   15 1    
    25   13   33 1    
    26   15   16 1    
    27   15   17 1    
    28   15   23 1    
    29   17   18 1    
    30   17   21 1    
    31   17   22 1    
    32   18   19 1    
    33   18   50 1    
    34   18   51 1    
    35   19   20 2    
    36   21   52 1    
    37   21   53 1    
    38   21   54 1    
    39   22   55 1    
    40   23   24 2    
    41   23   25 am   BACKBONE|DICT|INTERRES
    42   25   26 1    
    43   25   56 1    
    44   26   31 ar   
    45   26   27 ar   
    46   27   28 ar   
    47   27   57 1    
    48   28   29 ar   
    49   28   58 1    
    50   29   30 ar   
    51   29   59 1    
    52   30   31 ar   
    53   30   60 1    
    54   31   32 1    
    55   32   61 1    
    56   32   62 1    
    57   32   63 1    
    58   33   38 ar   
    59   33   34 ar   
    60   34   35 ar   
    61   34   64 1    
    62   35   36 ar   
    63   35   65 1    
    64   36   37 ar   
    65   36   39 1    
    66   37   38 ar   
    67   37   66 1    
    68   38   67 1    
    69   39   40 2    
    70   39   41 1    
@<TRIPOS>SUBSTRUCTURE
     1 UNK         1 GROUP             0       ****    0 ROOT    
