ZINC44942892_4857
                    3D
 Schrodinger Suite 2024-2.
 78 82  0  0  1  0            999 V2000
    5.7712   54.4954   24.0598 C   0  0  0  0  0  0
    6.7190   54.4823   25.0781 C   0  0  0  0  0  0
    6.3151   54.4411   26.4106 C   0  0  0  0  0  0
    4.9542   54.4284   26.7242 C   0  0  0  0  0  0
    4.0047   54.4851   25.6941 C   0  0  0  0  0  0
    4.4120   54.4968   24.3636 C   0  0  0  0  0  0
    4.5472   54.3601   28.1991 C   0  0  0  0  0  0
    3.1375   54.2069   28.3758 O   0  0  0  0  0  0
    2.6109   52.9009   28.1281 C   0  0  1  0  0  0
    3.1468   52.4624   27.2864 H   0  0  0  0  0  0
    2.7902   51.9940   29.3669 C   0  0  0  0  0  0
    1.9620   52.4918   30.5674 C   0  0  0  0  0  0
    0.4727   52.6518   30.2060 C   0  0  0  0  0  0
    0.3084   53.5405   28.9600 C   0  0  0  0  0  0
    1.1157   53.0296   27.7375 C   0  0  2  0  0  0
    1.0528   53.7828   26.9543 H   0  0  0  0  0  0
    0.6083   51.7813   27.1466 N   0  0  0  0  0  0
   -0.5726   51.6220   26.5191 C   0  0  0  0  0  0
   -1.4372   52.4963   26.4855 O   0  0  0  0  0  0
   -0.8101   50.2508   25.8437 C   0  0  1  0  0  0
   -0.3946   49.5752   26.5957 H   0  0  0  0  0  0
   -2.3070   49.8651   25.6812 C   0  0  0  0  0  0
   -2.4270   48.4147   25.1591 C   0  0  0  0  0  0
   -1.5730   48.1459   23.9007 C   0  0  0  0  0  0
   -0.0993   48.5462   24.1281 C   0  0  0  0  0  0
    0.0936   50.0145   24.5800 C   0  0  1  0  0  0
    1.1272   50.2055   24.8569 H   0  0  0  0  0  0
   -0.1858   50.9853   23.3766 C   0  0  0  0  0  0
   -1.2088   51.6747   23.3933 O   0  0  0  0  0  0
    0.6396   50.9971   22.2861 N   0  0  0  0  0  0
    0.2475   51.8476   21.1336 C   0  0  0  0  0  0
    1.1993   51.6079   19.9370 C   0  0  0  0  0  0
    2.6113   51.8239   20.3245 N   0  0  0  0  0  0
    2.9731   51.3689   21.6832 C   0  0  0  0  0  0
    1.9653   50.3432   22.2534 C   0  0  0  0  0  0
    3.5320   52.5487   19.5057 C   0  0  0  0  0  0
    4.6342   53.2343   20.0447 C   0  0  0  0  0  0
    5.4870   53.9522   19.2019 C   0  0  0  0  0  0
    5.2330   53.9868   17.8286 C   0  0  0  0  0  0
    4.1284   53.2971   17.3212 C   0  0  0  0  0  0
    3.3282   52.6189   18.1705 N   0  3  0  0  0  0
    6.0953   54.5217   23.0293 H   0  0  0  0  0  0
    7.7696   54.4938   24.8319 H   0  0  0  0  0  0
    7.0558   54.4093   27.1966 H   0  0  0  0  0  0
    2.9482   54.4985   25.9101 H   0  0  0  0  0  0
    3.6787   54.5213   23.5707 H   0  0  0  0  0  0
    4.8368   55.2964   28.6697 H   0  0  0  0  0  0
    5.0978   53.5724   28.7144 H   0  0  0  0  0  0
    2.4366   50.9915   29.1144 H   0  0  0  0  0  0
    3.8442   51.8725   29.6192 H   0  0  0  0  0  0
    2.0703   51.8175   31.4191 H   0  0  0  0  0  0
    2.3538   53.4564   30.8813 H   0  0  0  0  0  0
    0.0265   51.6734   30.0193 H   0  0  0  0  0  0
   -0.0751   53.0771   31.0491 H   0  0  0  0  0  0
    0.6227   54.5592   29.1973 H   0  0  0  0  0  0
   -0.7450   53.6142   28.7063 H   0  0  0  0  0  0
    1.1843   50.9666   27.2706 H   0  0  0  0  0  0
   -2.8187   50.5106   24.9665 H   0  0  0  0  0  0
   -2.8139   49.8851   26.6490 H   0  0  0  0  0  0
   -3.4742   48.1833   24.9595 H   0  0  0  0  0  0
   -2.1136   47.7308   25.9526 H   0  0  0  0  0  0
   -1.9829   48.6993   23.0541 H   0  0  0  0  0  0
   -1.6362   47.0913   23.6280 H   0  0  0  0  0  0
    0.5400   48.3042   23.2832 H   0  0  0  0  0  0
    0.3431   47.9030   24.8894 H   0  0  0  0  0  0
    0.3313   52.8944   21.4350 H   0  0  0  0  0  0
   -0.7667   51.5888   20.8142 H   0  0  0  0  0  0
    0.9412   52.3236   19.1588 H   0  0  0  0  0  0
    1.0920   50.6062   19.5162 H   0  0  0  0  0  0
    3.9582   50.9069   21.6280 H   0  0  0  0  0  0
    3.0482   52.2442   22.3292 H   0  0  0  0  0  0
    1.8945   49.4897   21.5804 H   0  0  0  0  0  0
    2.3376   49.9986   23.2173 H   0  0  0  0  0  0
    4.8315   53.2174   21.1065 H   0  0  0  0  0  0
    6.3389   54.4785   19.6082 H   0  0  0  0  0  0
    5.8906   54.5316   17.1663 H   0  0  0  0  0  0
    3.8663   53.2450   16.2742 H   0  0  0  0  0  0
    2.5602   52.0876   17.7852 H   0  0  0  0  0  0
  1  6  2  0  0  0
  1  2  1  0  0  0
  1 42  1  0  0  0
  2  3  2  0  0  0
  2 43  1  0  0  0
  3  4  1  0  0  0
  3 44  1  0  0  0
  4  5  2  0  0  0
  4  7  1  0  0  0
  5  6  1  0  0  0
  5 45  1  0  0  0
  6 46  1  0  0  0
  7  8  1  0  0  0
  7 47  1  0  0  0
  7 48  1  0  0  0
  8  9  1  0  0  0
  9 10  1  0  0  0
  9 15  1  0  0  0
  9 11  1  0  0  0
 11 12  1  0  0  0
 11 49  1  0  0  0
 11 50  1  0  0  0
 12 13  1  0  0  0
 12 51  1  0  0  0
 12 52  1  0  0  0
 13 14  1  0  0  0
 13 53  1  0  0  0
 13 54  1  0  0  0
 14 15  1  0  0  0
 14 55  1  0  0  0
 14 56  1  0  0  0
 15 16  1  0  0  0
 15 17  1  0  0  0
 17 18  1  0  0  0
 17 57  1  0  0  0
 18 19  2  0  0  0
 18 20  1  0  0  0
 20 21  1  0  0  0
 20 26  1  0  0  0
 20 22  1  0  0  0
 22 23  1  0  0  0
 22 58  1  0  0  0
 22 59  1  0  0  0
 23 24  1  0  0  0
 23 60  1  0  0  0
 23 61  1  0  0  0
 24 25  1  0  0  0
 24 62  1  0  0  0
 24 63  1  0  0  0
 25 26  1  0  0  0
 25 64  1  0  0  0
 25 65  1  0  0  0
 26 27  1  0  0  0
 26 28  1  0  0  0
 28 29  2  0  0  0
 28 30  1  0  0  0
 30 35  1  0  0  0
 30 31  1  0  0  0
 31 32  1  0  0  0
 31 66  1  0  0  0
 31 67  1  0  0  0
 32 33  1  0  0  0
 32 68  1  0  0  0
 32 69  1  0  0  0
 33 34  1  0  0  0
 33 36  1  0  0  0
 34 35  1  0  0  0
 34 70  1  0  0  0
 34 71  1  0  0  0
 35 72  1  0  0  0
 35 73  1  0  0  0
 36 41  2  0  0  0
 36 37  1  0  0  0
 37 38  2  0  0  0
 37 74  1  0  0  0
 38 39  1  0  0  0
 38 75  1  0  0  0
 39 40  2  0  0  0
 39 76  1  0  0  0
 40 41  1  0  0  0
 40 77  1  0  0  0
 41 78  1  0  0  0
M  CHG  1  41   1
M  END
> <i_i_glide_confnum>
1582

> <i_i_glide_lignum>
4858

> <i_i_glide_posenum>
350

> <i_i_glide_rotatable_bonds>
9

> <i_m_Source_File_Index>
5045

> <b_m_subgroup_collapsed>
0

> <r_i_docking_score>
-5.09728

> <r_i_glide_ecoul>
-0.799546

> <r_i_glide_eff_state_penalty>
0

> <r_i_glide_einternal>
0.841633

> <r_i_glide_emodel>
-72.1349

> <r_i_glide_energy>
-53.4567

> <r_i_glide_erotb>
0.719951

> <r_i_glide_esite>
-0.114902

> <r_i_glide_evdw>
-52.6572

> <r_i_glide_gscore>
-5.09728

> <r_i_glide_hbond>
0

> <r_i_glide_ligand_efficiency>
-0.137764

> <r_i_glide_ligand_efficiency_ln>
-1.10548

> <r_i_glide_ligand_efficiency_sa>
-0.459061

> <r_i_glide_lipo>
-2.75348

> <r_i_glide_metal>
0

> <r_i_glide_rewards>
-0.196054

> <s_i_glide_gridfile>
wee1_glide-grid

> <s_m_Source_File>
wee1_decoys_glide_SP.sdf

> <s_m_Source_Path>
/Users/zhangxujun/Desktop

> <s_m_entry_id>
5320

> <s_m_entry_name>
wee1_decoys_glide_SP.5045

> <s_m_subgroup_title>
wee1_decoys_glide_SP

> <s_m_subgroupid>
wee1_decoys_glide_SP


$$$$
