@<TRIPOS>MOLECULE
ZINC38651669_4139
54   57    1
SMALL
USER_CHARGES


@<TRIPOS>ATOM
      1 C1          1.6184   53.2279   22.5297 C.3       1 UNK         0.0000 
      2 C2          1.4691   52.9630   24.0208 C.ar      1 UNK         0.0000 
      3 C3          0.4825   52.0750   24.4587 C.ar      1 UNK         0.0000 
      4 C4          0.3043   51.8330   25.8185 C.ar      1 UNK         0.0000 
      5 C5          1.1075   52.4853   26.7504 C.ar      1 UNK         0.0000 
      6 C6          2.1071   53.3710   26.3312 C.ar      1 UNK         0.0000 
      7 C7          2.2987   53.6078   24.9542 C.ar      1 UNK         0.0000 
      8 O8          3.2407   54.4974   24.4842 O.3       1 UNK         0.0000 
      9 C9          4.6094   54.2126   24.7766 C.3       1 UNK         0.0000 
     10 C10         5.4665   54.0966   23.5071 C.2       1 UNK         0.0000 
     11 O11         6.6846   53.9218   23.5987 O.2       1 UNK         0.0000 
     12 O12         4.7584   54.2214   22.3440 O.3       1 UNK         0.0000 
     13 C13         5.4009   54.3535   21.1312 C.ar      1 UNK         0.0000 
     14 C14         5.1044   53.4595   20.1015 C.ar      1 UNK         0.0000 
     15 C15         5.7041   53.5939   18.8484 C.ar      1 UNK         0.0000 
     16 C16         6.6058   54.6328   18.5791 C.ar      1 UNK         0.0000 
     17 C17         6.9018   55.5218   19.6307 C.ar      1 UNK         0.0000 
     18 C18         6.3051   55.3926   20.8840 C.ar      1 UNK         0.0000 
     19 O19         7.7911   56.5659   19.4990 O.3       1 UNK         0.0000 
     20 C20         8.4579   56.7149   18.3302 C.2       1 UNK         0.0000 
     21 C21         8.2751   55.9615   17.2306 C.2       1 UNK         0.0000 
     22 C22         7.2406   54.8332   17.1883 C.3       1 UNK         0.0000 
     23 H23         6.4513   55.1916   16.5256 H         1 UNK         0.0000 
     24 C24         7.7829   53.5458   16.5608 C.ar      1 UNK         0.0000 
     25 C25         8.9051   52.9141   17.1091 C.ar      1 UNK         0.0000 
     26 C26         9.4405   51.7852   16.4959 C.ar      1 UNK         0.0000 
     27 C27         8.8584   51.2904   15.3314 C.ar      1 UNK         0.0000 
     28 C28         7.7338   51.9043   14.7864 C.ar      1 UNK         0.0000 
     29 C29         7.1933   53.0289   15.4016 C.ar      1 UNK         0.0000 
     30 Br30        9.6003   49.7561   14.4824 Br        1 UNK         0.0000 
     31 C31         9.0411   56.2282   16.0532 C.1       1 UNK         0.0000 
     32 N32         9.6779   56.4683   15.1167 N.1       1 UNK         0.0000 
     33 N33         9.3381   57.7492   18.4817 N.pl3     1 UNK         0.0000 
     34 C34         2.9242   54.0979   27.3899 C.3       1 UNK         0.0000 
     35 H35         0.7061   52.9910   21.9805 H         1 UNK         0.0000 
     36 H36         1.8260   54.2826   22.3505 H         1 UNK         0.0000 
     37 H37         2.4407   52.6451   22.1184 H         1 UNK         0.0000 
     38 H38        -0.1520   51.5684   23.7472 H         1 UNK         0.0000 
     39 H39        -0.4588   51.1438   26.1532 H         1 UNK         0.0000 
     40 H40         0.9505   52.2976   27.8025 H         1 UNK         0.0000 
     41 H41         4.7157   53.2966   25.3557 H         1 UNK         0.0000 
     42 H42         4.9984   55.0348   25.3757 H         1 UNK         0.0000 
     43 H43         4.4024   52.6544   20.2670 H         1 UNK         0.0000 
     44 H44         5.4550   52.8817   18.0736 H         1 UNK         0.0000 
     45 H45         6.5484   56.0970   21.6629 H         1 UNK         0.0000 
     46 H46         9.3701   53.3042   18.0025 H         1 UNK         0.0000 
     47 H47        10.3080   51.3005   16.9197 H         1 UNK         0.0000 
     48 H48         7.2851   51.5096   13.8865 H         1 UNK         0.0000 
     49 H49         6.3284   53.5031   14.9625 H         1 UNK         0.0000 
     50 H50         9.9430   58.0226   17.7214 H         1 UNK         0.0000 
     51 H51         9.5752   58.0674   19.4119 H         1 UNK         0.0000 
     52 H52         2.3623   54.2023   28.3187 H         1 UNK         0.0000 
     53 H53         3.8483   53.5598   27.5987 H         1 UNK         0.0000 
     54 H54         3.1719   55.1085   27.0672 H         1 UNK         0.0000 
@<TRIPOS>BOND
     1    1    2 1    
     2    1   35 1    
     3    1   36 1    
     4    1   37 1    
     5    2    7 ar   
     6    2    3 ar   
     7    3    4 ar   
     8    3   38 1    
     9    4    5 ar   
    10    4   39 1    
    11    5    6 ar   
    12    5   40 1    
    13    6    7 ar   
    14    6   34 1    
    15    7    8 1    
    16    8    9 1    
    17    9   10 1    
    18    9   41 1    
    19    9   42 1    
    20   10   11 2    
    21   10   12 1    
    22   12   13 1    
    23   13   18 ar   
    24   13   14 ar   
    25   14   15 ar   
    26   14   43 1    
    27   15   16 ar   
    28   15   44 1    
    29   16   22 1    
    30   16   17 ar   
    31   17   18 ar   
    32   17   19 1    
    33   18   45 1    
    34   19   20 1    
    35   20   21 2    
    36   20   33 1    
    37   21   22 1    
    38   21   31 1    
    39   22   23 1    
    40   22   24 1    
    41   24   29 ar   
    42   24   25 ar   
    43   25   26 ar   
    44   25   46 1    
    45   26   27 ar   
    46   26   47 1    
    47   27   28 ar   
    48   27   30 1    
    49   28   29 ar   
    50   28   48 1    
    51   29   49 1    
    52   31   32 3    
    53   33   50 1    
    54   33   51 1    
    55   34   52 1    
    56   34   53 1    
    57   34   54 1    
@<TRIPOS>SUBSTRUCTURE
     1 UNK         1 GROUP             0       ****    0 ROOT    
