@<TRIPOS>MOLECULE
ZINC00694529_3940
55   59    1
SMALL
USER_CHARGES


@<TRIPOS>ATOM
      1 C1          4.0518   53.1444   29.9362 C.3       1 UNK         0.0000 
      2 C2          4.8128   54.1164   29.0144 C.3       1 UNK         0.0000 
      3 C3          4.5909   53.8504   27.5050 C.3       1 UNK         0.0000 
      4 H4          4.7768   52.7855   27.3461 H         1 UNK         0.0000 
      5 C5          3.1618   54.2241   27.0616 C.3       1 UNK         0.0000 
      6 C6          2.8503   53.7385   25.6338 C.3       1 UNK         0.0000 
      7 C7          4.0038   54.0926   24.6818 C.2       1 UNK         0.0000 
      8 C8          5.2513   54.5017   25.1796 C.2       1 UNK         0.0000 
      9 S9          6.3599   54.8853   23.9178 S.3       1 UNK         0.0000 
     10 C10         5.1939   54.4493   22.6872 C.2       1 UNK         0.0000 
     11 C11         3.9836   53.9915   23.2617 C.2       1 UNK         0.0000 
     12 C12         2.8114   53.5640   22.5123 C.2       1 UNK         0.0000 
     13 O13         1.6640   53.8009   22.8820 O.2       1 UNK         0.0000 
     14 N14         3.0505   52.8969   21.3831 N.am      1 UNK         0.0000 
     15 N15         5.4856   54.5431   21.3207 N.am      1 UNK         0.0000 
     16 C16         6.4292   55.2970   20.7144 C.2       1 UNK         0.0000 
     17 O17         7.1135   56.1219   21.3151 O.2       1 UNK         0.0000 
     18 C18         6.6390   55.0882   19.1844 C.3       1 UNK         0.0000 
     19 C19         7.3914   56.2922   18.5908 C.ar      1 UNK         0.0000 
     20 C20         8.7878   56.4080   18.5994 C.ar      1 UNK         0.0000 
     21 C21         9.4142   57.5462   18.0890 C.ar      1 UNK         0.0000 
     22 C22         8.6507   58.5890   17.5620 C.ar      1 UNK         0.0000 
     23 C23         7.2593   58.4944   17.5427 C.ar      1 UNK         0.0000 
     24 C24         6.6416   57.3548   18.0568 C.ar      1 UNK         0.0000 
     25 O25         5.2655   57.2962   17.9857 O.3       1 UNK         0.0000 
     26 C26         4.6644   56.0589   17.9333 C.ar      1 UNK         0.0000 
     27 C27         5.2918   54.9205   18.4651 C.ar      1 UNK         0.0000 
     28 C28         4.6556   53.6821   18.3073 C.ar      1 UNK         0.0000 
     29 C29         3.4263   53.5891   17.6530 C.ar      1 UNK         0.0000 
     30 C30         2.8144   54.7329   17.1411 C.ar      1 UNK         0.0000 
     31 C31         3.4362   55.9729   17.2779 C.ar      1 UNK         0.0000 
     32 C32         5.6152   54.6444   26.6542 C.3       1 UNK         0.0000 
     33 H33         4.3042   53.3167   30.9823 H         1 UNK         0.0000 
     34 H34         4.3061   52.1072   29.7092 H         1 UNK         0.0000 
     35 H35         2.9704   53.2502   29.8436 H         1 UNK         0.0000 
     36 H36         4.5335   55.1440   29.2596 H         1 UNK         0.0000 
     37 H37         5.8763   54.0439   29.2408 H         1 UNK         0.0000 
     38 H38         2.4286   53.7755   27.7298 H         1 UNK         0.0000 
     39 H39         3.0033   55.2963   27.1809 H         1 UNK         0.0000 
     40 H40         2.7021   52.6573   25.6378 H         1 UNK         0.0000 
     41 H41         1.9071   54.1816   25.3192 H         1 UNK         0.0000 
     42 H42         3.9558   52.4975   21.1962 H         1 UNK         0.0000 
     43 H43         2.2695   52.6655   20.7903 H         1 UNK         0.0000 
     44 H44         4.8052   54.1245   20.7007 H         1 UNK         0.0000 
     45 H45         7.2347   54.1862   19.0383 H         1 UNK         0.0000 
     46 H46         9.3916   55.6184   19.0217 H         1 UNK         0.0000 
     47 H47        10.4918   57.6191   18.1105 H         1 UNK         0.0000 
     48 H48         9.1320   59.4710   17.1661 H         1 UNK         0.0000 
     49 H49         6.6607   59.2975   17.1361 H         1 UNK         0.0000 
     50 H50         5.1163   52.7772   18.6785 H         1 UNK         0.0000 
     51 H51         2.9544   52.6207   17.5344 H         1 UNK         0.0000 
     52 H52         1.8653   54.6591   16.6341 H         1 UNK         0.0000 
     53 H53         2.9803   56.8632   16.8715 H         1 UNK         0.0000 
     54 H54         5.6037   55.6956   26.9389 H         1 UNK         0.0000 
     55 H55         6.6252   54.2774   26.8418 H         1 UNK         0.0000 
@<TRIPOS>BOND
     1    1    2 1    
     2    1   33 1    
     3    1   34 1    
     4    1   35 1    
     5    2    3 1    
     6    2   36 1    
     7    2   37 1    
     8    3    4 1    
     9    3   32 1    
    10    3    5 1    
    11    5    6 1    
    12    5   38 1    
    13    5   39 1    
    14    6    7 1    
    15    6   40 1    
    16    6   41 1    
    17    7   11 1    
    18    7    8 2    
    19    8    9 1    
    20    8   32 1    
    21    9   10 1    
    22   10   11 2    
    23   10   15 am   BACKBONE|DICT|INTERRES
    24   11   12 1    
    25   12   13 2    
    26   12   14 am   BACKBONE|DICT|INTERRES
    27   14   42 1    
    28   14   43 1    
    29   15   16 am   BACKBONE|DICT|INTERRES
    30   15   44 1    
    31   16   17 2    
    32   16   18 1    
    33   18   27 1    
    34   18   19 1    
    35   18   45 1    
    36   19   24 ar   
    37   19   20 ar   
    38   20   21 ar   
    39   20   46 1    
    40   21   22 ar   
    41   21   47 1    
    42   22   23 ar   
    43   22   48 1    
    44   23   24 ar   
    45   23   49 1    
    46   24   25 1    
    47   25   26 1    
    48   26   31 ar   
    49   26   27 ar   
    50   27   28 ar   
    51   28   29 ar   
    52   28   50 1    
    53   29   30 ar   
    54   29   51 1    
    55   30   31 ar   
    56   30   52 1    
    57   31   53 1    
    58   32   54 1    
    59   32   55 1    
@<TRIPOS>SUBSTRUCTURE
     1 UNK         1 GROUP             0       ****    0 ROOT    
