@<TRIPOS>MOLECULE
ZINC13637999_2545
54   57    1
SMALL
USER_CHARGES


@<TRIPOS>ATOM
      1 C1          6.1357   55.2303   25.1298 C.3       1 UNK         0.0000 
      2 C2          5.1955   54.4474   26.0641 C.3       1 UNK         0.0000 
      3 C3          5.6574   54.3232   27.5353 C.3       1 UNK         0.0000 
      4 H4          5.5622   55.2942   28.0263 H         1 UNK         0.0000 
      5 C5          7.1047   53.8432   27.6842 C.3       1 UNK         0.0000 
      6 N6          4.8038   53.3518   28.2448 N.pl3     1 UNK         0.0000 
      7 S7          3.3622   53.8946   29.0814 S.o2      1 UNK         0.0000 
      8 O8          3.4953   53.4584   30.4761 O.2       1 UNK         0.0000 
      9 O9          3.1058   55.2973   28.7440 O.2       1 UNK         0.0000 
     10 C10         2.0393   52.9587   28.3385 C.ar      1 UNK         0.0000 
     11 C11         1.2825   52.0916   29.1215 C.ar      1 UNK         0.0000 
     12 C12         0.3010   51.3090   28.5274 C.ar      1 UNK         0.0000 
     13 C13         0.0673   51.3818   27.1581 C.ar      1 UNK         0.0000 
     14 C14         0.7574   52.3285   26.3656 C.ar      1 UNK         0.0000 
     15 C15         1.7586   53.0950   26.9750 C.ar      1 UNK         0.0000 
     16 C16         0.3299   52.5194   24.9119 C.3       1 UNK         0.0000 
     17 H17        -0.4382   53.2938   24.9193 H         1 UNK         0.0000 
     18 C18         1.3142   52.8725   23.8172 C.2       1 UNK         0.0000 
     19 C19         0.8931   52.3257   22.6557 C.2       1 UNK         0.0000 
     20 C20        -0.3171   51.4221   22.8761 C.3       1 UNK         0.0000 
     21 C21        -0.2203   51.2051   24.3824 C.3       1 UNK         0.0000 
     22 H22         0.5512   50.4345   24.4997 H         1 UNK         0.0000 
     23 C23        -1.4124   50.6979   25.2400 C.3       1 UNK         0.0000 
     24 H24        -1.6860   49.7016   24.8884 H         1 UNK         0.0000 
     25 N25        -0.9136   50.5219   26.6136 N.pl3     1 UNK         0.0000 
     26 C26        -2.6839   51.5526   25.1273 C.ar      1 UNK         0.0000 
     27 C27        -2.9025   52.6505   25.9701 C.ar      1 UNK         0.0000 
     28 C28        -4.0607   53.4119   25.8516 C.ar      1 UNK         0.0000 
     29 C29        -5.0159   53.0700   24.9024 C.ar      1 UNK         0.0000 
     30 C30        -4.8267   51.9605   24.0817 C.ar      1 UNK         0.0000 
     31 C31        -3.6586   51.2098   24.1855 C.ar      1 UNK         0.0000 
     32 O32        -6.1369   53.8438   24.7725 O.3       1 UNK         0.0000 
     33 H33         5.7102   55.2986   24.1272 H         1 UNK         0.0000 
     34 H34         7.1044   54.7409   25.0258 H         1 UNK         0.0000 
     35 H35         6.3057   56.2458   25.4898 H         1 UNK         0.0000 
     36 H36         4.2168   54.9253   26.0429 H         1 UNK         0.0000 
     37 H37         5.0480   53.4513   25.6452 H         1 UNK         0.0000 
     38 H38         7.8074   54.5687   27.2818 H         1 UNK         0.0000 
     39 H39         7.3708   53.7053   28.7335 H         1 UNK         0.0000 
     40 H40         7.2701   52.8965   27.1702 H         1 UNK         0.0000 
     41 H41         5.3498   52.7276   28.8423 H         1 UNK         0.0000 
     42 H42         1.4587   52.0017   30.1835 H         1 UNK         0.0000 
     43 H43        -0.2751   50.6313   29.1366 H         1 UNK         0.0000 
     44 H44         2.3081   53.8131   26.3874 H         1 UNK         0.0000 
     45 H45         2.1327   53.5645   23.9495 H         1 UNK         0.0000 
     46 H46         1.3409   52.4666   21.6832 H         1 UNK         0.0000 
     47 H47        -0.2290   50.4748   22.3427 H         1 UNK         0.0000 
     48 H48        -1.2554   51.8870   22.5722 H         1 UNK         0.0000 
     49 H49        -1.3149   49.7652   27.1674 H         1 UNK         0.0000 
     50 H50        -2.1684   52.9260   26.7122 H         1 UNK         0.0000 
     51 H51        -4.2114   54.2717   26.4871 H         1 UNK         0.0000 
     52 H52        -5.5739   51.6863   23.3515 H         1 UNK         0.0000 
     53 H53        -3.5134   50.3573   23.5370 H         1 UNK         0.0000 
     54 H54        -6.6453   53.6249   23.9850 H         1 UNK         0.0000 
@<TRIPOS>BOND
     1    1    2 1    
     2    1   33 1    
     3    1   34 1    
     4    1   35 1    
     5    2    3 1    
     6    2   36 1    
     7    2   37 1    
     8    3    4 1    
     9    3    5 1    
    10    3    6 1    
    11    5   38 1    
    12    5   39 1    
    13    5   40 1    
    14    6    7 1    
    15    6   41 1    
    16    7    8 2    
    17    7    9 2    
    18    7   10 1    
    19   10   15 ar   
    20   10   11 ar   
    21   11   12 ar   
    22   11   42 1    
    23   12   13 ar   
    24   12   43 1    
    25   13   25 1    
    26   13   14 ar   
    27   14   15 ar   
    28   14   16 1    
    29   15   44 1    
    30   16   17 1    
    31   16   21 1    
    32   16   18 1    
    33   18   19 2    
    34   18   45 1    
    35   19   20 1    
    36   19   46 1    
    37   20   21 1    
    38   20   47 1    
    39   20   48 1    
    40   21   22 1    
    41   21   23 1    
    42   23   24 1    
    43   23   25 1    
    44   23   26 1    
    45   25   49 1    
    46   26   31 ar   
    47   26   27 ar   
    48   27   28 ar   
    49   27   50 1    
    50   28   29 ar   
    51   28   51 1    
    52   29   30 ar   
    53   29   32 1    
    54   30   31 ar   
    55   30   52 1    
    56   31   53 1    
    57   32   54 1    
@<TRIPOS>SUBSTRUCTURE
     1 UNK         1 GROUP             0       ****    0 ROOT    
