@<TRIPOS>MOLECULE
ZINC16572736_3416
55   57    1
SMALL
USER_CHARGES


@<TRIPOS>ATOM
      1 C1          5.3412   56.3993   17.9695 C.3       1 UNK         0.0000 
      2 C2          4.2283   55.6864   17.1821 C.3       1 UNK         0.0000 
      3 C3          4.2140   54.1343   17.2252 C.3       1 UNK         0.0000 
      4 H4          3.4605   53.8730   16.4795 H         1 UNK         0.0000 
      5 C5          5.5078   53.5001   16.6622 C.3       1 UNK         0.0000 
      6 C6          3.6430   53.5274   18.5543 C.3       1 UNK         0.0000 
      7 H7          2.7041   54.0474   18.7407 H         1 UNK         0.0000 
      8 C8          4.5611   53.7381   19.7854 C.2       1 UNK         0.0000 
      9 O9          5.7861   53.6966   19.6684 O.2       1 UNK         0.0000 
     10 N10         3.9045   53.9358   20.9479 N.am      1 UNK         0.0000 
     11 C11         4.4736   54.0514   22.2060 C.2       1 UNK         0.0000 
     12 N12         5.7502   54.1086   22.5166 N.2       1 UNK         0.0000 
     13 N13         5.9595   54.1833   23.8867 N.2       1 UNK         0.0000 
     14 C14         4.8424   54.1801   24.5815 C.2       1 UNK         0.0000 
     15 S15         3.4121   54.0966   23.5780 S.3       1 UNK         0.0000 
     16 C16         4.7776   54.2282   26.0793 C.ar      1 UNK         0.0000 
     17 C17         5.9500   54.0963   26.8378 C.ar      1 UNK         0.0000 
     18 C18         5.9082   54.1555   28.2296 C.ar      1 UNK         0.0000 
     19 C19         4.6965   54.3658   28.8829 C.ar      1 UNK         0.0000 
     20 C20         3.5216   54.4930   28.1460 C.ar      1 UNK         0.0000 
     21 C21         3.5615   54.4099   26.7542 C.ar      1 UNK         0.0000 
     22 Br22        1.8680   54.8016   29.0374 Br        1 UNK         0.0000 
     23 N23         3.3418   52.0970   18.4119 N.am      1 UNK         0.0000 
     24 C24         2.3070   51.4651   18.9857 C.2       1 UNK         0.0000 
     25 O25         1.4821   52.0273   19.7085 O.2       1 UNK         0.0000 
     26 N26         2.3043   50.1628   18.6435 N.am      1 UNK         0.0000 
     27 C27         1.4312   49.1336   19.0411 C.ar      1 UNK         0.0000 
     28 C28         1.5676   47.9236   18.3579 C.ar      1 UNK         0.0000 
     29 C29         0.7500   46.8416   18.6731 C.ar      1 UNK         0.0000 
     30 C30        -0.2068   46.9633   19.6814 C.ar      1 UNK         0.0000 
     31 C31        -0.3448   48.1664   20.3735 C.ar      1 UNK         0.0000 
     32 C32         0.4737   49.2487   20.0612 C.ar      1 UNK         0.0000 
     33 C33        -1.1019   45.7898   20.0338 C.3       1 UNK         0.0000 
     34 H34         5.4645   57.4224   17.6130 H         1 UNK         0.0000 
     35 H35         5.1050   56.4572   19.0320 H         1 UNK         0.0000 
     36 H36         6.3061   55.9039   17.8671 H         1 UNK         0.0000 
     37 H37         4.2885   56.0072   16.1411 H         1 UNK         0.0000 
     38 H38         3.2661   56.0574   17.5384 H         1 UNK         0.0000 
     39 H39         6.3883   53.7068   17.2670 H         1 UNK         0.0000 
     40 H40         5.4150   52.4172   16.5841 H         1 UNK         0.0000 
     41 H41         5.7154   53.8766   15.6607 H         1 UNK         0.0000 
     42 H42         2.8931   53.9483   20.8991 H         1 UNK         0.0000 
     43 H43         6.9022   53.9404   26.3521 H         1 UNK         0.0000 
     44 H44         6.8191   54.0612   28.8034 H         1 UNK         0.0000 
     45 H45         4.6725   54.4362   29.9598 H         1 UNK         0.0000 
     46 H46         2.6360   54.4964   26.2070 H         1 UNK         0.0000 
     47 H47         4.1165   51.5211   18.0825 H         1 UNK         0.0000 
     48 H48         3.0159   49.8761   17.9768 H         1 UNK         0.0000 
     49 H49         2.3068   47.8209   17.5749 H         1 UNK         0.0000 
     50 H50         0.8657   45.9142   18.1317 H         1 UNK         0.0000 
     51 H51        -1.0797   48.2642   21.1590 H         1 UNK         0.0000 
     52 H52         0.3490   50.1577   20.6271 H         1 UNK         0.0000 
     53 H53        -2.1485   46.0942   19.9934 H         1 UNK         0.0000 
     54 H54        -0.8967   45.4517   21.0502 H         1 UNK         0.0000 
     55 H55        -0.9698   44.9509   19.3498 H         1 UNK         0.0000 
@<TRIPOS>BOND
     1    1    2 1    
     2    1   34 1    
     3    1   35 1    
     4    1   36 1    
     5    2    3 1    
     6    2   37 1    
     7    2   38 1    
     8    3    4 1    
     9    3    5 1    
    10    3    6 1    
    11    5   39 1    
    12    5   40 1    
    13    5   41 1    
    14    6    7 1    
    15    6    8 1    
    16    6   23 1    
    17    8    9 2    
    18    8   10 am   BACKBONE|DICT|INTERRES
    19   10   11 am   BACKBONE|DICT|INTERRES
    20   10   42 1    
    21   11   15 1    
    22   11   12 2    
    23   12   13 1    
    24   13   14 2    
    25   14   15 1    
    26   14   16 1    
    27   16   21 ar   
    28   16   17 ar   
    29   17   18 ar   
    30   17   43 1    
    31   18   19 ar   
    32   18   44 1    
    33   19   20 ar   
    34   19   45 1    
    35   20   21 ar   
    36   20   22 1    
    37   21   46 1    
    38   23   24 am   BACKBONE|DICT|INTERRES
    39   23   47 1    
    40   24   25 2    
    41   24   26 am   BACKBONE|DICT|INTERRES
    42   26   27 1    
    43   26   48 1    
    44   27   32 ar   
    45   27   28 ar   
    46   28   29 ar   
    47   28   49 1    
    48   29   30 ar   
    49   29   50 1    
    50   30   31 ar   
    51   30   33 1    
    52   31   32 ar   
    53   31   51 1    
    54   32   52 1    
    55   33   53 1    
    56   33   54 1    
    57   33   55 1    
@<TRIPOS>SUBSTRUCTURE
     1 UNK         1 GROUP             0       ****    0 ROOT    
