@<TRIPOS>MOLECULE
ZINC06108909_5837
52   55    1
SMALL
USER_CHARGES


@<TRIPOS>ATOM
      1 C1          1.6992   56.1562   29.3052 C.3       1 UNK         0.0000 
      2 C2          0.8089   54.9061   29.4106 C.3       1 UNK         0.0000 
      3 C3          1.5480   53.6089   29.7893 C.3       1 UNK         0.0000 
      4 H4          1.9864   53.7914   30.7694 H         1 UNK         0.0000 
      5 C5          0.5829   52.4197   30.0286 C.3       1 UNK         0.0000 
      6 C6          0.1090   51.7107   28.7522 C.3       1 UNK         0.0000 
      7 C7          1.3052   51.3460   27.8674 C.3       1 UNK         0.0000 
      8 C8          2.1589   52.5933   27.5564 C.3       1 UNK         0.0000 
      9 N9          2.6121   53.1844   28.8355 N.am      1 UNK         0.0000 
     10 C10         3.9033   53.5550   29.0788 C.2       1 UNK         0.0000 
     11 O11         4.2046   54.2024   30.0817 O.2       1 UNK         0.0000 
     12 C12         5.0678   53.1359   28.1660 C.3       1 UNK         0.0000 
     13 S13         5.9192   54.5018   27.3170 S.3       1 UNK         0.0000 
     14 C14         5.4263   54.5008   25.6213 C.ar      1 UNK         0.0000 
     15 N15         4.2037   53.9987   25.3258 N.ar      1 UNK         0.0000 
     16 C16         3.8921   53.8384   24.0161 C.ar      1 UNK         0.0000 
     17 C17         4.8056   54.1809   22.9909 C.ar      1 UNK         0.0000 
     18 C18         4.7717   54.0593   21.5614 C.2       1 UNK         0.0000 
     19 C19         5.9047   54.6188   20.9772 C.2       1 UNK         0.0000 
     20 S20         7.0356   55.2968   22.1225 S.3       1 UNK         0.0000 
     21 C21         6.0214   54.7740   23.4509 C.ar      1 UNK         0.0000 
     22 N22         6.3508   54.9504   24.7356 N.ar      1 UNK         0.0000 
     23 C23         6.1769   54.6635   19.4809 C.3       1 UNK         0.0000 
     24 C24         5.3505   53.5610   18.7909 C.3       1 UNK         0.0000 
     25 C25         3.8791   53.6216   19.2279 C.3       1 UNK         0.0000 
     26 C26         3.6911   53.3575   20.7406 C.3       1 UNK         0.0000 
     27 N27         2.6303   53.3075   23.7469 N.pl3     1 UNK         0.0000 
     28 H28         1.1044   57.0434   29.0915 H         1 UNK         0.0000 
     29 H29         2.4307   56.0576   28.5034 H         1 UNK         0.0000 
     30 H30         2.2411   56.3405   30.2327 H         1 UNK         0.0000 
     31 H31         0.0399   55.0900   30.1608 H         1 UNK         0.0000 
     32 H32         0.3016   54.7641   28.4572 H         1 UNK         0.0000 
     33 H33         1.1151   51.6970   30.6448 H         1 UNK         0.0000 
     34 H34        -0.2708   52.7263   30.6351 H         1 UNK         0.0000 
     35 H35        -0.4696   50.8225   29.0031 H         1 UNK         0.0000 
     36 H36        -0.5684   52.3644   28.2017 H         1 UNK         0.0000 
     37 H37         1.9051   50.5559   28.3268 H         1 UNK         0.0000 
     38 H38         0.9388   50.9191   26.9334 H         1 UNK         0.0000 
     39 H39         2.9492   52.3332   26.8642 H         1 UNK         0.0000 
     40 H40         1.5365   53.3366   27.0572 H         1 UNK         0.0000 
     41 H41         5.8086   52.6808   28.8182 H         1 UNK         0.0000 
     42 H42         4.8299   52.3589   27.4564 H         1 UNK         0.0000 
     43 H43         5.8985   55.6399   19.0820 H         1 UNK         0.0000 
     44 H44         7.2381   54.5337   19.2643 H         1 UNK         0.0000 
     45 H45         5.4245   53.6633   17.7079 H         1 UNK         0.0000 
     46 H46         5.7628   52.5776   19.0264 H         1 UNK         0.0000 
     47 H47         3.4817   54.6059   18.9755 H         1 UNK         0.0000 
     48 H48         3.2889   52.9046   18.6548 H         1 UNK         0.0000 
     49 H49         3.7236   52.2839   20.9316 H         1 UNK         0.0000 
     50 H50         2.7044   53.6965   21.0387 H         1 UNK         0.0000 
     51 H51         2.3430   53.1656   22.7883 H         1 UNK         0.0000 
     52 H52         2.0187   53.0758   24.5149 H         1 UNK         0.0000 
@<TRIPOS>BOND
     1    1    2 1    
     2    1   28 1    
     3    1   29 1    
     4    1   30 1    
     5    2    3 1    
     6    2   31 1    
     7    2   32 1    
     8    3    4 1    
     9    3    9 1    
    10    3    5 1    
    11    5    6 1    
    12    5   33 1    
    13    5   34 1    
    14    6    7 1    
    15    6   35 1    
    16    6   36 1    
    17    7    8 1    
    18    7   37 1    
    19    7   38 1    
    20    8    9 1    
    21    8   39 1    
    22    8   40 1    
    23    9   10 am   BACKBONE|DICT|INTERRES
    24   10   11 2    
    25   10   12 1    
    26   12   13 1    
    27   12   41 1    
    28   12   42 1    
    29   13   14 1    
    30   14   22 ar   
    31   14   15 ar   
    32   15   16 ar   
    33   16   17 ar   
    34   16   27 1    
    35   17   21 ar   
    36   17   18 1    
    37   18   26 1    
    38   18   19 2    
    39   19   20 1    
    40   19   23 1    
    41   20   21 1    
    42   21   22 ar   
    43   23   24 1    
    44   23   43 1    
    45   23   44 1    
    46   24   25 1    
    47   24   45 1    
    48   24   46 1    
    49   25   26 1    
    50   25   47 1    
    51   25   48 1    
    52   26   49 1    
    53   26   50 1    
    54   27   51 1    
    55   27   52 1    
@<TRIPOS>SUBSTRUCTURE
     1 UNK         1 GROUP             0       ****    0 ROOT    
