@<TRIPOS>MOLECULE
ZINC13191173_5932
48   50    1
SMALL
USER_CHARGES


@<TRIPOS>ATOM
      1 C1          3.6827   51.8488   31.5523 C.3       1 UNK         0.0000 
      2 O2          3.6141   52.0984   30.1554 O.3       1 UNK         0.0000 
      3 C3          2.4444   52.3604   29.5342 C.2       1 UNK         0.0000 
      4 O4          1.3317   52.1447   30.0225 O.2       1 UNK         0.0000 
      5 C5          2.6492   52.8952   28.1736 C.2       1 UNK         0.0000 
      6 C6          3.7529   53.7091   27.7559 C.2       1 UNK         0.0000 
      7 C7          3.7089   54.0662   26.3988 C.2       1 UNK         0.0000 
      8 S8          2.3044   53.4208   25.6394 S.3       1 UNK         0.0000 
      9 C9          1.7521   52.6835   27.1118 C.2       1 UNK         0.0000 
     10 N10         0.5955   51.8958   27.1561 N.am      1 UNK         0.0000 
     11 C11        -0.3404   51.7238   26.1928 C.2       1 UNK         0.0000 
     12 O12        -0.3977   52.3736   25.1463 O.2       1 UNK         0.0000 
     13 C13        -1.3835   50.6348   26.4827 C.3       1 UNK         0.0000 
     14 O14        -2.3541   50.5772   25.4268 O.3       1 UNK         0.0000 
     15 C15        -2.3180   49.4735   24.6012 C.ar      1 UNK         0.0000 
     16 C16        -2.4061   48.1801   25.1242 C.ar      1 UNK         0.0000 
     17 C17        -2.3853   47.0715   24.2807 C.ar      1 UNK         0.0000 
     18 C18        -2.2830   47.2236   22.8891 C.ar      1 UNK         0.0000 
     19 C19        -2.1854   48.5270   22.3738 C.ar      1 UNK         0.0000 
     20 C20        -2.2046   49.6411   23.2158 C.ar      1 UNK         0.0000 
     21 Br21       -2.0962   51.3835   22.4475 Br        1 UNK         0.0000 
     22 C22        -2.2881   46.0296   21.9749 C.2       1 UNK         0.0000 
     23 O23        -2.4952   44.8972   22.4743 O.co2     1 UNK         0.0000 
     24 C24         4.7181   54.8988   25.6298 C.3       1 UNK         0.0000 
     25 C25         6.1525   54.3369   25.6563 C.3       1 UNK         0.0000 
     26 C26         6.8903   54.4614   27.0056 C.3       1 UNK         0.0000 
     27 C27         6.2850   53.7126   28.2047 C.3       1 UNK         0.0000 
     28 C28         4.8964   54.2201   28.6241 C.3       1 UNK         0.0000 
     29 H29         4.5906   51.2968   31.7811 H         1 UNK         0.0000 
     30 H30         3.7542   52.7956   32.0826 H         1 UNK         0.0000 
     31 H31         2.8274   51.2969   31.9441 H         1 UNK         0.0000 
     32 H32         0.4319   51.4281   28.0374 H         1 UNK         0.0000 
     33 H33        -1.9055   50.8595   27.4135 H         1 UNK         0.0000 
     34 H34        -0.8464   49.6968   26.6241 H         1 UNK         0.0000 
     35 H35        -2.4968   48.0343   26.1916 H         1 UNK         0.0000 
     36 H36        -2.4587   46.0931   24.7278 H         1 UNK         0.0000 
     37 H37        -2.1026   48.6839   21.3069 H         1 UNK         0.0000 
     38 H38         4.4066   55.0065   24.5898 H         1 UNK         0.0000 
     39 H39         4.7472   55.9073   26.0356 H         1 UNK         0.0000 
     40 H40         6.1453   53.2968   25.3359 H         1 UNK         0.0000 
     41 H41         6.7426   54.8666   24.9070 H         1 UNK         0.0000 
     42 H42         7.9042   54.0971   26.8819 H         1 UNK         0.0000 
     43 H43         6.9929   55.5166   27.2630 H         1 UNK         0.0000 
     44 H44         6.2553   52.6387   28.0117 H         1 UNK         0.0000 
     45 H45         6.9662   53.8403   29.0475 H         1 UNK         0.0000 
     46 H46         4.9110   55.2970   28.5520 H         1 UNK         0.0000 
     47 H47         4.7481   54.0787   29.6885 H         1 UNK         0.0000 
     48 O48        -2.0826   46.2235   20.7547 O.co2     1 UNK         0.0000 
@<TRIPOS>BOND
     1    1    2 1    
     2    1   29 1    
     3    1   30 1    
     4    1   31 1    
     5    2    3 1    
     6    3    4 2    
     7    3    5 1    
     8    5    9 2    
     9    5    6 1    
    10    6   28 1    
    11    6    7 2    
    12    7    8 1    
    13    7   24 1    
    14    8    9 1    
    15    9   10 am   BACKBONE|DICT|INTERRES
    16   10   11 am   BACKBONE|DICT|INTERRES
    17   10   32 1    
    18   11   12 2    
    19   11   13 1    
    20   13   14 1    
    21   13   33 1    
    22   13   34 1    
    23   14   15 1    
    24   15   20 ar   
    25   15   16 ar   
    26   16   17 ar   
    27   16   35 1    
    28   17   18 ar   
    29   17   36 1    
    30   18   19 ar   
    31   18   22 1    
    32   19   20 ar   
    33   19   37 1    
    34   20   21 1    
    35   22   23 2    
    36   22   48 1    
    37   24   25 1    
    38   24   38 1    
    39   24   39 1    
    40   25   26 1    
    41   25   40 1    
    42   25   41 1    
    43   26   27 1    
    44   26   42 1    
    45   26   43 1    
    46   27   28 1    
    47   27   44 1    
    48   27   45 1    
    49   28   46 1    
    50   28   47 1    
@<TRIPOS>SUBSTRUCTURE
     1 UNK         1 GROUP             0       ****    0 ROOT    
