ZINC36799233_276
                    3D
 Schrodinger Suite 2024-2.
 52 55  0  0  1  0            999 V2000
    0.7069   52.3815   31.9271 C   0  0  0  0  0  0
    1.8042   52.3167   30.8855 C   0  0  0  0  0  0
    2.9835   52.1109   31.1779 O   0  0  0  0  0  0
    1.2734   52.4309   29.5840 N   0  3  0  0  0  0
    1.9114   52.8193   28.4796 C   0  0  0  0  0  0
    1.1644   52.8280   27.2889 C   0  0  0  0  0  0
    1.6962   53.2417   26.1115 C   0  0  0  0  0  0
    3.0764   53.6969   26.0118 C   0  0  0  0  0  0
    3.6910   54.1721   24.8997 C   0  0  0  0  0  0
    5.0918   54.5852   25.0355 C   0  0  0  0  0  0
    5.7188   54.5177   26.2312 C   0  0  0  0  0  0
    6.9929   54.8967   26.4812 O   0  0  0  0  0  0
    5.1121   54.0508   27.3512 O   0  0  0  0  0  0
    3.8204   53.6425   27.2674 C   0  0  0  0  0  0
    3.2607   53.2307   28.4245 C   0  0  0  0  0  0
    2.9160   54.4602   23.6216 C   0  0  0  0  0  0
    2.7791   53.0833   22.4499 S   0  0  0  0  0  0
    4.0225   53.5453   21.2822 C   0  0  0  0  0  0
    5.0210   54.3756   21.4871 N   0  0  0  0  0  0
    5.8703   54.4967   20.3968 N   0  0  0  0  0  0
    5.5047   53.7254   19.4012 C   0  0  0  0  0  0
    4.0195   52.8769   19.6817 S   0  0  0  0  0  0
    6.2192   53.4667   18.2609 N   0  0  0  0  0  0
    7.5760   53.9236   17.9867 C   0  0  0  0  0  0
    8.1634   53.1176   16.8140 C   0  0  0  0  0  0
    9.6435   53.5125   16.6241 C   0  0  0  0  0  0
    9.8016   55.0379   16.4074 C   0  0  0  0  0  0
    9.0677   55.8814   17.4787 C   0  0  0  0  0  0
    7.6015   55.4297   17.6534 C   0  0  0  0  0  0
    0.3035   53.3878   32.0353 H   0  0  0  0  0  0
    1.1014   52.0605   32.8820 H   0  0  0  0  0  0
   -0.0956   51.6965   31.6762 H   0  0  0  0  0  0
    0.2882   52.1973   29.5097 H   0  0  0  0  0  0
    0.1396   52.4813   27.3060 H   0  0  0  0  0  0
    1.0763   53.1966   25.2273 H   0  0  0  0  0  0
    5.6363   54.9480   24.1767 H   0  0  0  0  0  0
    3.8729   53.2418   29.3114 H   0  0  0  0  0  0
    1.9104   54.8077   23.8578 H   0  0  0  0  0  0
    3.3723   55.2967   23.1150 H   0  0  0  0  0  0
    5.9867   52.6245   17.7466 H   0  0  0  0  0  0
    8.1738   53.7414   18.8812 H   0  0  0  0  0  0
    8.0926   52.0450   17.0055 H   0  0  0  0  0  0
    7.6131   53.3167   15.8925 H   0  0  0  0  0  0
   10.2183   53.2066   17.5007 H   0  0  0  0  0  0
   10.0692   52.9699   15.7792 H   0  0  0  0  0  0
   10.8601   55.3028   16.3875 H   0  0  0  0  0  0
    9.4089   55.2986   15.4231 H   0  0  0  0  0  0
    9.5938   55.7943   18.4321 H   0  0  0  0  0  0
    9.1036   56.9375   17.2084 H   0  0  0  0  0  0
    7.0466   55.6285   16.7348 H   0  0  0  0  0  0
    7.1307   56.0173   18.4424 H   0  0  0  0  0  0
    7.1448   54.8060   27.4272 H   0  0  0  0  0  0
  1  2  1  0  0  0
  1 30  1  0  0  0
  1 31  1  0  0  0
  1 32  1  0  0  0
  2  3  2  0  0  0
  2  4  1  0  0  0
  4  5  2  0  0  0
  4 33  1  0  0  0
  5 15  1  0  0  0
  5  6  1  0  0  0
  6  7  2  0  0  0
  6 34  1  0  0  0
  7  8  1  0  0  0
  7 35  1  0  0  0
  8 14  1  0  0  0
  8  9  2  0  0  0
  9 10  1  0  0  0
  9 16  1  0  0  0
 10 11  2  0  0  0
 10 36  1  0  0  0
 11 12  1  0  0  0
 11 13  1  0  0  0
 12 52  1  0  0  0
 13 14  1  0  0  0
 14 15  2  0  0  0
 15 37  1  0  0  0
 16 17  1  0  0  0
 16 38  1  0  0  0
 16 39  1  0  0  0
 17 18  1  0  0  0
 18 22  1  0  0  0
 18 19  2  0  0  0
 19 20  1  0  0  0
 20 21  2  0  0  0
 21 22  1  0  0  0
 21 23  1  0  0  0
 23 24  1  0  0  0
 23 40  1  0  0  0
 24 29  1  0  0  0
 24 25  1  0  0  0
 24 41  1  0  0  0
 25 26  1  0  0  0
 25 42  1  0  0  0
 25 43  1  0  0  0
 26 27  1  0  0  0
 26 44  1  0  0  0
 26 45  1  0  0  0
 27 28  1  0  0  0
 27 46  1  0  0  0
 27 47  1  0  0  0
 28 29  1  0  0  0
 28 48  1  0  0  0
 28 49  1  0  0  0
 29 50  1  0  0  0
 29 51  1  0  0  0
M  CHG  1   4   1
M  END
> <i_i_glide_confnum>
4

> <i_i_glide_lignum>
277

> <i_i_glide_posenum>
241

> <i_i_glide_rotatable_bonds>
7

> <i_m_Source_File_Index>
1474

> <b_m_subgroup_collapsed>
0

> <r_i_docking_score>
-6.28768

> <r_i_glide_ecoul>
-7.38855

> <r_i_glide_eff_state_penalty>
0

> <r_i_glide_einternal>
2.88445

> <r_i_glide_emodel>
-71.9126

> <r_i_glide_energy>
-49.3165

> <r_i_glide_erotb>
0.640819

> <r_i_glide_esite>
-0.107265

> <r_i_glide_evdw>
-41.9279

> <r_i_glide_gscore>
-6.28768

> <r_i_glide_hbond>
-0.334701

> <r_i_glide_ligand_efficiency>
-0.216817

> <r_i_glide_ligand_efficiency_ln>
-1.43972

> <r_i_glide_ligand_efficiency_sa>
-0.666129

> <r_i_glide_lipo>
-2.31517

> <r_i_glide_metal>
0

> <r_i_glide_rewards>
-0.96668

> <s_i_glide_gridfile>
wee1_glide-grid

> <s_m_Source_File>
wee1_decoys_glide_SP.sdf

> <s_m_Source_Path>
/Users/zhangxujun/Desktop

> <s_m_entry_id>
1749

> <s_m_entry_name>
wee1_decoys_glide_SP.1474

> <s_m_subgroup_title>
wee1_decoys_glide_SP

> <s_m_subgroupid>
wee1_decoys_glide_SP


$$$$
