@<TRIPOS>MOLECULE
ZINC36019094_327
76   78    1
SMALL
USER_CHARGES


@<TRIPOS>ATOM
      1 C1          7.0943   53.8981   27.9991 C.3       1 UNK         0.0000 
      2 C2          5.9066   54.8544   28.2147 C.3       1 UNK         0.0000 
      3 O3          4.7474   54.4817   27.4687 O.3       1 UNK         0.0000 
      4 C4          4.0179   53.3973   27.7739 C.2       1 UNK         0.0000 
      5 O5          4.3363   52.6672   28.7151 O.2       1 UNK         0.0000 
      6 C6          2.8089   53.1208   26.9186 C.2       1 UNK         0.0000 
      7 C7          2.4943   53.6739   25.7023 C.2       1 UNK         0.0000 
      8 N8          1.3313   53.2972   25.0117 N.am      1 UNK         0.0000 
      9 C9          0.3598   52.4960   25.5749 C.2       1 UNK         0.0000 
     10 O10        -0.8241   52.4217   25.2367 O.2       1 UNK         0.0000 
     11 N11         0.7209   51.8075   26.6734 N.am      1 UNK         0.0000 
     12 C12         1.8148   52.1495   27.5932 C.3       1 UNK         0.0000 
     13 H13         2.3017   51.1864   27.7685 H         1 UNK         0.0000 
     14 C14         1.3176   52.6144   28.9648 C.ar      1 UNK         0.0000 
     15 C15         0.3801   53.6407   29.0983 C.ar      1 UNK         0.0000 
     16 C16         0.0427   54.0949   30.3706 C.ar      1 UNK         0.0000 
     17 C17         0.6208   53.5140   31.4966 C.ar      1 UNK         0.0000 
     18 C18         1.5406   52.4928   31.3667 C.ar      1 UNK         0.0000 
     19 C19         1.8951   52.0628   30.1037 C.ar      1 UNK         0.0000 
     20 Cl20        0.3043   54.0960   33.0819 Cl        1 UNK         0.0000 
     21 C21         0.9285   53.7352   23.6378 C.3       1 UNK         0.0000 
     22 C22         0.9176   52.6772   22.5278 C.2       1 UNK         0.0000 
     23 C23         1.3316   51.4007   22.6181 C.2       1 UNK         0.0000 
     24 C24         3.3342   54.7862   25.0336 C.3       1 UNK         0.0000 
     25 N25         4.5510   54.2789   24.2157 N.4       1 UNK         0.0000 
     26 C26         5.8555   55.0835   24.4748 C.3       1 UNK         0.0000 
     27 C27         7.0807   54.3702   23.9382 C.3       1 UNK         0.0000 
     28 C28         7.4130   54.7450   22.4813 C.3       1 UNK         0.0000 
     29 N29         6.3044   54.5597   21.5193 N.am      1 UNK         0.0000 
     30 C30         5.3082   53.5296   21.8501 C.3       1 UNK         0.0000 
     31 C31         4.1664   54.0282   22.7368 C.3       1 UNK         0.0000 
     32 C32         6.1601   55.3150   20.3944 C.2       1 UNK         0.0000 
     33 O33         5.1298   55.2973   19.7183 O.2       1 UNK         0.0000 
     34 N34         7.3073   55.8523   19.9174 N.am      1 UNK         0.0000 
     35 C35         7.5472   56.4992   18.6139 C.3       1 UNK         0.0000 
     36 C36         7.1547   55.5750   17.4331 C.3       1 UNK         0.0000 
     37 C37         9.0620   56.7744   18.4980 C.3       1 UNK         0.0000 
     38 C38         6.7806   57.8397   18.5083 C.3       1 UNK         0.0000 
     39 H39         7.9755   54.3025   28.4815 H         1 UNK         0.0000 
     40 H40         6.9115   52.9180   28.4375 H         1 UNK         0.0000 
     41 H41         7.3243   53.7568   26.9437 H         1 UNK         0.0000 
     42 H42         6.2092   55.8488   27.8899 H         1 UNK         0.0000 
     43 H43         5.6644   54.9373   29.2776 H         1 UNK         0.0000 
     44 H44         0.0246   51.1592   27.0157 H         1 UNK         0.0000 
     45 H45        -0.0626   54.1042   28.2275 H         1 UNK         0.0000 
     46 H46        -0.6581   54.8966   30.4824 H         1 UNK         0.0000 
     47 H47         1.9958   52.0537   32.2438 H         1 UNK         0.0000 
     48 H48         2.6414   51.2969   29.9992 H         1 UNK         0.0000 
     49 H49        -0.0740   54.1606   23.6837 H         1 UNK         0.0000 
     50 H50         1.5009   54.5639   23.2401 H         1 UNK         0.0000 
     51 H51         0.5422   53.0138   21.5705 H         1 UNK         0.0000 
     52 H52         1.2813   50.7439   21.7610 H         1 UNK         0.0000 
     53 H53         1.7243   50.9864   23.5361 H         1 UNK         0.0000 
     54 H54         2.7567   55.4454   24.3962 H         1 UNK         0.0000 
     55 H55         3.6979   55.5192   25.7446 H         1 UNK         0.0000 
     56 H56         5.8290   56.0965   24.0914 H         1 UNK         0.0000 
     57 H57         5.9479   55.1549   25.5496 H         1 UNK         0.0000 
     58 H58         7.9045   54.6132   24.5985 H         1 UNK         0.0000 
     59 H59         6.9716   53.2957   24.0420 H         1 UNK         0.0000 
     60 H60         8.2460   54.1034   22.1904 H         1 UNK         0.0000 
     61 H61         7.7492   55.7849   22.4588 H         1 UNK         0.0000 
     62 H62         5.7682   52.6206   22.2375 H         1 UNK         0.0000 
     63 H63         4.8564   53.1864   20.9158 H         1 UNK         0.0000 
     64 H64         3.4224   53.2397   22.7983 H         1 UNK         0.0000 
     65 H65         3.6883   54.9231   22.3358 H         1 UNK         0.0000 
     66 H66         8.1429   55.6707   20.4528 H         1 UNK         0.0000 
     67 H67         6.0791   55.4018   17.3824 H         1 UNK         0.0000 
     68 H68         7.4475   56.0059   16.4751 H         1 UNK         0.0000 
     69 H69         7.6324   54.5959   17.5089 H         1 UNK         0.0000 
     70 H70         9.4326   57.4128   19.2949 H         1 UNK         0.0000 
     71 H71         9.6425   55.8524   18.5415 H         1 UNK         0.0000 
     72 H72         9.3111   57.2667   17.5570 H         1 UNK         0.0000 
     73 H73         7.0775   58.5419   19.2865 H         1 UNK         0.0000 
     74 H74         6.9614   58.3335   17.5516 H         1 UNK         0.0000 
     75 H75         5.7003   57.6988   18.5851 H         1 UNK         0.0000 
     76 H76         4.7674   53.3734   24.6153 H         1 UNK         0.0000 
@<TRIPOS>BOND
     1    1    2 1    
     2    1   39 1    
     3    1   40 1    
     4    1   41 1    
     5    2    3 1    
     6    2   42 1    
     7    2   43 1    
     8    3    4 1    
     9    4    5 2    
    10    4    6 1    
    11    6   12 1    
    12    6    7 2    
    13    7    8 1    
    14    7   24 1    
    15    8    9 am   BACKBONE|DICT|INTERRES
    16    8   21 1    
    17    9   10 2    
    18    9   11 am   BACKBONE|DICT|INTERRES
    19   11   12 1    
    20   11   44 1    
    21   12   13 1    
    22   12   14 1    
    23   14   19 ar   
    24   14   15 ar   
    25   15   16 ar   
    26   15   45 1    
    27   16   17 ar   
    28   16   46 1    
    29   17   18 ar   
    30   17   20 1    
    31   18   19 ar   
    32   18   47 1    
    33   19   48 1    
    34   21   22 1    
    35   21   49 1    
    36   21   50 1    
    37   22   23 2    
    38   22   51 1    
    39   23   52 1    
    40   23   53 1    
    41   24   25 1    
    42   24   54 1    
    43   24   55 1    
    44   25   31 1    
    45   25   26 1    
    46   25   76 1    
    47   26   27 1    
    48   26   56 1    
    49   26   57 1    
    50   27   28 1    
    51   27   58 1    
    52   27   59 1    
    53   28   29 1    
    54   28   60 1    
    55   28   61 1    
    56   29   30 1    
    57   29   32 am   BACKBONE|DICT|INTERRES
    58   30   31 1    
    59   30   62 1    
    60   30   63 1    
    61   31   64 1    
    62   31   65 1    
    63   32   33 2    
    64   32   34 am   BACKBONE|DICT|INTERRES
    65   34   35 1    
    66   34   66 1    
    67   35   36 1    
    68   35   37 1    
    69   35   38 1    
    70   36   67 1    
    71   36   68 1    
    72   36   69 1    
    73   37   70 1    
    74   37   71 1    
    75   37   72 1    
    76   38   73 1    
    77   38   74 1    
    78   38   75 1    
@<TRIPOS>SUBSTRUCTURE
     1 UNK         1 GROUP             0       ****    0 ROOT    
