ZINC63323716_3088
                    3D
 Schrodinger Suite 2024-2.
 63 67  0  0  1  0            999 V2000
   -1.7541   43.5938   16.8622 C   0  0  0  0  0  0
   -0.4797   44.0356   16.4078 O   0  0  0  0  0  0
    0.0256   45.2319   16.8787 C   0  0  0  0  0  0
    1.2416   45.6475   16.3381 C   0  0  0  0  0  0
    1.8290   46.8398   16.7507 C   0  0  0  0  0  0
    1.2055   47.6312   17.7165 C   0  0  0  0  0  0
   -0.0147   47.2191   18.2700 C   0  0  0  0  0  0
   -0.6011   46.0282   17.8493 C   0  0  0  0  0  0
    1.9044   48.7907   18.0912 N   0  0  0  0  0  0
    1.5670   49.7768   18.9512 C   0  0  0  0  0  0
    0.4627   49.9076   19.4806 O   0  0  0  0  0  0
    2.7046   50.7640   19.2481 C   0  0  0  0  0  0
    2.2738   52.3396   20.0684 S   0  0  0  0  0  0
    2.0785   51.8695   21.8077 C   0  0  0  0  0  0
    1.9248   50.7084   22.2717 N   0  0  0  0  0  0
    1.4863   50.8692   23.5910 N   0  0  0  0  0  0
    1.7771   52.2177   24.0606 C   0  0  1  0  0  0
    2.7045   52.1711   24.6247 H   0  0  0  0  0  0
    1.9932   52.8549   22.7693 N   0  0  0  0  0  0
    2.6270   54.1775   22.7214 C   0  0  0  0  0  0
    4.0123   54.2299   23.3559 C   0  0  0  0  0  0
    4.1446   54.4943   24.7238 C   0  0  0  0  0  0
    5.4088   54.6024   25.2951 C   0  0  0  0  0  0
    6.5369   54.4580   24.4930 C   0  0  0  0  0  0
    6.4134   54.1898   23.1325 C   0  0  0  0  0  0
    5.1493   54.0601   22.5630 C   0  0  0  0  0  0
    0.7155   52.9511   24.9056 C   0  0  0  0  0  0
    0.3144   52.3109   26.2230 C   0  0  0  0  0  0
    0.4680   52.7227   27.5009 C   0  0  0  0  0  0
    1.1513   53.8926   28.0797 C   0  0  0  0  0  0
    1.1285   54.1241   29.4089 C   0  0  0  0  0  0
    0.4108   53.1802   30.2561 C   0  0  0  0  0  0
   -0.2253   52.0970   29.7403 C   0  0  0  0  0  0
   -0.2124   51.8584   28.3606 C   0  0  0  0  0  0
   -0.7783   50.8967   27.6817 N   0  3  0  0  0  0
   -0.5010   51.0381   26.2505 C   0  0  0  0  0  0
   -2.0068   42.6568   16.3661 H   0  0  0  0  0  0
   -2.5373   44.3150   16.6224 H   0  0  0  0  0  0
   -1.7539   43.4083   17.9375 H   0  0  0  0  0  0
    1.7322   45.0401   15.5922 H   0  0  0  0  0  0
    2.7747   47.1431   16.3207 H   0  0  0  0  0  0
   -0.5219   47.7948   19.0276 H   0  0  0  0  0  0
   -1.5408   45.7388   18.2923 H   0  0  0  0  0  0
    2.8099   48.8965   17.6252 H   0  0  0  0  0  0
    3.4728   50.2520   19.8273 H   0  0  0  0  0  0
    3.1463   51.0390   18.2912 H   0  0  0  0  0  0
    1.8629   50.0982   24.1269 H   0  0  0  0  0  0
    2.7044   54.5251   21.6914 H   0  0  0  0  0  0
    1.9776   54.8964   23.2196 H   0  0  0  0  0  0
    3.2730   54.6309   25.3443 H   0  0  0  0  0  0
    5.5134   54.8079   26.3504 H   0  0  0  0  0  0
    7.5197   54.5529   24.9261 H   0  0  0  0  0  0
    7.2996   54.0973   22.5229 H   0  0  0  0  0  0
    5.0537   53.8599   21.5052 H   0  0  0  0  0  0
    1.0859   53.9521   25.1219 H   0  0  0  0  0  0
   -0.1915   53.0859   24.3145 H   0  0  0  0  0  0
    1.6861   54.5945   27.4570 H   0  0  0  0  0  0
    1.6221   54.9870   29.8325 H   0  0  0  0  0  0
    0.3744   53.3438   31.3252 H   0  0  0  0  0  0
   -0.7519   51.4323   30.4146 H   0  0  0  0  0  0
   -1.4546   51.1034   25.7251 H   0  0  0  0  0  0
    0.0415   50.1482   25.9277 H   0  0  0  0  0  0
   -1.2959   50.1079   28.0816 H   0  0  0  0  0  0
  1  2  1  0  0  0
  1 37  1  0  0  0
  1 38  1  0  0  0
  1 39  1  0  0  0
  2  3  1  0  0  0
  3  8  2  0  0  0
  3  4  1  0  0  0
  4  5  2  0  0  0
  4 40  1  0  0  0
  5  6  1  0  0  0
  5 41  1  0  0  0
  6  7  2  0  0  0
  6  9  1  0  0  0
  7  8  1  0  0  0
  7 42  1  0  0  0
  8 43  1  0  0  0
  9 10  1  0  0  0
  9 44  1  0  0  0
 10 11  2  0  0  0
 10 12  1  0  0  0
 12 13  1  0  0  0
 12 45  1  0  0  0
 12 46  1  0  0  0
 13 14  1  0  0  0
 14 19  1  0  0  0
 14 15  2  0  0  0
 15 16  1  0  0  0
 16 17  1  0  0  0
 16 47  1  0  0  0
 17 18  1  0  0  0
 17 19  1  0  0  0
 17 27  1  0  0  0
 19 20  1  0  0  0
 20 21  1  0  0  0
 20 48  1  0  0  0
 20 49  1  0  0  0
 21 26  2  0  0  0
 21 22  1  0  0  0
 22 23  2  0  0  0
 22 50  1  0  0  0
 23 24  1  0  0  0
 23 51  1  0  0  0
 24 25  2  0  0  0
 24 52  1  0  0  0
 25 26  1  0  0  0
 25 53  1  0  0  0
 26 54  1  0  0  0
 27 28  1  0  0  0
 27 55  1  0  0  0
 27 56  1  0  0  0
 28 36  1  0  0  0
 28 29  2  0  0  0
 29 34  1  0  0  0
 29 30  1  0  0  0
 30 31  2  0  0  0
 30 57  1  0  0  0
 31 32  1  0  0  0
 31 58  1  0  0  0
 32 33  2  0  0  0
 32 59  1  0  0  0
 33 34  1  0  0  0
 33 60  1  0  0  0
 34 35  2  0  0  0
 35 36  1  0  0  0
 35 63  1  0  0  0
 36 61  1  0  0  0
 36 62  1  0  0  0
M  CHG  1  35   1
M  END
> <i_i_glide_confnum>
26

> <i_i_glide_lignum>
3089

> <i_i_glide_posenum>
69

> <i_i_glide_rotatable_bonds>
10

> <i_m_Source_File_Index>
5445

> <b_m_subgroup_collapsed>
0

> <r_i_docking_score>
-5.97697

> <r_i_glide_ecoul>
-7.18871

> <r_i_glide_eff_state_penalty>
0

> <r_i_glide_einternal>
12.2609

> <r_i_glide_emodel>
-64.5777

> <r_i_glide_energy>
-48.7763

> <r_i_glide_erotb>
0.772465

> <r_i_glide_esite>
-0.24939

> <r_i_glide_evdw>
-41.5876

> <r_i_glide_gscore>
-5.97697

> <r_i_glide_hbond>
-0.36

> <r_i_glide_ligand_efficiency>
-0.17077

> <r_i_glide_ligand_efficiency_ln>
-1.31208

> <r_i_glide_ligand_efficiency_sa>
-0.558602

> <r_i_glide_lipo>
-2.3952

> <r_i_glide_metal>
0

> <r_i_glide_rewards>
-0.587155

> <s_i_glide_gridfile>
wee1_glide-grid

> <s_m_Source_File>
wee1_decoys_glide_SP.sdf

> <s_m_Source_Path>
/Users/zhangxujun/Desktop

> <s_m_entry_id>
5720

> <s_m_entry_name>
wee1_decoys_glide_SP.5445

> <s_m_subgroup_title>
wee1_decoys_glide_SP

> <s_m_subgroupid>
wee1_decoys_glide_SP


$$$$
