ZINC44785804_1692
                    3D
 Schrodinger Suite 2024-2.
 48 49  0  0  1  0            999 V2000
    6.4385   55.4355   27.2223 C   0  0  0  0  0  0
    5.5838   54.2373   27.5318 C   0  0  0  0  0  0
    5.9847   53.2967   26.4232 C   0  0  0  0  0  0
    5.5745   53.7383   25.1281 O   0  0  0  0  0  0
    4.1722   53.8789   24.9794 C   0  0  0  0  0  0
    3.5305   54.7418   26.0730 C   0  0  0  0  0  0
    4.0991   54.3826   27.3887 N   0  0  0  0  0  0
    3.2681   54.4405   28.4678 C   0  0  0  0  0  0
    3.4423   55.2967   29.3297 O   0  0  0  0  0  0
    2.1058   53.3879   28.6626 C   0  0  0  0  0  0
    0.7682   54.1220   28.3122 C   0  0  0  0  0  0
   -0.4955   53.2936   27.9498 C   0  0  0  0  0  0
   -0.4515   52.3944   26.6950 C   0  0  0  0  0  0
    0.1452   51.0017   26.8999 C   0  0  0  0  0  0
    1.3395   50.9801   27.8525 C   0  0  0  0  0  0
    2.3073   52.1659   27.7135 C   0  0  0  0  0  0
    2.1592   52.8449   30.1497 C   0  0  0  0  0  0
    3.2149   52.1952   30.4819 N   0  0  0  0  0  0
    3.2548   51.7150   31.8060 O   0  0  0  0  0  0
    1.0246   53.0792   30.9122 N   0  0  0  0  0  0
    6.0497   53.6967   28.8817 C   0  0  0  0  0  0
    7.5043   55.2021   27.2197 H   0  0  0  0  0  0
    6.1996   55.9195   26.2741 H   0  0  0  0  0  0
    6.3044   56.1298   28.0383 H   0  0  0  0  0  0
    5.4929   52.3708   26.6730 H   0  0  0  0  0  0
    7.0550   53.0794   26.4089 H   0  0  0  0  0  0
    3.7091   52.8967   24.9994 H   0  0  0  0  0  0
    3.9542   54.2992   23.9975 H   0  0  0  0  0  0
    2.4706   54.4967   26.0238 H   0  0  0  0  0  0
    3.7609   55.7882   25.8920 H   0  0  0  0  0  0
    0.9540   54.7797   27.4676 H   0  0  0  0  0  0
    0.5115   54.8309   29.1017 H   0  0  0  0  0  0
   -1.2504   54.0305   27.6817 H   0  0  0  0  0  0
   -0.8750   52.7387   28.8090 H   0  0  0  0  0  0
    0.0972   52.8967   25.8986 H   0  0  0  0  0  0
   -1.4634   52.2702   26.3054 H   0  0  0  0  0  0
    0.4387   50.5939   25.9314 H   0  0  0  0  0  0
   -0.6205   50.3245   27.2814 H   0  0  0  0  0  0
    1.9044   50.0682   27.6817 H   0  0  0  0  0  0
    0.9651   50.8967   28.8718 H   0  0  0  0  0  0
    3.3101   51.7800   27.8877 H   0  0  0  0  0  0
    2.3071   52.4652   26.6700 H   0  0  0  0  0  0
    2.4710   52.0967   32.2096 H   0  0  0  0  0  0
    0.8830   52.6849   31.8304 H   0  0  0  0  0  0
    0.2211   53.4915   30.4635 H   0  0  0  0  0  0
    7.1124   53.4496   28.8816 H   0  0  0  0  0  0
    5.9060   54.4854   29.6326 H   0  0  0  0  0  0
    5.5044   52.8025   29.1823 H   0  0  0  0  0  0
  1  2  1  0  0  0
  1 22  1  0  0  0
  1 23  1  0  0  0
  1 24  1  0  0  0
  2  7  1  0  0  0
  2  3  1  0  0  0
  2 21  1  0  0  0
  3  4  1  0  0  0
  3 25  1  0  0  0
  3 26  1  0  0  0
  4  5  1  0  0  0
  5  6  1  0  0  0
  5 27  1  0  0  0
  5 28  1  0  0  0
  6  7  1  0  0  0
  6 29  1  0  0  0
  6 30  1  0  0  0
  7  8  1  0  0  0
  8  9  2  0  0  0
  8 10  1  0  0  0
 10 16  1  0  0  0
 10 11  1  0  0  0
 10 17  1  0  0  0
 11 12  1  0  0  0
 11 31  1  0  0  0
 11 32  1  0  0  0
 12 13  1  0  0  0
 12 33  1  0  0  0
 12 34  1  0  0  0
 13 14  1  0  0  0
 13 35  1  0  0  0
 13 36  1  0  0  0
 14 15  1  0  0  0
 14 37  1  0  0  0
 14 38  1  0  0  0
 15 16  1  0  0  0
 15 39  1  0  0  0
 15 40  1  0  0  0
 16 41  1  0  0  0
 16 42  1  0  0  0
 17 18  2  0  0  0
 17 20  1  0  0  0
 18 19  1  0  0  0
 19 43  1  0  0  0
 20 44  1  0  0  0
 20 45  1  0  0  0
 21 46  1  0  0  0
 21 47  1  0  0  0
 21 48  1  0  0  0
M  END
> <i_i_glide_confnum>
275

> <i_i_glide_lignum>
1693

> <i_i_glide_posenum>
139

> <i_i_glide_rotatable_bonds>
4

> <i_m_Source_File_Index>
3351

> <b_m_subgroup_collapsed>
0

> <r_i_docking_score>
-0.232412

> <r_i_glide_ecoul>
-6.71703

> <r_i_glide_eff_state_penalty>
0

> <r_i_glide_einternal>
11.468

> <r_i_glide_emodel>
8.49481

> <r_i_glide_energy>
-8.05843

> <r_i_glide_erotb>
0.829229

> <r_i_glide_esite>
-0.035036

> <r_i_glide_evdw>
-1.3414

> <r_i_glide_gscore>
-0.232412

> <r_i_glide_hbond>
0

> <r_i_glide_ligand_efficiency>
-0.0110673

> <r_i_glide_ligand_efficiency_ln>
-0.0574635

> <r_i_glide_ligand_efficiency_sa>
-0.0305337

> <r_i_glide_lipo>
-1.65583

> <r_i_glide_metal>
0

> <r_i_glide_rewards>
1.70385

> <s_i_glide_gridfile>
wee1_glide-grid

> <s_m_Source_File>
wee1_decoys_glide_SP.sdf

> <s_m_Source_Path>
/Users/zhangxujun/Desktop

> <s_m_entry_id>
3626

> <s_m_entry_name>
wee1_decoys_glide_SP.3351

> <s_m_subgroup_title>
wee1_decoys_glide_SP

> <s_m_subgroupid>
wee1_decoys_glide_SP


$$$$
