@<TRIPOS>MOLECULE
ZINC47521851_4589
50   52    1
SMALL
USER_CHARGES


@<TRIPOS>ATOM
      1 C1          4.6070   52.4753   29.6802 C.3       1 UNK         0.0000 
      2 C2          5.0120   53.5207   28.6045 C.3       1 UNK         0.0000 
      3 C3          5.2567   54.8988   29.2608 C.3       1 UNK         0.0000 
      4 C4          6.3741   53.1400   27.9791 C.3       1 UNK         0.0000 
      5 C5          3.8485   53.5475   27.5478 C.3       1 UNK         0.0000 
      6 H6          3.7522   52.5086   27.2203 H         1 UNK         0.0000 
      7 C7          2.5356   53.9564   28.2045 C.2       1 UNK         0.0000 
      8 C8          2.1453   55.2065   28.6722 C.2       1 UNK         0.0000 
      9 C9          1.1020   55.1646   29.5819 C.2       1 UNK         0.0000 
     10 C10         0.5168   53.9132   29.6544 C.2       1 UNK         0.0000 
     11 S11         1.3298   52.7740   28.6403 S.3       1 UNK         0.0000 
     12 N12         4.1553   54.2858   26.3153 N.am      1 UNK         0.0000 
     13 C13         3.5147   54.0968   25.1489 C.2       1 UNK         0.0000 
     14 O14         2.3538   53.6978   25.0603 O.2       1 UNK         0.0000 
     15 N15         4.3452   54.3294   24.1138 N.am      1 UNK         0.0000 
     16 C16         4.2133   53.9457   22.7661 C.ar      1 UNK         0.0000 
     17 C17         3.2844   53.0053   22.2983 C.ar      1 UNK         0.0000 
     18 C18         3.2996   52.6175   20.9619 C.ar      1 UNK         0.0000 
     19 C19         4.2312   53.1659   20.0834 C.ar      1 UNK         0.0000 
     20 C20         5.1677   54.1232   20.5132 C.ar      1 UNK         0.0000 
     21 C21         5.1367   54.4967   21.8708 C.ar      1 UNK         0.0000 
     22 N22         6.0961   54.6637   19.5678 N.am      1 UNK         0.0000 
     23 C23         6.1433   54.2020   18.1782 C.3       1 UNK         0.0000 
     24 C24         7.2271   55.0237   17.5507 C.3       1 UNK         0.0000 
     25 N25         7.9050   55.4996   18.7224 N.am      1 UNK         0.0000 
     26 C26         7.1497   55.5023   19.8325 C.2       1 UNK         0.0000 
     27 O27         7.4754   56.0503   20.8836 O.2       1 UNK         0.0000 
     28 H28         4.1405   51.5912   29.2456 H         1 UNK         0.0000 
     29 H29         5.4401   52.0964   30.2417 H         1 UNK         0.0000 
     30 H30         3.8987   52.8867   30.4001 H         1 UNK         0.0000 
     31 H31         5.5729   55.6185   28.5087 H         1 UNK         0.0000 
     32 H32         4.3880   55.2930   29.7701 H         1 UNK         0.0000 
     33 H33         6.0431   54.8970   30.0107 H         1 UNK         0.0000 
     34 H34         6.6112   53.7218   27.0894 H         1 UNK         0.0000 
     35 H35         7.1977   53.2977   28.6763 H         1 UNK         0.0000 
     36 H36         6.3971   52.0971   27.7046 H         1 UNK         0.0000 
     37 H37         2.7060   56.1035   28.4857 H         1 UNK         0.0000 
     38 H38         0.7517   56.0260   30.1308 H         1 UNK         0.0000 
     39 H39        -0.3297   53.6043   30.2500 H         1 UNK         0.0000 
     40 H40         5.1259   54.5422   26.2330 H         1 UNK         0.0000 
     41 H41         5.1985   54.8223   24.3232 H         1 UNK         0.0000 
     42 H42         2.5653   52.5398   22.9551 H         1 UNK         0.0000 
     43 H43         2.5927   51.8835   20.6041 H         1 UNK         0.0000 
     44 H44         4.2052   52.8202   19.0607 H         1 UNK         0.0000 
     45 H45         5.8352   55.2133   22.2667 H         1 UNK         0.0000 
     46 H46         6.3821   53.1377   18.1366 H         1 UNK         0.0000 
     47 H47         5.1879   54.3813   17.6827 H         1 UNK         0.0000 
     48 H48         6.8206   55.8591   16.9763 H         1 UNK         0.0000 
     49 H49         7.9016   54.4496   16.9117 H         1 UNK         0.0000 
     50 H50         8.6048   56.2169   18.6006 H         1 UNK         0.0000 
@<TRIPOS>BOND
     1    1    2 1    
     2    1   28 1    
     3    1   29 1    
     4    1   30 1    
     5    2    3 1    
     6    2    4 1    
     7    2    5 1    
     8    3   31 1    
     9    3   32 1    
    10    3   33 1    
    11    4   34 1    
    12    4   35 1    
    13    4   36 1    
    14    5    6 1    
    15    5    7 1    
    16    5   12 1    
    17    7   11 1    
    18    7    8 2    
    19    8    9 1    
    20    8   37 1    
    21    9   10 2    
    22    9   38 1    
    23   10   11 1    
    24   10   39 1    
    25   12   13 am   BACKBONE|DICT|INTERRES
    26   12   40 1    
    27   13   14 2    
    28   13   15 am   BACKBONE|DICT|INTERRES
    29   15   16 1    
    30   15   41 1    
    31   16   21 ar   
    32   16   17 ar   
    33   17   18 ar   
    34   17   42 1    
    35   18   19 ar   
    36   18   43 1    
    37   19   20 ar   
    38   19   44 1    
    39   20   21 ar   
    40   20   22 1    
    41   21   45 1    
    42   22   26 am   BACKBONE|DICT|INTERRES
    43   22   23 1    
    44   23   24 1    
    45   23   46 1    
    46   23   47 1    
    47   24   25 1    
    48   24   48 1    
    49   24   49 1    
    50   25   26 am   BACKBONE|DICT|INTERRES
    51   25   50 1    
    52   26   27 2    
@<TRIPOS>SUBSTRUCTURE
     1 UNK         1 GROUP             0       ****    0 ROOT    
