ZINC15737486_2452
                    3D
 Schrodinger Suite 2024-2.
 64 68  0  0  1  0            999 V2000
    6.4042   53.6958   28.2146 C   0  0  0  0  0  0
    5.1613   54.2606   27.4985 C   0  0  2  0  0  0
    5.2321   55.3360   27.6456 H   0  0  0  0  0  0
    3.7474   53.8352   28.1059 C   0  0  0  0  0  0
    2.6754   53.6073   26.9817 C   0  0  0  0  0  0
    1.2864   53.2393   27.5545 C   0  0  2  0  0  0
    0.7960   54.3819   28.4813 C   0  0  0  0  0  0
    1.7961   54.5864   29.6423 C   0  0  2  0  0  0
    3.1878   54.9515   29.0512 C   0  0  0  0  0  0
    1.8660   53.2617   30.4343 C   0  0  0  0  0  0
    2.3977   52.1600   29.5217 C   0  0  1  0  0  0
    1.4094   51.9248   28.3571 C   0  0  0  0  0  0
    3.8009   52.5462   28.9977 C   0  0  0  0  0  0
    5.2719   54.0969   26.0398 N   0  0  0  0  0  0
    6.1477   54.7110   25.2191 C   0  0  0  0  0  0
    7.0869   55.3879   25.6440 O   0  0  0  0  0  0
    5.8884   54.5937   23.7254 C   0  0  0  0  0  0
    4.8198   53.8410   23.2076 C   0  0  0  0  0  0
    4.5871   53.7896   21.8351 C   0  0  0  0  0  0
    5.4162   54.4926   20.9587 C   0  0  0  0  0  0
    6.4752   55.2507   21.4568 C   0  0  0  0  0  0
    6.7044   55.2979   22.8287 C   0  0  0  0  0  0
    5.1522   54.3747   19.1917 S   0  0  0  0  0  0
    6.3315   53.7013   18.6467 O   0  0  0  0  0  0
    3.8099   53.8284   18.9799 O   0  0  0  0  0  0
    5.1402   56.0320   18.5968 N   0  0  0  0  0  0
    6.3456   56.6048   17.9658 C   0  0  2  0  0  0
    7.1611   56.3174   18.6275 H   0  0  0  0  0  0
    6.2620   58.1381   17.8277 C   0  0  0  0  0  0
    5.3539   58.4963   16.6400 C   0  0  0  0  0  0
    5.6420   57.1443   15.3762 S   0  0  0  0  0  0
    4.3498   56.5541   15.0112 O   0  0  0  0  0  0
    6.5796   57.5976   14.3435 O   0  0  0  0  0  0
    6.5533   56.0142   16.5634 C   0  0  0  0  0  0
    6.3360   53.8782   29.2814 H   0  0  0  0  0  0
    6.5040   52.6207   28.0682 H   0  0  0  0  0  0
    7.3267   54.1848   27.9028 H   0  0  0  0  0  0
    2.9930   52.8078   26.3133 H   0  0  0  0  0  0
    2.5870   54.4963   26.3594 H   0  0  0  0  0  0
    0.5822   53.0957   26.7348 H   0  0  0  0  0  0
    0.7031   55.3090   27.9172 H   0  0  0  0  0  0
   -0.1970   54.1458   28.8657 H   0  0  0  0  0  0
    1.4456   55.3903   30.2925 H   0  0  0  0  0  0
    3.1014   55.8955   28.5161 H   0  0  0  0  0  0
    3.8978   55.1269   29.8579 H   0  0  0  0  0  0
    0.8854   52.9939   30.8374 H   0  0  0  0  0  0
    2.5368   53.2972   31.2816 H   0  0  0  0  0  0
    2.4835   51.2963   30.1485 H   0  0  0  0  0  0
    1.7580   51.1112   27.7193 H   0  0  0  0  0  0
    0.4344   51.6121   28.7382 H   0  0  0  0  0  0
    4.4550   52.6987   29.8571 H   0  0  0  0  0  0
    4.2325   51.7011   28.4802 H   0  0  0  0  0  0
    4.5903   53.4824   25.6248 H   0  0  0  0  0  0
    4.1462   53.2983   23.8522 H   0  0  0  0  0  0
    3.7642   53.2026   21.4517 H   0  0  0  0  0  0
    7.1298   55.7845   20.7863 H   0  0  0  0  0  0
    7.5167   55.9067   23.1957 H   0  0  0  0  0  0
    4.2465   56.3318   18.2008 H   0  0  0  0  0  0
    5.9062   58.6122   18.7432 H   0  0  0  0  0  0
    7.2595   58.5374   17.6348 H   0  0  0  0  0  0
    4.3163   58.4171   16.9606 H   0  0  0  0  0  0
    5.4812   59.4845   16.1962 H   0  0  0  0  0  0
    7.6123   56.1393   16.3417 H   0  0  0  0  0  0
    6.3584   54.9570   16.3858 H   0  0  0  0  0  0
  1  2  1  0  0  0
  1 35  1  0  0  0
  1 36  1  0  0  0
  1 37  1  0  0  0
  2  3  1  0  0  0
  2  4  1  0  0  0
  2 14  1  0  0  0
  4  9  1  0  0  0
  4 13  1  0  0  0
  4  5  1  0  0  0
  5  6  1  0  0  0
  5 38  1  0  0  0
  5 39  1  0  0  0
  6 12  1  0  0  0
  6  7  1  0  0  0
  6 40  1  0  0  0
  7  8  1  0  0  0
  7 41  1  0  0  0
  7 42  1  0  0  0
  8  9  1  0  0  0
  8 10  1  0  0  0
  8 43  1  0  0  0
  9 44  1  0  0  0
  9 45  1  0  0  0
 10 11  1  0  0  0
 10 46  1  0  0  0
 10 47  1  0  0  0
 11 12  1  0  0  0
 11 13  1  0  0  0
 11 48  1  0  0  0
 12 49  1  0  0  0
 12 50  1  0  0  0
 13 51  1  0  0  0
 13 52  1  0  0  0
 14 15  1  0  0  0
 14 53  1  0  0  0
 15 16  2  0  0  0
 15 17  1  0  0  0
 17 22  2  0  0  0
 17 18  1  0  0  0
 18 19  2  0  0  0
 18 54  1  0  0  0
 19 20  1  0  0  0
 19 55  1  0  0  0
 20 21  2  0  0  0
 20 23  1  0  0  0
 21 22  1  0  0  0
 21 56  1  0  0  0
 22 57  1  0  0  0
 23 24  2  0  0  0
 23 25  2  0  0  0
 23 26  1  0  0  0
 26 27  1  0  0  0
 26 58  1  0  0  0
 27 28  1  0  0  0
 27 34  1  0  0  0
 27 29  1  0  0  0
 29 30  1  0  0  0
 29 59  1  0  0  0
 29 60  1  0  0  0
 30 31  1  0  0  0
 30 61  1  0  0  0
 30 62  1  0  0  0
 31 32  2  0  0  0
 31 33  2  0  0  0
 31 34  1  0  0  0
 34 63  1  0  0  0
 34 64  1  0  0  0
M  END
> <i_i_glide_confnum>
84

> <i_i_glide_lignum>
2453

> <i_i_glide_posenum>
346

> <i_i_glide_rotatable_bonds>
7

> <i_m_Source_File_Index>
293

> <b_m_subgroup_collapsed>
0

> <r_i_docking_score>
-5.92003

> <r_i_glide_ecoul>
-2.82133

> <r_i_glide_eff_state_penalty>
0

> <r_i_glide_einternal>
7.02898

> <r_i_glide_emodel>
-61.016

> <r_i_glide_energy>
-48.233

> <r_i_glide_erotb>
0.526728

> <r_i_glide_esite>
-0.0555712

> <r_i_glide_evdw>
-45.4117

> <r_i_glide_gscore>
-5.92003

> <r_i_glide_hbond>
-0.32

> <r_i_glide_ligand_efficiency>
-0.185001

> <r_i_glide_ligand_efficiency_ln>
-1.32566

> <r_i_glide_ligand_efficiency_sa>
-0.587342

> <r_i_glide_lipo>
-3.54814

> <r_i_glide_metal>
0

> <r_i_glide_rewards>
0.170734

> <s_i_glide_gridfile>
wee1_glide-grid

> <s_m_Source_File>
wee1_decoys_glide_SP.sdf

> <s_m_Source_Path>
/Users/zhangxujun/Desktop

> <s_m_entry_id>
568

> <s_m_entry_name>
wee1_decoys_glide_SP.293

> <s_m_subgroup_title>
wee1_decoys_glide_SP

> <s_m_subgroupid>
wee1_decoys_glide_SP


$$$$
