@<TRIPOS>MOLECULE
ZINC40709637_3442
52   55    1
SMALL
USER_CHARGES


@<TRIPOS>ATOM
      1 C1          6.3061   54.2715   27.5872 C.ar      1 UNK         0.0000 
      2 C2          6.0246   54.7729   26.3199 C.ar      1 UNK         0.0000 
      3 C3          4.7948   54.4964   25.7296 C.ar      1 UNK         0.0000 
      4 C4          3.8396   53.7161   26.3914 C.ar      1 UNK         0.0000 
      5 C5          4.1448   53.2115   27.6620 C.ar      1 UNK         0.0000 
      6 C6          5.3695   53.4923   28.2587 C.ar      1 UNK         0.0000 
      7 C7          2.5047   53.5135   25.6521 C.3       1 UNK         0.0000 
      8 N8          1.4083   52.6821   26.2119 N.pl3     1 UNK         0.0000 
      9 C9          0.9870   52.5572   27.6316 C.3       1 UNK         0.0000 
     10 C10         1.0217   53.7436   28.6116 C.ar      1 UNK         0.0000 
     11 C11         0.5042   53.5108   29.8914 C.ar      1 UNK         0.0000 
     12 C12         0.5397   54.5054   30.8646 C.ar      1 UNK         0.0000 
     13 C13         1.1044   55.7439   30.5624 C.ar      1 UNK         0.0000 
     14 C14         1.6165   55.9968   29.2978 C.ar      1 UNK         0.0000 
     15 C15         1.5701   55.0000   28.3303 C.ar      1 UNK         0.0000 
     16 C16         0.5794   52.0315   25.2367 C.ar      1 UNK         0.0000 
     17 C17         0.0329   50.7261   25.3997 C.ar      1 UNK         0.0000 
     18 C18        -0.7744   50.2089   24.3615 C.ar      1 UNK         0.0000 
     19 N19        -1.0208   50.9194   23.2305 N.ar      1 UNK         0.0000 
     20 C20        -0.4377   52.1344   23.1393 C.ar      1 UNK         0.0000 
     21 N21         0.3418   52.7194   24.0785 N.ar      1 UNK         0.0000 
     22 N22        -1.3365   48.9210   24.4784 N.pl3     1 UNK         0.0000 
     23 C23        -2.0424   48.1179   23.5702 C.ar      1 UNK         0.0000 
     24 C24        -3.1411   47.4045   24.0579 C.ar      1 UNK         0.0000 
     25 C25        -3.8247   46.5066   23.2377 C.ar      1 UNK         0.0000 
     26 C26        -3.3961   46.2936   21.9284 C.ar      1 UNK         0.0000 
     27 C27        -2.2901   46.9849   21.4374 C.ar      1 UNK         0.0000 
     28 C28        -1.6055   47.8870   22.2535 C.ar      1 UNK         0.0000 
     29 F29        -0.5024   48.4961   21.7592 F         1 UNK         0.0000 
     30 Br30       -4.3044   45.0405   20.8210 Br        1 UNK         0.0000 
     31 N31         0.3253   49.9247   26.5120 N.pl3     1 UNK         0.0000 
     32 H32         7.2532   54.4919   28.0581 H         1 UNK         0.0000 
     33 H33         6.7482   55.3796   25.7984 H         1 UNK         0.0000 
     34 H34         4.5819   54.8977   24.7492 H         1 UNK         0.0000 
     35 H35         3.4611   52.5860   28.2044 H         1 UNK         0.0000 
     36 H36         5.5884   53.0997   29.2397 H         1 UNK         0.0000 
     37 H37         2.0962   54.4889   25.3878 H         1 UNK         0.0000 
     38 H38         2.7936   53.0826   24.6914 H         1 UNK         0.0000 
     39 H39        -0.0532   52.2262   27.6535 H         1 UNK         0.0000 
     40 H40         1.5468   51.7384   28.0813 H         1 UNK         0.0000 
     41 H41         0.0760   52.5498   30.1424 H         1 UNK         0.0000 
     42 H42         0.1408   54.3124   31.8507 H         1 UNK         0.0000 
     43 H43         1.1406   56.5168   31.3173 H         1 UNK         0.0000 
     44 H44         2.0513   56.9588   29.0686 H         1 UNK         0.0000 
     45 H45         1.9933   55.2325   27.3763 H         1 UNK         0.0000 
     46 H46        -0.6020   52.6821   22.2247 H         1 UNK         0.0000 
     47 H47        -1.2402   48.5191   25.3995 H         1 UNK         0.0000 
     48 H48        -3.4701   47.5484   25.0782 H         1 UNK         0.0000 
     49 H49        -4.6823   45.9726   23.6194 H         1 UNK         0.0000 
     50 H50        -1.9490   46.8114   20.4274 H         1 UNK         0.0000 
     51 H51        -0.2992   49.1707   26.7837 H         1 UNK         0.0000 
     52 H52         0.9382   50.3047   27.2177 H         1 UNK         0.0000 
@<TRIPOS>BOND
     1    1    6 ar   
     2    1    2 ar   
     3    1   32 1    
     4    2    3 ar   
     5    2   33 1    
     6    3    4 ar   
     7    3   34 1    
     8    4    5 ar   
     9    4    7 1    
    10    5    6 ar   
    11    5   35 1    
    12    6   36 1    
    13    7    8 1    
    14    7   37 1    
    15    7   38 1    
    16    8    9 1    
    17    8   16 1    
    18    9   10 1    
    19    9   39 1    
    20    9   40 1    
    21   10   15 ar   
    22   10   11 ar   
    23   11   12 ar   
    24   11   41 1    
    25   12   13 ar   
    26   12   42 1    
    27   13   14 ar   
    28   13   43 1    
    29   14   15 ar   
    30   14   44 1    
    31   15   45 1    
    32   16   21 ar   
    33   16   17 ar   
    34   17   18 ar   
    35   17   31 1    
    36   18   19 ar   
    37   18   22 1    
    38   19   20 ar   
    39   20   21 ar   
    40   20   46 1    
    41   22   23 1    
    42   22   47 1    
    43   23   28 ar   
    44   23   24 ar   
    45   24   25 ar   
    46   24   48 1    
    47   25   26 ar   
    48   25   49 1    
    49   26   27 ar   
    50   26   30 1    
    51   27   28 ar   
    52   27   50 1    
    53   28   29 1    
    54   31   51 1    
    55   31   52 1    
@<TRIPOS>SUBSTRUCTURE
     1 UNK         1 GROUP             0       ****    0 ROOT    
