@<TRIPOS>MOLECULE
ZINC50006675_1486
43   46    1
SMALL
USER_CHARGES


@<TRIPOS>ATOM
      1 C1          7.1283   56.3473   16.7882 C.3       1 UNK         0.0000 
      2 C2          7.3245   56.0230   18.2490 C.2       1 UNK         0.0000 
      3 C3          8.4852   56.0544   19.0142 C.2       1 UNK         0.0000 
      4 C4          8.3002   55.6967   20.3507 C.2       1 UNK         0.0000 
      5 C5          6.9880   55.3732   20.6600 C.2       1 UNK         0.0000 
      6 S6          5.9880   55.5225   19.2458 S.3       1 UNK         0.0000 
      7 C7          6.4383   54.9567   21.9396 C.ar      1 UNK         0.0000 
      8 N8          5.2295   54.4960   22.1459 N.2       1 UNK         0.0000 
      9 C9          5.1942   54.3068   23.4574 C.ar      1 UNK         0.0000 
     10 N10         6.3092   54.5814   24.1149 N.2       1 UNK         0.0000 
     11 N11         7.1043   54.9992   23.1318 N.pl3     1 UNK         0.0000 
     12 N12         4.0335   53.8199   24.0308 N.am      1 UNK         0.0000 
     13 C13         3.5829   54.1003   25.2739 C.2       1 UNK         0.0000 
     14 O14         4.1338   54.8871   26.0453 O.2       1 UNK         0.0000 
     15 C15         2.3053   53.4034   25.6798 C.ar      1 UNK         0.0000 
     16 C16         1.3300   53.1081   24.7049 C.ar      1 UNK         0.0000 
     17 C17         0.1403   52.4669   25.0575 C.ar      1 UNK         0.0000 
     18 N18        -0.1856   52.1010   26.3222 N.ar      1 UNK         0.0000 
     19 C19         0.7334   52.4021   27.2436 C.ar      1 UNK         0.0000 
     20 C20         1.9860   53.0249   27.0111 C.ar      1 UNK         0.0000 
     21 C21         2.5977   53.0608   28.3174 C.ar      1 UNK         0.0000 
     22 N22         1.7856   52.5705   29.2255 N.2       1 UNK         0.0000 
     23 N23         0.6557   52.1893   28.6037 N.pl3     1 UNK         0.0000 
     24 C24        -0.4312   51.6027   29.3658 C.3       1 UNK         0.0000 
     25 C25         3.9633   53.5591   28.7403 C.3       1 UNK         0.0000 
     26 C26        -0.9079   52.1417   24.0107 C.3       1 UNK         0.0000 
     27 H27         8.0575   56.6506   16.3058 H         1 UNK         0.0000 
     28 H28         6.4195   57.1637   16.6517 H         1 UNK         0.0000 
     29 H29         6.7432   55.4897   16.2368 H         1 UNK         0.0000 
     30 H30         9.4496   56.3334   18.6128 H         1 UNK         0.0000 
     31 H31         9.1043   55.6834   21.0693 H         1 UNK         0.0000 
     32 H32         3.4074   53.3354   23.4069 H         1 UNK         0.0000 
     33 H33         1.4758   53.3817   23.6699 H         1 UNK         0.0000 
     34 H34        -1.3659   52.0980   29.1103 H         1 UNK         0.0000 
     35 H35        -0.5097   50.5547   29.0909 H         1 UNK         0.0000 
     36 H36        -0.2577   51.6974   30.4386 H         1 UNK         0.0000 
     37 H37         4.0307   54.6443   28.6753 H         1 UNK         0.0000 
     38 H38         4.2136   53.2891   29.7665 H         1 UNK         0.0000 
     39 H39         4.7494   53.1489   28.1056 H         1 UNK         0.0000 
     40 H40        -0.6459   52.5471   23.0337 H         1 UNK         0.0000 
     41 H41        -1.0147   51.0615   23.9084 H         1 UNK         0.0000 
     42 H42        -1.8760   52.5551   24.2963 H         1 UNK         0.0000 
     43 H43         8.0720   55.2818   23.2819 H         1 UNK         0.0000 
@<TRIPOS>BOND
     1    1    2 1    
     2    1   27 1    
     3    1   28 1    
     4    1   29 1    
     5    2    6 1    
     6    2    3 2    
     7    3    4 1    
     8    3   30 1    
     9    4    5 2    
    10    4   31 1    
    11    5    6 1    
    12    5    7 1    
    13    7    8 ar   
    14    7   11 ar   
    15    8    9 ar   
    16    9   12 1    
    17    9   10 ar   
    18   10   11 ar   
    19   11   43 1    
    20   12   13 am   BACKBONE|DICT|INTERRES
    21   12   32 1    
    22   13   14 2    
    23   13   15 1    
    24   15   20 ar   
    25   15   16 ar   
    26   16   17 ar   
    27   16   33 1    
    28   17   18 ar   
    29   17   26 1    
    30   18   19 ar   
    31   19   23 ar   
    32   19   20 ar   
    33   20   21 ar   
    34   21   22 ar   
    35   21   25 1    
    36   22   23 ar   
    37   23   24 1    
    38   24   34 1    
    39   24   35 1    
    40   24   36 1    
    41   25   37 1    
    42   25   38 1    
    43   25   39 1    
    44   26   40 1    
    45   26   41 1    
    46   26   42 1    
@<TRIPOS>SUBSTRUCTURE
     1 UNK         1 GROUP             0       ****    0 ROOT    
