@<TRIPOS>MOLECULE
ZINC17087449_2603
57   59    1
SMALL
USER_CHARGES


@<TRIPOS>ATOM
      1 C1          2.3039   52.9250   30.2959 C.3       1 UNK         0.0000 
      2 C2          1.5535   53.9642   29.4236 C.3       1 UNK         0.0000 
      3 C3          0.0686   53.5185   29.3491 C.3       1 UNK         0.0000 
      4 C4          1.5789   55.3376   30.1401 C.3       1 UNK         0.0000 
      5 C5          2.1826   54.1154   27.9827 C.3       1 UNK         0.0000 
      6 H6          1.7453   55.0298   27.5827 H         1 UNK         0.0000 
      7 C7          1.9120   52.9324   27.0229 C.3       1 UNK         0.0000 
      8 C8          2.2220   53.2971   25.5565 C.3       1 UNK         0.0000 
      9 C9          3.6111   53.9424   25.4386 C.2       1 UNK         0.0000 
     10 C10         4.4031   54.0967   24.2561 C.2       1 UNK         0.0000 
     11 C11         5.6675   54.6007   24.5724 C.2       1 UNK         0.0000 
     12 S12         5.9040   54.8967   26.2531 S.3       1 UNK         0.0000 
     13 C13         4.2794   54.4014   26.5882 C.2       1 UNK         0.0000 
     14 C14         3.7243   54.3659   28.0105 C.3       1 UNK         0.0000 
     15 C15         4.0746   53.6967   22.8914 C.2       1 UNK         0.0000 
     16 O16         4.9548   53.6203   22.0274 O.2       1 UNK         0.0000 
     17 N17         2.7832   53.3648   22.6842 N.am      1 UNK         0.0000 
     18 N18         2.3719   52.8967   21.4406 N.am      1 UNK         0.0000 
     19 C19         2.0219   51.5964   21.3239 C.2       1 UNK         0.0000 
     20 O20         2.1952   50.7575   22.2151 O.2       1 UNK         0.0000 
     21 C21         1.2932   51.1682   20.0231 C.3       1 UNK         0.0000 
     22 H22         1.8983   50.2988   19.7548 H         1 UNK         0.0000 
     23 C23         1.4290   52.1512   18.8269 C.3       1 UNK         0.0000 
     24 C24         0.9056   51.4847   17.5336 C.3       1 UNK         0.0000 
     25 C25        -0.5204   50.9057   17.6785 C.3       1 UNK         0.0000 
     26 C26        -0.6539   49.9691   18.9058 C.3       1 UNK         0.0000 
     27 C27        -0.1601   50.6196   20.2314 C.3       1 UNK         0.0000 
     28 H28        -0.1416   49.8357   20.9904 H         1 UNK         0.0000 
     29 C29        -1.1520   51.6851   20.7928 C.2       1 UNK         0.0000 
     30 O30        -2.0973   52.0966   20.0811 O.co2     1 UNK         0.0000 
     31 H31         1.7900   52.7534   31.2435 H         1 UNK         0.0000 
     32 H32         3.3165   53.2433   30.5424 H         1 UNK         0.0000 
     33 H33         2.3772   51.9603   29.7929 H         1 UNK         0.0000 
     34 H34        -0.4929   54.0971   28.6158 H         1 UNK         0.0000 
     35 H35        -0.0304   52.4671   29.0759 H         1 UNK         0.0000 
     36 H36        -0.4391   53.6296   30.3087 H         1 UNK         0.0000 
     37 H37         1.0555   56.1039   29.5669 H         1 UNK         0.0000 
     38 H38         1.1042   55.2940   31.1216 H         1 UNK         0.0000 
     39 H39         2.5940   55.6964   30.2911 H         1 UNK         0.0000 
     40 H40         2.4209   52.0311   27.3642 H         1 UNK         0.0000 
     41 H41         0.8569   52.6632   27.0354 H         1 UNK         0.0000 
     42 H42         2.1480   52.3855   24.9625 H         1 UNK         0.0000 
     43 H43         1.4626   53.9809   25.1755 H         1 UNK         0.0000 
     44 H44         6.4849   54.7805   23.8875 H         1 UNK         0.0000 
     45 H45         3.9618   55.2931   28.5314 H         1 UNK         0.0000 
     46 H46         4.2307   53.5568   28.5359 H         1 UNK         0.0000 
     47 H47         2.0177   53.6679   23.2674 H         1 UNK         0.0000 
     48 H48         2.0570   53.6278   20.8151 H         1 UNK         0.0000 
     49 H49         0.8355   53.0530   18.9888 H         1 UNK         0.0000 
     50 H50         2.4752   52.3987   18.6337 H         1 UNK         0.0000 
     51 H51         1.5883   50.6829   17.2443 H         1 UNK         0.0000 
     52 H52         0.9278   52.2042   16.7141 H         1 UNK         0.0000 
     53 H53        -0.7849   50.3591   16.7728 H         1 UNK         0.0000 
     54 H54        -1.2365   51.7245   17.7446 H         1 UNK         0.0000 
     55 H55        -0.0128   49.1112   18.6958 H         1 UNK         0.0000 
     56 H56        -1.6646   49.5700   19.0046 H         1 UNK         0.0000 
     57 O57        -0.9447   52.0967   21.9552 O.co2     1 UNK         0.0000 
@<TRIPOS>BOND
     1    1    2 1    
     2    1   31 1    
     3    1   32 1    
     4    1   33 1    
     5    2    3 1    
     6    2    4 1    
     7    2    5 1    
     8    3   34 1    
     9    3   35 1    
    10    3   36 1    
    11    4   37 1    
    12    4   38 1    
    13    4   39 1    
    14    5    6 1    
    15    5   14 1    
    16    5    7 1    
    17    7    8 1    
    18    7   40 1    
    19    7   41 1    
    20    8    9 1    
    21    8   42 1    
    22    8   43 1    
    23    9   13 2    
    24    9   10 1    
    25   10   11 2    
    26   10   15 1    
    27   11   12 1    
    28   11   44 1    
    29   12   13 1    
    30   13   14 1    
    31   14   45 1    
    32   14   46 1    
    33   15   16 2    
    34   15   17 am   BACKBONE|DICT|INTERRES
    35   17   18 1    
    36   17   47 1    
    37   18   19 am   BACKBONE|DICT|INTERRES
    38   18   48 1    
    39   19   20 2    
    40   19   21 1    
    41   21   22 1    
    42   21   27 1    
    43   21   23 1    
    44   23   24 1    
    45   23   49 1    
    46   23   50 1    
    47   24   25 1    
    48   24   51 1    
    49   24   52 1    
    50   25   26 1    
    51   25   53 1    
    52   25   54 1    
    53   26   27 1    
    54   26   55 1    
    55   26   56 1    
    56   27   28 1    
    57   27   29 1    
    58   29   30 2    
    59   29   57 1    
@<TRIPOS>SUBSTRUCTURE
     1 UNK         1 GROUP             0       ****    0 ROOT    
