@<TRIPOS>MOLECULE
ZINC38649799_6003
63   66    1
SMALL
USER_CHARGES


@<TRIPOS>ATOM
      1 C1         11.2305   55.9574   16.8468 C.3       1 UNK         0.0000 
      2 C2         10.4879   54.6102   16.8836 C.3       1 UNK         0.0000 
      3 H3         10.9516   54.0081   17.6664 H         1 UNK         0.0000 
      4 C4          8.9905   54.7988   17.2099 C.2       1 UNK         0.0000 
      5 O5          8.1097   54.6643   16.3574 O.2       1 UNK         0.0000 
      6 O6          8.8087   55.1186   18.5202 O.3       1 UNK         0.0000 
      7 C7          7.6021   55.0057   19.1873 C.ar      1 UNK         0.0000 
      8 C8          7.4574   55.7722   20.3417 C.ar      1 UNK         0.0000 
      9 C9          6.3570   55.6034   21.1804 C.ar      1 UNK         0.0000 
     10 C10         5.3843   54.6242   20.9281 C.ar      1 UNK         0.0000 
     11 C11         5.5051   53.9089   19.7211 C.ar      1 UNK         0.0000 
     12 C12         6.5848   54.0966   18.8605 C.ar      1 UNK         0.0000 
     13 O13         4.6255   52.9202   19.3491 O.3       1 UNK         0.0000 
     14 C14         3.7125   52.4833   20.2400 C.2       1 UNK         0.0000 
     15 C15         3.4875   53.0271   21.4537 C.2       1 UNK         0.0000 
     16 C16         4.2523   54.2750   21.9313 C.3       1 UNK         0.0000 
     17 H17         3.5423   55.1003   21.8754 H         1 UNK         0.0000 
     18 C18         4.6559   54.2352   23.4249 C.ar      1 UNK         0.0000 
     19 C19         5.9875   54.0966   23.8348 C.ar      1 UNK         0.0000 
     20 C20         6.3207   54.0967   25.1845 C.ar      1 UNK         0.0000 
     21 C21         5.3283   54.1531   26.1724 C.ar      1 UNK         0.0000 
     22 C22         3.9991   54.3261   25.7600 C.ar      1 UNK         0.0000 
     23 C23         3.6704   54.3830   24.4076 C.ar      1 UNK         0.0000 
     24 C24         5.6591   53.9658   27.6783 C.3       1 UNK         0.0000 
     25 C25         4.6751   52.9731   28.3400 C.3       1 UNK         0.0000 
     26 C26         5.5047   55.2964   28.4080 C.3       1 UNK         0.0000 
     27 C27         7.1024   53.4600   27.9296 C.3       1 UNK         0.0000 
     28 C28         2.4556   52.4811   22.2760 C.1       1 UNK         0.0000 
     29 N29         1.6003   52.0426   22.9205 N.1       1 UNK         0.0000 
     30 N30         3.1047   51.3921   19.6823 N.pl3     1 UNK         0.0000 
     31 O31        10.7032   53.9890   15.6103 O.3       1 UNK         0.0000 
     32 C32        10.4901   52.6310   15.4302 C.ar      1 UNK         0.0000 
     33 C33        10.0860   51.7491   16.4481 C.ar      1 UNK         0.0000 
     34 C34         9.9035   50.3915   16.1819 C.ar      1 UNK         0.0000 
     35 C35        10.1195   49.8961   14.8976 C.ar      1 UNK         0.0000 
     36 C36        10.5257   50.7578   13.8809 C.ar      1 UNK         0.0000 
     37 C37        10.7083   52.1159   14.1455 C.ar      1 UNK         0.0000 
     38 F38        11.1039   52.9349   13.1431 F         1 UNK         0.0000 
     39 H39        11.1198   56.5071   17.7827 H         1 UNK         0.0000 
     40 H40        12.2973   55.8024   16.6884 H         1 UNK         0.0000 
     41 H41        10.8676   56.5925   16.0380 H         1 UNK         0.0000 
     42 H42         8.2351   56.4700   20.6148 H         1 UNK         0.0000 
     43 H43         6.3049   56.1923   22.0829 H         1 UNK         0.0000 
     44 H44         6.6568   53.4635   17.9881 H         1 UNK         0.0000 
     45 H45         6.7854   53.9670   23.1198 H         1 UNK         0.0000 
     46 H46         7.3606   53.9745   25.4344 H         1 UNK         0.0000 
     47 H47         3.2039   54.3992   26.4863 H         1 UNK         0.0000 
     48 H48         2.6359   54.5164   24.1259 H         1 UNK         0.0000 
     49 H49         5.0149   52.6421   29.3216 H         1 UNK         0.0000 
     50 H50         4.5485   52.0968   27.7219 H         1 UNK         0.0000 
     51 H51         3.6808   53.3999   28.4781 H         1 UNK         0.0000 
     52 H52         6.2773   55.9988   28.0814 H         1 UNK         0.0000 
     53 H53         4.5050   55.6922   28.2233 H         1 UNK         0.0000 
     54 H54         5.6071   55.1839   29.4890 H         1 UNK         0.0000 
     55 H55         7.8472   54.1703   27.5710 H         1 UNK         0.0000 
     56 H56         7.3022   53.3312   28.9912 H         1 UNK         0.0000 
     57 H57         7.2885   52.5012   27.4505 H         1 UNK         0.0000 
     58 H58         2.3541   50.9100   20.1522 H         1 UNK         0.0000 
     59 H59         3.6078   50.8948   18.9519 H         1 UNK         0.0000 
     60 H60         9.9071   52.0946   17.4541 H         1 UNK         0.0000 
     61 H61         9.5924   49.7254   16.9738 H         1 UNK         0.0000 
     62 H62         9.9738   48.8470   14.6873 H         1 UNK         0.0000 
     63 H63        10.7062   50.3728   12.8861 H         1 UNK         0.0000 
@<TRIPOS>BOND
     1    1    2 1    
     2    1   39 1    
     3    1   40 1    
     4    1   41 1    
     5    2    3 1    
     6    2    4 1    
     7    2   31 1    
     8    4    5 2    
     9    4    6 1    
    10    6    7 1    
    11    7   12 ar   
    12    7    8 ar   
    13    8    9 ar   
    14    8   42 1    
    15    9   10 ar   
    16    9   43 1    
    17   10   16 1    
    18   10   11 ar   
    19   11   12 ar   
    20   11   13 1    
    21   12   44 1    
    22   13   14 1    
    23   14   15 2    
    24   14   30 1    
    25   15   16 1    
    26   15   28 1    
    27   16   17 1    
    28   16   18 1    
    29   18   23 ar   
    30   18   19 ar   
    31   19   20 ar   
    32   19   45 1    
    33   20   21 ar   
    34   20   46 1    
    35   21   22 ar   
    36   21   24 1    
    37   22   23 ar   
    38   22   47 1    
    39   23   48 1    
    40   24   25 1    
    41   24   26 1    
    42   24   27 1    
    43   25   49 1    
    44   25   50 1    
    45   25   51 1    
    46   26   52 1    
    47   26   53 1    
    48   26   54 1    
    49   27   55 1    
    50   27   56 1    
    51   27   57 1    
    52   28   29 3    
    53   30   58 1    
    54   30   59 1    
    55   31   32 1    
    56   32   37 ar   
    57   32   33 ar   
    58   33   34 ar   
    59   33   60 1    
    60   34   35 ar   
    61   34   61 1    
    62   35   36 ar   
    63   35   62 1    
    64   36   37 ar   
    65   36   63 1    
    66   37   38 1    
@<TRIPOS>SUBSTRUCTURE
     1 UNK         1 GROUP             0       ****    0 ROOT    
