@<TRIPOS>MOLECULE
ZINC64109231_3956
49   52    1
SMALL
USER_CHARGES


@<TRIPOS>ATOM
      1 C1         -0.4439   51.2234   27.5243 C.3       1 UNK         0.0000 
      2 C2         -0.0327   52.6612   27.8843 C.3       1 UNK         0.0000 
      3 H3         -0.7306   53.3389   27.3975 H         1 UNK         0.0000 
      4 C4          1.3934   52.9660   27.5296 C.2       1 UNK         0.0000 
      5 C5          2.0819   52.9040   28.6891 C.2       1 UNK         0.0000 
      6 O6          1.2651   52.6361   29.7379 O.3       1 UNK         0.0000 
      7 N7         -0.0799   52.9165   29.3086 N.3       1 UNK         0.0000 
      8 C8          3.5681   52.9958   29.0672 C.3       1 UNK         0.0000 
      9 C9          3.9656   54.4080   29.5368 C.3       1 UNK         0.0000 
     10 C10         4.0200   51.9129   30.0628 C.3       1 UNK         0.0000 
     11 C11         1.9109   53.2200   26.1951 C.2       1 UNK         0.0000 
     12 O12         1.2656   52.9122   25.1941 O.2       1 UNK         0.0000 
     13 N13         3.1254   53.8052   26.1699 N.am      1 UNK         0.0000 
     14 C14         3.9894   54.1048   25.1076 C.ar      1 UNK         0.0000 
     15 C15         5.2770   54.4943   25.4991 C.ar      1 UNK         0.0000 
     16 C16         6.2695   54.7982   24.5693 C.ar      1 UNK         0.0000 
     17 C17         5.9373   54.7350   23.2131 C.ar      1 UNK         0.0000 
     18 C18         4.6327   54.3470   22.8230 C.ar      1 UNK         0.0000 
     19 C19         3.6365   54.0183   23.7483 C.ar      1 UNK         0.0000 
     20 N20         4.6710   54.4347   21.4511 N.pl3     1 UNK         0.0000 
     21 C21         5.9195   54.8965   21.0870 C.ar      1 UNK         0.0000 
     22 N22         6.7042   55.0590   22.1282 N.2       1 UNK         0.0000 
     23 C23         6.3427   55.1774   19.6717 C.ar      1 UNK         0.0000 
     24 C24         7.6650   55.5817   19.4188 C.ar      1 UNK         0.0000 
     25 C25         8.0955   55.8567   18.1217 C.ar      1 UNK         0.0000 
     26 C26         7.2110   55.7299   17.0538 C.ar      1 UNK         0.0000 
     27 C27         5.8964   55.3302   17.2844 C.ar      1 UNK         0.0000 
     28 C28         5.4605   55.0559   18.5819 C.ar      1 UNK         0.0000 
     29 F29         4.1749   54.6745   18.7605 F         1 UNK         0.0000 
     30 F30         9.3689   56.2495   17.9004 F         1 UNK         0.0000 
     31 H31        -0.4328   51.0641   26.4462 H         1 UNK         0.0000 
     32 H32         0.2335   50.4968   27.9688 H         1 UNK         0.0000 
     33 H33        -1.4492   50.9929   27.8791 H         1 UNK         0.0000 
     34 H34        -0.1819   53.9097   29.4535 H         1 UNK         0.0000 
     35 H35         4.1487   52.7778   28.1720 H         1 UNK         0.0000 
     36 H36         3.6818   55.1674   28.8054 H         1 UNK         0.0000 
     37 H37         5.0440   54.4949   29.6819 H         1 UNK         0.0000 
     38 H38         3.4773   54.6626   30.4782 H         1 UNK         0.0000 
     39 H39         3.7458   50.9300   29.6815 H         1 UNK         0.0000 
     40 H40         5.1019   51.9173   30.1911 H         1 UNK         0.0000 
     41 H41         3.5628   52.0390   31.0448 H         1 UNK         0.0000 
     42 H42         3.5141   54.0035   27.0762 H         1 UNK         0.0000 
     43 H43         5.5293   54.5516   26.5490 H         1 UNK         0.0000 
     44 H44         7.2570   55.1001   24.8817 H         1 UNK         0.0000 
     45 H45         2.6488   53.7346   23.4197 H         1 UNK         0.0000 
     46 H46         8.3773   55.6873   20.2252 H         1 UNK         0.0000 
     47 H47         7.5469   55.9443   16.0497 H         1 UNK         0.0000 
     48 H48         5.2099   55.2317   16.4558 H         1 UNK         0.0000 
     49 H49         3.9345   54.2569   20.7810 H         1 UNK         0.0000 
@<TRIPOS>BOND
     1    1    2 1    
     2    1   31 1    
     3    1   32 1    
     4    1   33 1    
     5    2    3 1    
     6    2    7 1    
     7    2    4 1    
     8    4    5 2    
     9    4   11 1    
    10    5    6 1    
    11    5    8 1    
    12    6    7 1    
    13    7   34 1    
    14    8    9 1    
    15    8   10 1    
    16    8   35 1    
    17    9   36 1    
    18    9   37 1    
    19    9   38 1    
    20   10   39 1    
    21   10   40 1    
    22   10   41 1    
    23   11   12 2    
    24   11   13 am   BACKBONE|DICT|INTERRES
    25   13   14 1    
    26   13   42 1    
    27   14   19 ar   
    28   14   15 ar   
    29   15   16 ar   
    30   15   43 1    
    31   16   17 ar   
    32   16   44 1    
    33   17   22 ar   
    34   17   18 ar   
    35   18   19 ar   
    36   18   20 ar   
    37   19   45 1    
    38   20   21 ar   
    39   20   49 1    
    40   21   22 ar   
    41   21   23 1    
    42   23   28 ar   
    43   23   24 ar   
    44   24   25 ar   
    45   24   46 1    
    46   25   26 ar   
    47   25   30 1    
    48   26   27 ar   
    49   26   47 1    
    50   27   28 ar   
    51   27   48 1    
    52   28   29 1    
@<TRIPOS>SUBSTRUCTURE
     1 UNK         1 GROUP             0       ****    0 ROOT    
