ZINC19594869_6151
                    3D
 Schrodinger Suite 2024-2.
 34 36  0  0  1  0            999 V2000
    1.5130   52.8966   22.4318 C   0  0  0  0  0  0
    2.2878   53.8184   23.1367 C   0  0  0  0  0  0
    2.4912   53.3009   24.4144 C   0  0  0  0  0  0
    1.8713   52.0926   24.4877 O   0  0  0  0  0  0
    1.2698   51.8506   23.2982 C   0  0  0  0  0  0
    3.2974   53.7366   25.6124 C   0  0  0  0  0  0
    2.7215   53.7260   26.9104 C   0  0  0  0  0  0
    3.5415   54.0974   27.9948 C   0  0  0  0  0  0
    4.8282   54.4810   27.8428 N   0  0  0  0  0  0
    5.3696   54.4963   26.6107 C   0  0  0  0  0  0
    4.6523   54.1292   25.4600 C   0  0  0  0  0  0
    5.3254   54.1178   24.1517 C   0  0  0  0  0  0
    5.8586   54.1081   23.1251 N   0  0  0  0  0  0
    6.7050   54.8965   26.5881 N   0  0  0  0  0  0
    3.0474   54.1273   29.4395 C   0  0  0  0  0  0
    2.6712   52.7529   30.0194 C   0  0  0  0  0  0
    1.2931   52.2424   29.5739 C   0  0  0  0  0  0
    1.1267   52.0245   28.0630 C   0  0  0  0  0  0
    1.2799   53.2979   27.2086 C   0  0  0  0  0  0
    1.1827   52.9660   21.4048 H   0  0  0  0  0  0
    2.6890   54.7412   22.7458 H   0  0  0  0  0  0
    0.7417   50.9142   23.2084 H   0  0  0  0  0  0
    7.2152   54.7821   25.7241 H   0  0  0  0  0  0
    7.1420   55.0861   27.4810 H   0  0  0  0  0  0
    3.8264   54.5564   30.0723 H   0  0  0  0  0  0
    2.2101   54.8212   29.5166 H   0  0  0  0  0  0
    3.4440   52.0213   29.7700 H   0  0  0  0  0  0
    2.6656   52.8155   31.1080 H   0  0  0  0  0  0
    1.0961   51.3018   30.0801 H   0  0  0  0  0  0
    0.5220   52.9263   29.9304 H   0  0  0  0  0  0
    1.8195   51.2577   27.7090 H   0  0  0  0  0  0
    0.1289   51.6145   27.8951 H   0  0  0  0  0  0
    0.7600   54.1311   27.6799 H   0  0  0  0  0  0
    0.7196   53.1540   26.2879 H   0  0  0  0  0  0
  1  5  2  0  0  0
  1  2  1  0  0  0
  1 20  1  0  0  0
  2  3  2  0  0  0
  2 21  1  0  0  0
  3  4  1  0  0  0
  3  6  1  0  0  0
  4  5  1  0  0  0
  5 22  1  0  0  0
  6 11  2  0  0  0
  6  7  1  0  0  0
  7 19  1  0  0  0
  7  8  2  0  0  0
  8  9  1  0  0  0
  8 15  1  0  0  0
  9 10  2  0  0  0
 10 11  1  0  0  0
 10 14  1  0  0  0
 11 12  1  0  0  0
 12 13  3  0  0  0
 14 23  1  0  0  0
 14 24  1  0  0  0
 15 16  1  0  0  0
 15 25  1  0  0  0
 15 26  1  0  0  0
 16 17  1  0  0  0
 16 27  1  0  0  0
 16 28  1  0  0  0
 17 18  1  0  0  0
 17 29  1  0  0  0
 17 30  1  0  0  0
 18 19  1  0  0  0
 18 31  1  0  0  0
 18 32  1  0  0  0
 19 33  1  0  0  0
 19 34  1  0  0  0
M  END
> <i_i_glide_confnum>
5

> <i_i_glide_lignum>
6152

> <i_i_glide_posenum>
160

> <i_i_glide_rotatable_bonds>
2

> <i_m_Source_File_Index>
2816

> <b_m_subgroup_collapsed>
0

> <r_i_docking_score>
-5.8981

> <r_i_glide_ecoul>
0.572374

> <r_i_glide_eff_state_penalty>
0

> <r_i_glide_einternal>
5.18486

> <r_i_glide_emodel>
-42.5083

> <r_i_glide_energy>
-32.5278

> <r_i_glide_erotb>
0.273773

> <r_i_glide_esite>
0

> <r_i_glide_evdw>
-33.1002

> <r_i_glide_gscore>
-5.8981

> <r_i_glide_hbond>
0

> <r_i_glide_ligand_efficiency>
-0.310426

> <r_i_glide_ligand_efficiency_ln>
-1.4953

> <r_i_glide_ligand_efficiency_sa>
-0.828342

> <r_i_glide_lipo>
-2.39398

> <r_i_glide_metal>
0

> <r_i_glide_rewards>
-2.20874

> <s_i_glide_gridfile>
wee1_glide-grid

> <s_m_Source_File>
wee1_decoys_glide_SP.sdf

> <s_m_Source_Path>
/Users/zhangxujun/Desktop

> <s_m_entry_id>
3091

> <s_m_entry_name>
wee1_decoys_glide_SP.2816

> <s_m_subgroup_title>
wee1_decoys_glide_SP

> <s_m_subgroupid>
wee1_decoys_glide_SP


$$$$
