ZINC08695872_3148
                    3D
 Schrodinger Suite 2024-2.
 73 76  0  0  1  0            999 V2000
   -2.1498   51.0086   26.4663 C   0  0  0  0  0  0
   -1.1105   50.8814   25.2998 C   0  0  0  0  0  0
   -0.9536   49.3364   25.1220 C   0  0  0  0  0  0
    0.2324   51.4923   25.8412 C   0  0  0  0  0  0
    0.7052   51.0176   26.8758 O   0  0  0  0  0  0
    0.8249   52.5076   25.1636 N   0  0  0  0  0  0
    2.0195   53.1894   25.4662 C   0  0  0  0  0  0
    2.6946   53.7756   24.3984 C   0  0  0  0  0  0
    3.9302   54.3882   24.5998 C   0  0  0  0  0  0
    4.5142   54.4436   25.8758 C   0  0  0  0  0  0
    3.7886   53.9101   26.9525 C   0  0  0  0  0  0
    2.5532   53.2968   26.7565 C   0  0  0  0  0  0
    5.8014   55.0185   26.0728 N   0  0  0  0  0  0
    6.5352   55.6021   24.9510 C   0  0  0  0  0  0
    6.5092   54.8371   27.3391 C   0  0  0  0  0  0
   -1.5494   51.6225   24.0363 N   0  0  0  0  0  0
   -2.3830   52.8373   24.2665 C   0  0  0  0  0  0
   -3.8736   52.6552   24.5690 C   0  0  0  0  0  0
   -4.4956   53.5987   25.3979 C   0  0  0  0  0  0
   -5.8405   53.4707   25.7398 C   0  0  0  0  0  0
   -6.5817   52.3931   25.2570 C   0  0  0  0  0  0
   -5.9756   51.4490   24.4303 C   0  0  0  0  0  0
   -4.6307   51.5761   24.0816 C   0  0  0  0  0  0
   -4.0813   50.6434   23.2700 F   0  0  0  0  0  0
   -1.1705   51.3904   22.7290 C   0  0  0  0  0  0
   -1.5975   52.0971   21.8090 O   0  0  0  0  0  0
   -0.1740   50.2572   22.3635 C   0  0  0  0  0  0
    0.3177   50.3151   20.9626 N   0  0  0  0  0  0
   -0.5936   50.0552   19.8502 C   0  0  0  0  0  0
    0.3372   49.8231   18.6807 C   0  0  1  0  0  0
    0.0038   50.4328   17.8391 H   0  0  0  0  0  0
    1.5566   50.3978   19.1925 N   0  0  0  0  0  0
    1.5595   50.7024   20.5169 C   0  0  0  0  0  0
    2.8431   51.3622   21.3371 S   0  0  0  0  0  0
    0.5060   48.3877   18.1810 C   0  0  0  0  0  0
    0.6003   47.3156   19.0758 C   0  0  0  0  0  0
    0.7046   46.0128   18.5950 C   0  0  0  0  0  0
    0.7208   45.7829   17.2210 C   0  0  0  0  0  0
    0.6299   46.8431   16.3219 C   0  0  0  0  0  0
    0.5164   48.1447   16.8025 C   0  0  0  0  0  0
   -1.8204   50.4965   27.3714 H   0  0  0  0  0  0
   -2.3348   52.0335   26.7846 H   0  0  0  0  0  0
   -3.1056   50.5560   26.2049 H   0  0  0  0  0  0
   -0.9351   48.8138   26.0811 H   0  0  0  0  0  0
   -1.7870   48.9128   24.5581 H   0  0  0  0  0  0
   -0.0183   49.0331   24.6510 H   0  0  0  0  0  0
    0.4108   52.7453   24.2758 H   0  0  0  0  0  0
    2.2928   53.7243   23.3965 H   0  0  0  0  0  0
    4.4322   54.7925   23.7362 H   0  0  0  0  0  0
    4.1777   53.9416   27.9568 H   0  0  0  0  0  0
    2.0413   52.8923   27.6154 H   0  0  0  0  0  0
    5.9339   56.3789   24.4817 H   0  0  0  0  0  0
    6.7606   54.8473   24.1977 H   0  0  0  0  0  0
    7.4774   56.0577   25.2538 H   0  0  0  0  0  0
    6.6298   53.7757   27.5561 H   0  0  0  0  0  0
    7.5010   55.2900   27.3270 H   0  0  0  0  0  0
    5.9480   55.2872   28.1598 H   0  0  0  0  0  0
   -1.9320   53.3310   25.1252 H   0  0  0  0  0  0
   -2.3057   53.5686   23.4610 H   0  0  0  0  0  0
   -3.9344   54.4328   25.7947 H   0  0  0  0  0  0
   -6.3104   54.1977   26.3856 H   0  0  0  0  0  0
   -7.6239   52.2864   25.5234 H   0  0  0  0  0  0
   -6.5473   50.6157   24.0495 H   0  0  0  0  0  0
    0.6716   50.2766   23.0515 H   0  0  0  0  0  0
   -0.6837   49.3014   22.4719 H   0  0  0  0  0  0
   -1.2447   49.2028   20.0431 H   0  0  0  0  0  0
   -1.2234   50.9258   19.6658 H   0  0  0  0  0  0
    2.3865   50.5489   18.6320 H   0  0  0  0  0  0
    0.5932   47.4942   20.1419 H   0  0  0  0  0  0
    0.7783   45.1823   19.2815 H   0  0  0  0  0  0
    0.8112   44.7737   16.8489 H   0  0  0  0  0  0
    0.6504   46.6574   15.2577 H   0  0  0  0  0  0
    0.4453   48.9622   16.0997 H   0  0  0  0  0  0
  1  2  1  0  0  0
  1 41  1  0  0  0
  1 42  1  0  0  0
  1 43  1  0  0  0
  2  3  1  0  0  0
  2  4  1  0  0  0
  2 16  1  0  0  0
  3 44  1  0  0  0
  3 45  1  0  0  0
  3 46  1  0  0  0
  4  5  2  0  0  0
  4  6  1  0  0  0
  6  7  1  0  0  0
  6 47  1  0  0  0
  7 12  2  0  0  0
  7  8  1  0  0  0
  8  9  2  0  0  0
  8 48  1  0  0  0
  9 10  1  0  0  0
  9 49  1  0  0  0
 10 11  2  0  0  0
 10 13  1  0  0  0
 11 12  1  0  0  0
 11 50  1  0  0  0
 12 51  1  0  0  0
 13 14  1  0  0  0
 13 15  1  0  0  0
 14 52  1  0  0  0
 14 53  1  0  0  0
 14 54  1  0  0  0
 15 55  1  0  0  0
 15 56  1  0  0  0
 15 57  1  0  0  0
 16 17  1  0  0  0
 16 25  1  0  0  0
 17 18  1  0  0  0
 17 58  1  0  0  0
 17 59  1  0  0  0
 18 23  2  0  0  0
 18 19  1  0  0  0
 19 20  2  0  0  0
 19 60  1  0  0  0
 20 21  1  0  0  0
 20 61  1  0  0  0
 21 22  2  0  0  0
 21 62  1  0  0  0
 22 23  1  0  0  0
 22 63  1  0  0  0
 23 24  1  0  0  0
 25 26  2  0  0  0
 25 27  1  0  0  0
 27 28  1  0  0  0
 27 64  1  0  0  0
 27 65  1  0  0  0
 28 33  1  0  0  0
 28 29  1  0  0  0
 29 30  1  0  0  0
 29 66  1  0  0  0
 29 67  1  0  0  0
 30 31  1  0  0  0
 30 32  1  0  0  0
 30 35  1  0  0  0
 32 33  1  0  0  0
 32 68  1  0  0  0
 33 34  2  0  0  0
 35 40  2  0  0  0
 35 36  1  0  0  0
 36 37  2  0  0  0
 36 69  1  0  0  0
 37 38  1  0  0  0
 37 70  1  0  0  0
 38 39  2  0  0  0
 38 71  1  0  0  0
 39 40  1  0  0  0
 39 72  1  0  0  0
 40 73  1  0  0  0
M  END
> <i_i_glide_confnum>
305

> <i_i_glide_lignum>
3149

> <i_i_glide_posenum>
400

> <i_i_glide_rotatable_bonds>
11

> <i_m_Source_File_Index>
1601

> <b_m_subgroup_collapsed>
0

> <r_i_docking_score>
-4.86489

> <r_i_glide_ecoul>
-2.05941

> <r_i_glide_eff_state_penalty>
0

> <r_i_glide_einternal>
9.39447

> <r_i_glide_emodel>
-57.8855

> <r_i_glide_energy>
-47.7001

> <r_i_glide_erotb>
0.621599

> <r_i_glide_esite>
-0.0447203

> <r_i_glide_evdw>
-45.6407

> <r_i_glide_gscore>
-4.86489

> <r_i_glide_hbond>
0

> <r_i_glide_ligand_efficiency>
-0.124741

> <r_i_glide_ligand_efficiency_ln>
-1.04317

> <r_i_glide_ligand_efficiency_sa>
-0.423023

> <r_i_glide_lipo>
-2.37903

> <r_i_glide_metal>
0

> <r_i_glide_rewards>
-0.471792

> <s_i_glide_gridfile>
wee1_glide-grid

> <s_m_Source_File>
wee1_decoys_glide_SP.sdf

> <s_m_Source_Path>
/Users/zhangxujun/Desktop

> <s_m_entry_id>
1876

> <s_m_entry_name>
wee1_decoys_glide_SP.1601

> <s_m_subgroup_title>
wee1_decoys_glide_SP

> <s_m_subgroupid>
wee1_decoys_glide_SP


$$$$
