@<TRIPOS>MOLECULE
ZINC20720297_3927
60   65    1
SMALL
USER_CHARGES


@<TRIPOS>ATOM
      1 C1         -0.4594   52.1781   29.6783 C.3       1 UNK         0.0000 
      2 C2          0.8359   51.7919   28.9461 C.3       1 UNK         0.0000 
      3 H3          1.1977   50.8976   29.4493 H         1 UNK         0.0000 
      4 C4          1.9730   52.8150   29.0876 C.ar      1 UNK         0.0000 
      5 C5          3.2892   52.3517   29.1370 C.ar      1 UNK         0.0000 
      6 C6          4.3455   53.2462   29.2360 C.ar      1 UNK         0.0000 
      7 C7          4.0885   54.6104   29.3025 C.ar      1 UNK         0.0000 
      8 C8          2.7812   55.0898   29.2820 C.ar      1 UNK         0.0000 
      9 C9          1.7224   54.1920   29.1833 C.ar      1 UNK         0.0000 
     10 N10         0.5481   51.3196   27.5863 N.am      1 UNK         0.0000 
     11 C11         0.5936   52.0011   26.4224 C.2       1 UNK         0.0000 
     12 O12         1.1043   53.1159   26.3253 O.2       1 UNK         0.0000 
     13 C13         0.0010   51.2919   25.2112 C.ar      1 UNK         0.0000 
     14 C14        -0.9607   50.2862   25.4182 C.ar      1 UNK         0.0000 
     15 C15        -1.5140   49.5882   24.3564 C.ar      1 UNK         0.0000 
     16 C16        -1.1077   49.8691   23.0616 C.ar      1 UNK         0.0000 
     17 C17        -0.1454   50.8482   22.7918 C.ar      1 UNK         0.0000 
     18 C18         0.3808   51.5940   23.8734 C.ar      1 UNK         0.0000 
     19 N19         1.3696   52.5660   23.5961 N.pl3     1 UNK         0.0000 
     20 C20         2.3042   52.2607   22.5153 C.3       1 UNK         0.0000 
     21 H21         2.7116   51.2871   22.7895 H         1 UNK         0.0000 
     22 C22         1.5214   52.0255   21.1903 C.3       1 UNK         0.0000 
     23 H23         1.1736   53.0003   20.8453 H         1 UNK         0.0000 
     24 C24         0.2787   51.1169   21.3421 C.3       1 UNK         0.0000 
     25 H25        -0.5781   51.5940   20.8644 H         1 UNK         0.0000 
     26 C26         0.6380   49.8696   20.5528 C.2       1 UNK         0.0000 
     27 C27         1.7665   50.0259   19.8477 C.2       1 UNK         0.0000 
     28 C28         2.3786   51.3838   20.0771 C.3       1 UNK         0.0000 
     29 C29         3.4887   53.2433   22.4295 C.ar      1 UNK         0.0000 
     30 C30         4.1125   53.7228   21.2844 C.ar      1 UNK         0.0000 
     31 N31         5.2459   54.4255   21.5913 N.pl3     1 UNK         0.0000 
     32 H32         5.8545   54.8159   20.8867 H         1 UNK         0.0000 
     33 C33         5.3872   54.4958   22.9548 C.ar      1 UNK         0.0000 
     34 C34         4.2524   53.8279   23.5177 C.ar      1 UNK         0.0000 
     35 C35         4.1299   53.8286   24.9190 C.ar      1 UNK         0.0000 
     36 C36         5.0965   54.4604   25.6974 C.ar      1 UNK         0.0000 
     37 C37         6.1993   55.0735   25.1176 C.ar      1 UNK         0.0000 
     38 C38         6.3822   55.0956   23.7367 C.ar      1 UNK         0.0000 
     39 H39        -0.2782   52.3712   30.7365 H         1 UNK         0.0000 
     40 H40        -0.8955   53.0721   29.2420 H         1 UNK         0.0000 
     41 H41        -1.2031   51.3812   29.6202 H         1 UNK         0.0000 
     42 H42         3.4998   51.2973   29.0688 H         1 UNK         0.0000 
     43 H43         5.3625   52.8846   29.2467 H         1 UNK         0.0000 
     44 H44         4.9173   55.2989   29.3731 H         1 UNK         0.0000 
     45 H45         2.5897   56.1520   29.3321 H         1 UNK         0.0000 
     46 H46         0.7165   54.5795   29.1437 H         1 UNK         0.0000 
     47 H47         0.0586   50.4361   27.5540 H         1 UNK         0.0000 
     48 H48        -1.3058   50.0224   26.4099 H         1 UNK         0.0000 
     49 H49        -2.2544   48.8234   24.5421 H         1 UNK         0.0000 
     50 H50        -1.5502   49.3093   22.2506 H         1 UNK         0.0000 
     51 H51         1.7709   53.0646   24.3785 H         1 UNK         0.0000 
     52 H52         0.0064   48.9941   20.5327 H         1 UNK         0.0000 
     53 H53         2.2182   49.3034   19.1823 H         1 UNK         0.0000 
     54 H54         2.3543   51.9695   19.1575 H         1 UNK         0.0000 
     55 H55         3.4215   51.2520   20.3664 H         1 UNK         0.0000 
     56 H56         3.8646   53.5762   20.2427 H         1 UNK         0.0000 
     57 H57         3.3169   53.3180   25.4042 H         1 UNK         0.0000 
     58 H58         4.9990   54.4561   26.7712 H         1 UNK         0.0000 
     59 H59         6.9233   55.5485   25.7601 H         1 UNK         0.0000 
     60 H60         7.2404   55.5839   23.2969 H         1 UNK         0.0000 
@<TRIPOS>BOND
     1    1    2 1    
     2    1   39 1    
     3    1   40 1    
     4    1   41 1    
     5    2    3 1    
     6    2    4 1    
     7    2   10 1    
     8    4    9 ar   
     9    4    5 ar   
    10    5    6 ar   
    11    5   42 1    
    12    6    7 ar   
    13    6   43 1    
    14    7    8 ar   
    15    7   44 1    
    16    8    9 ar   
    17    8   45 1    
    18    9   46 1    
    19   10   11 am   BACKBONE|DICT|INTERRES
    20   10   47 1    
    21   11   12 2    
    22   11   13 1    
    23   13   18 ar   
    24   13   14 ar   
    25   14   15 ar   
    26   14   48 1    
    27   15   16 ar   
    28   15   49 1    
    29   16   17 ar   
    30   16   50 1    
    31   17   24 1    
    32   17   18 ar   
    33   18   19 1    
    34   19   20 1    
    35   19   51 1    
    36   20   21 1    
    37   20   22 1    
    38   20   29 1    
    39   22   23 1    
    40   22   28 1    
    41   22   24 1    
    42   24   25 1    
    43   24   26 1    
    44   26   27 2    
    45   26   52 1    
    46   27   28 1    
    47   27   53 1    
    48   28   54 1    
    49   28   55 1    
    50   29   34 ar   
    51   29   30 ar   
    52   30   31 ar   
    53   30   56 1    
    54   31   32 1    
    55   31   33 ar   
    56   33   38 ar   
    57   33   34 ar   
    58   34   35 ar   
    59   35   36 ar   
    60   35   57 1    
    61   36   37 ar   
    62   36   58 1    
    63   37   38 ar   
    64   37   59 1    
    65   38   60 1    
@<TRIPOS>SUBSTRUCTURE
     1 UNK         1 GROUP             0       ****    0 ROOT    
