@<TRIPOS>MOLECULE
ZINC04100113_5014
49   52    1
SMALL
USER_CHARGES


@<TRIPOS>ATOM
      1 C1          2.4017   53.5726   27.5979 C.ar      1 UNK         0.0000 
      2 C2          1.8389   53.4416   26.3386 C.ar      1 UNK         0.0000 
      3 C3          2.5882   53.6913   25.1937 C.ar      1 UNK         0.0000 
      4 C4          3.9758   54.0423   25.2675 C.ar      1 UNK         0.0000 
      5 C5          4.5360   54.1652   26.5844 C.ar      1 UNK         0.0000 
      6 C6          3.7334   53.9392   27.7307 C.ar      1 UNK         0.0000 
      7 C7          5.8941   54.4962   26.7385 C.ar      1 UNK         0.0000 
      8 C8          6.6916   54.6740   25.6251 C.ar      1 UNK         0.0000 
      9 C9          6.1873   54.5473   24.3418 C.ar      1 UNK         0.0000 
     10 C10         4.8236   54.2430   24.1063 C.ar      1 UNK         0.0000 
     11 C11         4.2875   54.0950   22.7219 C.2       1 UNK         0.0000 
     12 N12         4.8933   54.4694   21.6689 N.2       1 UNK         0.0000 
     13 N13         4.3044   54.2196   20.4620 N.pl3     1 UNK         0.0000 
     14 C14         4.2087   53.0030   19.9050 C.2       1 UNK         0.0000 
     15 N15         4.3050   52.8961   18.5847 N.pl3     1 UNK         0.0000 
     16 S16         3.9267   51.5227   20.8147 S.3       1 UNK         0.0000 
     17 C17         2.3780   50.8744   20.0869 C.3       1 UNK         0.0000 
     18 H18         2.6055   50.4804   19.0941 H         1 UNK         0.0000 
     19 C19         1.2822   51.9051   20.0477 C.3       1 UNK         0.0000 
     20 C20         0.2489   51.4430   21.0562 C.2       1 UNK         0.0000 
     21 O21        -0.7491   52.0933   21.3710 O.2       1 UNK         0.0000 
     22 N22         0.6274   50.2196   21.5104 N.am      1 UNK         0.0000 
     23 C23         1.7922   49.7763   20.9643 C.2       1 UNK         0.0000 
     24 O24         2.3044   48.6719   21.1350 O.2       1 UNK         0.0000 
     25 C25        -0.1250   49.4438   22.4174 C.ar      1 UNK         0.0000 
     26 C26        -1.3306   48.8624   22.0061 C.ar      1 UNK         0.0000 
     27 C27        -2.0147   48.0064   22.8659 C.ar      1 UNK         0.0000 
     28 C28        -1.4978   47.7349   24.1316 C.ar      1 UNK         0.0000 
     29 C29        -0.3193   48.3409   24.5608 C.ar      1 UNK         0.0000 
     30 C30         0.3693   49.1969   23.7049 C.ar      1 UNK         0.0000 
     31 Br31       -2.3901   46.4990   25.2722 Br        1 UNK         0.0000 
     32 O32         7.1044   54.7222   23.3342 O.3       1 UNK         0.0000 
     33 H33         1.8009   53.3855   28.4763 H         1 UNK         0.0000 
     34 H34         0.8013   53.1542   26.2475 H         1 UNK         0.0000 
     35 H35         2.0817   53.5884   24.2485 H         1 UNK         0.0000 
     36 H36         4.1687   54.0340   28.7154 H         1 UNK         0.0000 
     37 H37         6.3162   54.5912   27.7300 H         1 UNK         0.0000 
     38 H38         7.7319   54.8964   25.7603 H         1 UNK         0.0000 
     39 H39         3.3239   53.6034   22.6462 H         1 UNK         0.0000 
     40 H40         4.4271   54.9700   19.7977 H         1 UNK         0.0000 
     41 H41         4.4901   51.9640   18.2006 H         1 UNK         0.0000 
     42 H42         1.6297   52.9026   20.3003 H         1 UNK         0.0000 
     43 H43         0.8183   51.9577   19.0615 H         1 UNK         0.0000 
     44 H44        -1.7207   49.0464   21.0152 H         1 UNK         0.0000 
     45 H45        -2.9336   47.5388   22.5446 H         1 UNK         0.0000 
     46 H46         0.0716   48.1219   25.5459 H         1 UNK         0.0000 
     47 H47         1.3053   49.6285   24.0312 H         1 UNK         0.0000 
     48 H48         8.0165   54.8968   23.6167 H         1 UNK         0.0000 
     49 H49         4.4213   53.7068   17.9947 H         1 UNK         0.0000 
@<TRIPOS>BOND
     1    1    6 ar   
     2    1    2 ar   
     3    1   33 1    
     4    2    3 ar   
     5    2   34 1    
     6    3    4 ar   
     7    3   35 1    
     8    4   10 ar   
     9    4    5 ar   
    10    5    6 ar   
    11    5    7 ar   
    12    6   36 1    
    13    7    8 ar   
    14    7   37 1    
    15    8    9 ar   
    16    8   38 1    
    17    9   10 ar   
    18    9   32 1    
    19   10   11 1    
    20   11   12 2    
    21   11   39 1    
    22   12   13 1    
    23   13   14 1    
    24   13   40 1    
    25   14   15 2    
    26   14   16 1    
    27   15   41 1    
    28   15   49 1    
    29   16   17 1    
    30   17   18 1    
    31   17   23 1    
    32   17   19 1    
    33   19   20 1    
    34   19   42 1    
    35   19   43 1    
    36   20   21 2    
    37   20   22 am   BACKBONE|DICT|INTERRES
    38   22   23 am   BACKBONE|DICT|INTERRES
    39   22   25 1    
    40   23   24 2    
    41   25   30 ar   
    42   25   26 ar   
    43   26   27 ar   
    44   26   44 1    
    45   27   28 ar   
    46   27   45 1    
    47   28   29 ar   
    48   28   31 1    
    49   29   30 ar   
    50   29   46 1    
    51   30   47 1    
    52   32   48 1    
@<TRIPOS>SUBSTRUCTURE
     1 UNK         1 GROUP             0       ****    0 ROOT    
