@<TRIPOS>MOLECULE
ZINC66164443_4606
52   54    1
SMALL
USER_CHARGES


@<TRIPOS>ATOM
      1 C1          2.2900   54.0664   23.8024 C.3       1 UNK         0.0000 
      2 C2          3.7284   54.0890   24.3105 C.ar      1 UNK         0.0000 
      3 C3          3.9541   54.0977   25.6928 C.ar      1 UNK         0.0000 
      4 C4          5.2476   54.0996   26.2183 C.ar      1 UNK         0.0000 
      5 C5          6.3307   54.0999   25.3322 C.ar      1 UNK         0.0000 
      6 C6          6.1249   54.0971   23.9599 C.ar      1 UNK         0.0000 
      7 C7          4.8240   54.0971   23.4270 C.ar      1 UNK         0.0000 
      8 N8          4.5837   54.0970   22.0347 N.am      1 UNK         0.0000 
      9 C9          5.3688   54.6279   21.0758 C.2       1 UNK         0.0000 
     10 O10         6.4494   55.1774   21.2843 O.2       1 UNK         0.0000 
     11 N11         4.8243   54.5007   19.8511 N.am      1 UNK         0.0000 
     12 C12         5.5330   54.4518   18.5608 C.3       1 UNK         0.0000 
     13 H13         5.9263   53.4346   18.4813 H         1 UNK         0.0000 
     14 C14         4.5281   54.6150   17.4094 C.3       1 UNK         0.0000 
     15 C15         6.7195   55.4212   18.4299 C.ar      1 UNK         0.0000 
     16 C16         6.5203   56.8041   18.3565 C.ar      1 UNK         0.0000 
     17 C17         7.6107   57.6713   18.3151 C.ar      1 UNK         0.0000 
     18 C18         8.9158   57.1549   18.3505 C.ar      1 UNK         0.0000 
     19 C19         9.1091   55.7742   18.3997 C.ar      1 UNK         0.0000 
     20 C20         8.0203   54.9110   18.4265 C.ar      1 UNK         0.0000 
     21 N21        10.0911   57.9268   18.3361 N.am      1 UNK         0.0000 
     22 C22        10.2675   59.2636   18.3869 C.2       1 UNK         0.0000 
     23 O23         9.3686   60.0968   18.4825 O.2       1 UNK         0.0000 
     24 C24        11.7132   59.7861   18.3333 C.3       1 UNK         0.0000 
     25 C25        12.4166   59.9527   19.6540 C.3       1 UNK         0.0000 
     26 C26        12.8457   58.8454   18.6911 C.3       1 UNK         0.0000 
     27 O27         5.3712   54.0876   27.5945 O.3       1 UNK         0.0000 
     28 C28         6.6768   54.0248   28.1609 C.3       1 UNK         0.0000 
     29 H29         1.5605   54.1323   24.6101 H         1 UNK         0.0000 
     30 H30         2.1104   54.8965   23.1216 H         1 UNK         0.0000 
     31 H31         2.1041   53.1472   23.2478 H         1 UNK         0.0000 
     32 H32         3.1209   54.0858   26.3779 H         1 UNK         0.0000 
     33 H33         7.3480   54.0980   25.6897 H         1 UNK         0.0000 
     34 H34         6.9981   54.0785   23.3228 H         1 UNK         0.0000 
     35 H35         3.6690   53.7821   21.7550 H         1 UNK         0.0000 
     36 H36         3.8534   54.2285   19.8070 H         1 UNK         0.0000 
     37 H37         5.0137   54.5011   16.4403 H         1 UNK         0.0000 
     38 H38         3.7407   53.8623   17.4628 H         1 UNK         0.0000 
     39 H39         4.0459   55.5939   17.4259 H         1 UNK         0.0000 
     40 H40         5.5203   57.2127   18.3593 H         1 UNK         0.0000 
     41 H41         7.4144   58.7317   18.2604 H         1 UNK         0.0000 
     42 H42        10.1050   55.3557   18.4324 H         1 UNK         0.0000 
     43 H43         8.1956   53.8472   18.4833 H         1 UNK         0.0000 
     44 H44        10.9372   57.3778   18.3057 H         1 UNK         0.0000 
     45 H45        11.8822   60.5275   17.5538 H         1 UNK         0.0000 
     46 H46        11.8812   59.6970   20.5709 H         1 UNK         0.0000 
     47 H47        13.0723   60.8127   19.7903 H         1 UNK         0.0000 
     48 H48        13.7847   58.9459   18.1481 H         1 UNK         0.0000 
     49 H49        12.6557   57.8077   18.9706 H         1 UNK         0.0000 
     50 H50         6.6096   54.0972   29.2427 H         1 UNK         0.0000 
     51 H51         7.1736   53.0873   27.9156 H         1 UNK         0.0000 
     52 H52         7.2957   54.8513   27.8121 H         1 UNK         0.0000 
@<TRIPOS>BOND
     1    1    2 1    
     2    1   29 1    
     3    1   30 1    
     4    1   31 1    
     5    2    7 ar   
     6    2    3 ar   
     7    3    4 ar   
     8    3   32 1    
     9    4    5 ar   
    10    4   27 1    
    11    5    6 ar   
    12    5   33 1    
    13    6    7 ar   
    14    6   34 1    
    15    7    8 1    
    16    8    9 am   BACKBONE|DICT|INTERRES
    17    8   35 1    
    18    9   10 2    
    19    9   11 am   BACKBONE|DICT|INTERRES
    20   11   12 1    
    21   11   36 1    
    22   12   13 1    
    23   12   14 1    
    24   12   15 1    
    25   14   37 1    
    26   14   38 1    
    27   14   39 1    
    28   15   20 ar   
    29   15   16 ar   
    30   16   17 ar   
    31   16   40 1    
    32   17   18 ar   
    33   17   41 1    
    34   18   19 ar   
    35   18   21 1    
    36   19   20 ar   
    37   19   42 1    
    38   20   43 1    
    39   21   22 am   BACKBONE|DICT|INTERRES
    40   21   44 1    
    41   22   23 2    
    42   22   24 1    
    43   24   26 1    
    44   24   25 1    
    45   24   45 1    
    46   25   26 1    
    47   25   46 1    
    48   25   47 1    
    49   26   48 1    
    50   26   49 1    
    51   27   28 1    
    52   28   50 1    
    53   28   51 1    
    54   28   52 1    
@<TRIPOS>SUBSTRUCTURE
     1 UNK         1 GROUP             0       ****    0 ROOT    
