@<TRIPOS>MOLECULE
ZINC35724966_3435
61   63    1
SMALL
USER_CHARGES


@<TRIPOS>ATOM
      1 C1          2.6816   55.6649   16.1434 C.3       1 UNK         0.0000 
      2 C2          2.4844   54.7735   17.3786 C.3       1 UNK         0.0000 
      3 C3          2.8499   53.2854   17.1511 C.3       1 UNK         0.0000 
      4 H4          2.3510   53.0115   16.2196 H         1 UNK         0.0000 
      5 C5          4.3592   53.1176   16.8547 C.3       1 UNK         0.0000 
      6 C6          2.2318   52.3107   18.2236 C.3       1 UNK         0.0000 
      7 H7          1.1731   52.5760   18.2798 H         1 UNK         0.0000 
      8 C8          2.7527   52.4533   19.6835 C.2       1 UNK         0.0000 
      9 O9          2.1688   51.8014   20.5536 O.2       1 UNK         0.0000 
     10 N10         3.7788   53.2979   19.9337 N.am      1 UNK         0.0000 
     11 C11         4.3007   53.6241   21.1790 C.2       1 UNK         0.0000 
     12 N12         5.4887   54.1547   21.3287 N.2       1 UNK         0.0000 
     13 N13         5.8047   54.3970   22.6597 N.2       1 UNK         0.0000 
     14 C14         4.8289   54.0967   23.4886 C.2       1 UNK         0.0000 
     15 S15         3.4136   53.4855   22.6735 S.3       1 UNK         0.0000 
     16 C16         4.8714   54.2601   24.9795 C.ar      1 UNK         0.0000 
     17 C17         3.6905   54.1705   25.7305 C.ar      1 UNK         0.0000 
     18 C18         3.7234   54.2840   27.1149 C.ar      1 UNK         0.0000 
     19 C19         4.9378   54.4872   27.7665 C.ar      1 UNK         0.0000 
     20 C20         6.1197   54.5995   27.0323 C.ar      1 UNK         0.0000 
     21 C21         6.0860   54.4889   25.6422 C.ar      1 UNK         0.0000 
     22 C22         4.9453   54.5674   29.2787 C.3       1 UNK         0.0000 
     23 N23         2.3037   50.9085   17.7898 N.am      1 UNK         0.0000 
     24 C24         1.3965   49.9488   18.0362 C.2       1 UNK         0.0000 
     25 O25         0.2632   50.1691   18.4614 O.2       1 UNK         0.0000 
     26 N26         1.8988   48.7366   17.7253 N.am      1 UNK         0.0000 
     27 C27         1.2655   47.4754   17.7781 C.ar      1 UNK         0.0000 
     28 C28         0.2450   47.2037   18.7051 C.ar      1 UNK         0.0000 
     29 C29        -0.3564   45.9518   18.7502 C.ar      1 UNK         0.0000 
     30 C30         0.0540   44.9510   17.8780 C.ar      1 UNK         0.0000 
     31 C31         1.0748   45.1871   16.9508 C.ar      1 UNK         0.0000 
     32 C32         1.6947   46.4543   16.8978 C.ar      1 UNK         0.0000 
     33 C33         2.8201   46.7233   15.8966 C.3       1 UNK         0.0000 
     34 C34         1.5044   44.0362   16.0501 C.3       1 UNK         0.0000 
     35 H35         2.0585   56.5584   16.2044 H         1 UNK         0.0000 
     36 H36         3.7172   55.9976   16.0579 H         1 UNK         0.0000 
     37 H37         2.4220   55.1462   15.2203 H         1 UNK         0.0000 
     38 H38         1.4371   54.8458   17.6814 H         1 UNK         0.0000 
     39 H39         3.0666   55.1887   18.2007 H         1 UNK         0.0000 
     40 H40         5.0034   53.3931   17.6891 H         1 UNK         0.0000 
     41 H41         4.5953   52.0941   16.5843 H         1 UNK         0.0000 
     42 H42         4.6623   53.7320   16.0074 H         1 UNK         0.0000 
     43 H43         4.2460   53.6925   19.1323 H         1 UNK         0.0000 
     44 H44         2.7359   54.0014   25.2583 H         1 UNK         0.0000 
     45 H45         2.8069   54.1983   27.6796 H         1 UNK         0.0000 
     46 H46         7.0614   54.7566   27.5382 H         1 UNK         0.0000 
     47 H47         7.0065   54.5565   25.0809 H         1 UNK         0.0000 
     48 H48         4.1827   55.2709   29.6209 H         1 UNK         0.0000 
     49 H49         4.7026   53.5867   29.6891 H         1 UNK         0.0000 
     50 H50         5.9045   54.8981   29.6755 H         1 UNK         0.0000 
     51 H51         3.2074   50.6079   17.4368 H         1 UNK         0.0000 
     52 H52         2.8221   48.7550   17.2806 H         1 UNK         0.0000 
     53 H53        -0.0833   47.9557   19.4080 H         1 UNK         0.0000 
     54 H54        -1.1407   45.7591   19.4655 H         1 UNK         0.0000 
     55 H55        -0.4193   43.9827   17.9308 H         1 UNK         0.0000 
     56 H56         2.6880   47.6937   15.4177 H         1 UNK         0.0000 
     57 H57         2.8704   45.9996   15.0841 H         1 UNK         0.0000 
     58 H58         3.7755   46.7384   16.4205 H         1 UNK         0.0000 
     59 H59         1.0338   43.0927   16.3311 H         1 UNK         0.0000 
     60 H60         1.2524   44.2522   15.0112 H         1 UNK         0.0000 
     61 H61         2.5841   43.8877   16.1111 H         1 UNK         0.0000 
@<TRIPOS>BOND
     1    1    2 1    
     2    1   35 1    
     3    1   36 1    
     4    1   37 1    
     5    2    3 1    
     6    2   38 1    
     7    2   39 1    
     8    3    4 1    
     9    3    5 1    
    10    3    6 1    
    11    5   40 1    
    12    5   41 1    
    13    5   42 1    
    14    6    7 1    
    15    6    8 1    
    16    6   23 1    
    17    8    9 2    
    18    8   10 am   BACKBONE|DICT|INTERRES
    19   10   11 am   BACKBONE|DICT|INTERRES
    20   10   43 1    
    21   11   15 1    
    22   11   12 2    
    23   12   13 1    
    24   13   14 2    
    25   14   15 1    
    26   14   16 1    
    27   16   21 ar   
    28   16   17 ar   
    29   17   18 ar   
    30   17   44 1    
    31   18   19 ar   
    32   18   45 1    
    33   19   20 ar   
    34   19   22 1    
    35   20   21 ar   
    36   20   46 1    
    37   21   47 1    
    38   22   48 1    
    39   22   49 1    
    40   22   50 1    
    41   23   24 am   BACKBONE|DICT|INTERRES
    42   23   51 1    
    43   24   25 2    
    44   24   26 am   BACKBONE|DICT|INTERRES
    45   26   27 1    
    46   26   52 1    
    47   27   32 ar   
    48   27   28 ar   
    49   28   29 ar   
    50   28   53 1    
    51   29   30 ar   
    52   29   54 1    
    53   30   31 ar   
    54   30   55 1    
    55   31   32 ar   
    56   31   34 1    
    57   32   33 1    
    58   33   56 1    
    59   33   57 1    
    60   33   58 1    
    61   34   59 1    
    62   34   60 1    
    63   34   61 1    
@<TRIPOS>SUBSTRUCTURE
     1 UNK         1 GROUP             0       ****    0 ROOT    
