@<TRIPOS>MOLECULE
ZINC67413689_6231
55   56    1
SMALL
USER_CHARGES


@<TRIPOS>ATOM
      1 C1          3.9912   54.1208   28.8498 C.3       1 UNK         0.0000 
      2 C2          4.2365   54.1200   27.3524 C.ar      1 UNK         0.0000 
      3 C3          5.5416   54.1216   26.8593 C.ar      1 UNK         0.0000 
      4 C4          5.7662   54.1110   25.4847 C.ar      1 UNK         0.0000 
      5 C5          4.6799   54.0975   24.5922 C.ar      1 UNK         0.0000 
      6 C6          3.3772   54.0858   25.0966 C.ar      1 UNK         0.0000 
      7 C7          3.1556   54.0962   26.4711 C.ar      1 UNK         0.0000 
      8 N8          4.7985   54.0971   23.1867 N.am      1 UNK         0.0000 
      9 C9          5.8472   54.4965   22.4364 C.2       1 UNK         0.0000 
     10 O10         6.9563   54.7888   22.8830 O.2       1 UNK         0.0000 
     11 N11         5.5048   54.6223   21.1350 N.am      1 UNK         0.0000 
     12 C12         5.9540   55.5769   20.2810 C.2       1 UNK         0.0000 
     13 O13         6.7187   56.4958   20.5991 O.2       1 UNK         0.0000 
     14 C14         5.4037   55.4981   18.8316 C.3       1 UNK         0.0000 
     15 H15         4.3235   55.3601   18.9168 H         1 UNK         0.0000 
     16 C16         6.0064   54.2967   18.0920 C.3       1 UNK         0.0000 
     17 N17         5.5357   56.8990   18.1510 N.4       1 UNK         0.0000 
     18 C18         4.4264   57.1127   17.0893 C.3       1 UNK         0.0000 
     19 C19         4.5214   58.5466   16.5258 C.3       1 UNK         0.0000 
     20 C20         5.9244   58.8751   15.9871 C.3       1 UNK         0.0000 
     21 C21         7.0272   58.6137   17.0384 C.3       1 UNK         0.0000 
     22 H22         6.8119   59.2663   17.8889 H         1 UNK         0.0000 
     23 C23         6.9393   57.1460   17.5326 C.3       1 UNK         0.0000 
     24 C24         8.4240   59.0058   16.4918 C.3       1 UNK         0.0000 
     25 N25         9.5387   58.5672   17.3357 N.am      1 UNK         0.0000 
     26 C26        10.1658   59.3137   18.2568 C.2       1 UNK         0.0000 
     27 O27         9.9039   60.4953   18.4815 O.2       1 UNK         0.0000 
     28 C28        11.2579   58.6175   19.0570 C.3       1 UNK         0.0000 
     29 H29         3.0436   53.6379   29.0944 H         1 UNK         0.0000 
     30 H30         3.9809   55.1411   29.2370 H         1 UNK         0.0000 
     31 H31         4.7688   53.5587   29.3675 H         1 UNK         0.0000 
     32 H32         6.3822   54.1285   27.5384 H         1 UNK         0.0000 
     33 H33         6.7879   54.0932   25.1399 H         1 UNK         0.0000 
     34 H34         2.5267   54.0723   24.4298 H         1 UNK         0.0000 
     35 H35         2.1431   54.0875   26.8478 H         1 UNK         0.0000 
     36 H36         3.9372   53.9028   22.6992 H         1 UNK         0.0000 
     37 H37         4.7516   54.0428   20.7998 H         1 UNK         0.0000 
     38 H38         5.7243   53.3582   18.5741 H         1 UNK         0.0000 
     39 H39         5.6348   54.2622   17.0674 H         1 UNK         0.0000 
     40 H40         7.0959   54.3530   18.0636 H         1 UNK         0.0000 
     41 H41         4.5506   56.3457   16.3229 H         1 UNK         0.0000 
     42 H42         3.4688   56.9810   17.5943 H         1 UNK         0.0000 
     43 H43         3.7889   58.6748   15.7275 H         1 UNK         0.0000 
     44 H44         4.2422   59.2817   17.2817 H         1 UNK         0.0000 
     45 H45         6.1231   58.2978   15.0825 H         1 UNK         0.0000 
     46 H46         5.9583   59.9201   15.6695 H         1 UNK         0.0000 
     47 H47         7.6704   56.9652   18.3209 H         1 UNK         0.0000 
     48 H48         7.0960   56.4209   16.7322 H         1 UNK         0.0000 
     49 H49         8.5718   58.5654   15.5040 H         1 UNK         0.0000 
     50 H50         8.4601   60.0872   16.3331 H         1 UNK         0.0000 
     51 H51         9.8738   57.6273   17.1846 H         1 UNK         0.0000 
     52 H52        11.5945   57.7012   18.5714 H         1 UNK         0.0000 
     53 H53        12.1193   59.2740   19.1787 H         1 UNK         0.0000 
     54 H54        10.8777   58.3562   20.0446 H         1 UNK         0.0000 
     55 H55         5.4014   57.5857   18.8821 H         1 UNK         0.0000 
@<TRIPOS>BOND
     1    1    2 1    
     2    1   29 1    
     3    1   30 1    
     4    1   31 1    
     5    2    7 ar   
     6    2    3 ar   
     7    3    4 ar   
     8    3   32 1    
     9    4    5 ar   
    10    4   33 1    
    11    5    6 ar   
    12    5    8 1    
    13    6    7 ar   
    14    6   34 1    
    15    7   35 1    
    16    8    9 am   BACKBONE|DICT|INTERRES
    17    8   36 1    
    18    9   10 2    
    19    9   11 am   BACKBONE|DICT|INTERRES
    20   11   12 am   BACKBONE|DICT|INTERRES
    21   11   37 1    
    22   12   13 2    
    23   12   14 1    
    24   14   15 1    
    25   14   16 1    
    26   14   17 1    
    27   16   38 1    
    28   16   39 1    
    29   16   40 1    
    30   17   23 1    
    31   17   18 1    
    32   17   55 1    
    33   18   19 1    
    34   18   41 1    
    35   18   42 1    
    36   19   20 1    
    37   19   43 1    
    38   19   44 1    
    39   20   21 1    
    40   20   45 1    
    41   20   46 1    
    42   21   22 1    
    43   21   23 1    
    44   21   24 1    
    45   23   47 1    
    46   23   48 1    
    47   24   25 1    
    48   24   49 1    
    49   24   50 1    
    50   25   26 am   BACKBONE|DICT|INTERRES
    51   25   51 1    
    52   26   27 2    
    53   26   28 1    
    54   28   52 1    
    55   28   53 1    
    56   28   54 1    
@<TRIPOS>SUBSTRUCTURE
     1 UNK         1 GROUP             0       ****    0 ROOT    
