ZINC38556198_2509
                    3D
 Schrodinger Suite 2024-2.
 47 50  0  0  1  0            999 V2000
    0.7038   54.6366   30.8819 C   0  0  0  0  0  0
    1.1589   55.1961   29.6942 C   0  0  0  0  0  0
    1.1042   54.4473   28.5233 C   0  0  0  0  0  0
    0.5888   53.1413   28.5284 C   0  0  0  0  0  0
    0.1551   52.5902   29.7413 C   0  0  0  0  0  0
    0.2302   53.3292   30.9175 C   0  0  0  0  0  0
    0.4937   52.3562   27.2726 C   0  0  0  0  0  0
   -0.2343   51.2558   27.0436 C   0  0  0  0  0  0
    0.1686   50.8470   25.6592 C   0  0  2  0  0  0
    0.7046   49.8988   25.7219 H   0  0  0  0  0  0
    1.1044   51.8717   25.2765 N   0  0  0  0  0  0
    1.2633   52.7002   26.2161 N   0  0  0  0  0  0
   -0.9929   50.6932   24.6240 C   0  0  1  0  0  0
   -1.6959   49.9540   25.0116 H   0  0  0  0  0  0
   -1.7038   51.9483   24.3763 N   0  0  0  0  0  0
   -1.7065   52.1373   22.9312 N   0  0  0  0  0  0
   -0.5060   51.4582   22.5087 C   0  0  1  0  0  0
    0.3613   52.0448   22.8179 H   0  0  0  0  0  0
   -0.5820   50.2494   23.2948 N   0  0  0  0  0  0
    0.4983   49.2970   23.1757 N   0  0  0  0  0  0
   -0.3450   51.2183   20.7139 S   0  0  0  0  0  0
    1.0225   52.3726   20.3463 C   0  0  0  0  0  0
    2.4015   51.8536   20.7949 C   0  0  0  0  0  0
    2.5474   50.7753   21.3738 O   0  0  0  0  0  0
    3.5242   52.7983   20.5614 C   0  0  0  0  0  0
    4.1120   52.8393   19.2910 C   0  0  0  0  0  0
    5.1766   53.6999   19.0287 C   0  0  0  0  0  0
    5.6659   54.5290   20.0346 C   0  0  0  0  0  0
    5.0888   54.4959   21.3026 C   0  0  0  0  0  0
    4.0120   53.6477   21.5711 C   0  0  0  0  0  0
    3.2442   53.7033   23.3178 Br  0  0  0  0  0  0
    0.7114   55.2204   31.7909 H   0  0  0  0  0  0
    1.5359   56.2088   29.6771 H   0  0  0  0  0  0
    1.4513   54.8970   27.6053 H   0  0  0  0  0  0
   -0.2382   51.5840   29.7834 H   0  0  0  0  0  0
   -0.0983   52.8963   31.8523 H   0  0  0  0  0  0
   -0.9190   50.7132   27.6817 H   0  0  0  0  0  0
   -2.6724   51.9092   24.6591 H   0  0  0  0  0  0
   -2.4222   51.5027   22.6057 H   0  0  0  0  0  0
    0.4444   48.9042   22.2464 H   0  0  0  0  0  0
    1.3669   49.8113   23.2570 H   0  0  0  0  0  0
    0.8266   53.2972   20.8775 H   0  0  0  0  0  0
    1.0458   52.6017   19.2813 H   0  0  0  0  0  0
    3.7704   52.1855   18.4983 H   0  0  0  0  0  0
    5.6277   53.7122   18.0470 H   0  0  0  0  0  0
    6.4951   55.1908   19.8329 H   0  0  0  0  0  0
    5.4734   55.1394   22.0792 H   0  0  0  0  0  0
  1  6  2  0  0  0
  1  2  1  0  0  0
  1 32  1  0  0  0
  2  3  2  0  0  0
  2 33  1  0  0  0
  3  4  1  0  0  0
  3 34  1  0  0  0
  4  5  2  0  0  0
  4  7  1  0  0  0
  5  6  1  0  0  0
  5 35  1  0  0  0
  6 36  1  0  0  0
  7 12  1  0  0  0
  7  8  2  0  0  0
  8  9  1  0  0  0
  8 37  1  0  0  0
  9 10  1  0  0  0
  9 11  1  0  0  0
  9 13  1  0  0  0
 11 12  2  0  0  0
 13 14  1  0  0  0
 13 19  1  0  0  0
 13 15  1  0  0  0
 15 16  1  0  0  0
 15 38  1  0  0  0
 16 17  1  0  0  0
 16 39  1  0  0  0
 17 18  1  0  0  0
 17 19  1  0  0  0
 17 21  1  0  0  0
 19 20  1  0  0  0
 20 40  1  0  0  0
 20 41  1  0  0  0
 21 22  1  0  0  0
 22 23  1  0  0  0
 22 42  1  0  0  0
 22 43  1  0  0  0
 23 24  2  0  0  0
 23 25  1  0  0  0
 25 30  2  0  0  0
 25 26  1  0  0  0
 26 27  2  0  0  0
 26 44  1  0  0  0
 27 28  1  0  0  0
 27 45  1  0  0  0
 28 29  2  0  0  0
 28 46  1  0  0  0
 29 30  1  0  0  0
 29 47  1  0  0  0
 30 31  1  0  0  0
M  END
> <i_i_glide_confnum>
167

> <i_i_glide_lignum>
2510

> <i_i_glide_posenum>
109

> <i_i_glide_rotatable_bonds>
6

> <i_m_Source_File_Index>
3424

> <b_m_subgroup_collapsed>
0

> <r_i_docking_score>
-3.94269

> <r_i_glide_ecoul>
-4.67748

> <r_i_glide_eff_state_penalty>
0

> <r_i_glide_einternal>
6.87371

> <r_i_glide_emodel>
-50.1836

> <r_i_glide_energy>
-41.8255

> <r_i_glide_erotb>
0.476744

> <r_i_glide_esite>
-0.0126765

> <r_i_glide_evdw>
-37.1481

> <r_i_glide_gscore>
-3.94269

> <r_i_glide_hbond>
0

> <r_i_glide_ligand_efficiency>
-0.14081

> <r_i_glide_ligand_efficiency_ln>
-0.910089

> <r_i_glide_ligand_efficiency_sa>
-0.427583

> <r_i_glide_lipo>
-1.54216

> <r_i_glide_metal>
0

> <r_i_glide_rewards>
-0.305573

> <s_i_glide_gridfile>
wee1_glide-grid

> <s_m_Source_File>
wee1_decoys_glide_SP.sdf

> <s_m_Source_Path>
/Users/zhangxujun/Desktop

> <s_m_entry_id>
3699

> <s_m_entry_name>
wee1_decoys_glide_SP.3424

> <s_m_subgroup_title>
wee1_decoys_glide_SP

> <s_m_subgroupid>
wee1_decoys_glide_SP


$$$$
