@<TRIPOS>MOLECULE
ZINC36708774_4402
53   55    1
SMALL
USER_CHARGES


@<TRIPOS>ATOM
      1 C1          1.4029   51.7905   21.5928 C.3       1 UNK         0.0000 
      2 C2          0.3438   50.6667   21.7325 C.3       1 UNK         0.0000 
      3 C3         -0.8123   50.9755   20.7469 C.3       1 UNK         0.0000 
      4 C4          0.9909   49.3338   21.2785 C.3       1 UNK         0.0000 
      5 C5         -0.2023   50.5381   23.2066 C.3       1 UNK         0.0000 
      6 C6         -0.9981   51.7804   23.7020 C.3       1 UNK         0.0000 
      7 C7         -1.5972   51.5745   25.1116 C.3       1 UNK         0.0000 
      8 C8         -0.5656   51.1579   26.1996 C.3       1 UNK         0.0000 
      9 C9          0.3095   49.9820   25.6796 C.3       1 UNK         0.0000 
     10 C10         0.8909   50.1974   24.2616 C.3       1 UNK         0.0000 
     11 C11         0.3092   52.3463   26.5911 C.2       1 UNK         0.0000 
     12 O12         1.0624   52.9669   25.8354 O.2       1 UNK         0.0000 
     13 N13         0.0496   52.5941   27.8996 N.am      1 UNK         0.0000 
     14 C14        -0.7951   51.7008   28.4633 C.2       1 UNK         0.0000 
     15 O15        -1.2361   51.6967   29.6078 O.2       1 UNK         0.0000 
     16 N16        -1.1699   50.8967   27.4723 N.am      1 UNK         0.0000 
     17 C17         0.4944   53.7940   28.6517 C.3       1 UNK         0.0000 
     18 C18         2.0086   53.8090   28.8853 C.2       1 UNK         0.0000 
     19 O19         2.4476   53.6620   30.0262 O.2       1 UNK         0.0000 
     20 N20         2.7423   54.0422   27.7818 N.am      1 UNK         0.0000 
     21 C21         4.1256   54.0683   27.6058 C.ar      1 UNK         0.0000 
     22 C22         5.0478   53.6454   28.5723 C.ar      1 UNK         0.0000 
     23 C23         6.4098   53.6967   28.2992 C.ar      1 UNK         0.0000 
     24 C24         6.8520   54.1659   27.0704 C.ar      1 UNK         0.0000 
     25 C25         5.9480   54.5773   26.0985 C.ar      1 UNK         0.0000 
     26 C26         4.5815   54.5159   26.3614 C.ar      1 UNK         0.0000 
     27 I27         6.6574   55.2967   24.2692 I         1 UNK         0.0000 
     28 H28         1.7515   51.8800   20.5627 H         1 UNK         0.0000 
     29 H29         2.2861   51.6031   22.2033 H         1 UNK         0.0000 
     30 H30         1.0101   52.7673   21.8746 H         1 UNK         0.0000 
     31 H31        -1.6383   50.2730   20.8654 H         1 UNK         0.0000 
     32 H32        -1.2104   51.9815   20.8790 H         1 UNK         0.0000 
     33 H33        -0.4828   50.9130   19.7086 H         1 UNK         0.0000 
     34 H34         0.3045   48.4967   21.4062 H         1 UNK         0.0000 
     35 H35         1.2724   49.3611   20.2246 H         1 UNK         0.0000 
     36 H36         1.9026   49.1026   21.8297 H         1 UNK         0.0000 
     37 H37        -0.9004   49.6984   23.2296 H         1 UNK         0.0000 
     38 H38        -0.3692   52.6700   23.6796 H         1 UNK         0.0000 
     39 H39        -1.8154   52.0070   23.0191 H         1 UNK         0.0000 
     40 H40        -2.1351   52.4697   25.4310 H         1 UNK         0.0000 
     41 H41        -2.4124   50.8489   25.1018 H         1 UNK         0.0000 
     42 H42        -0.2665   49.0565   25.7434 H         1 UNK         0.0000 
     43 H43         1.1033   49.7576   26.3956 H         1 UNK         0.0000 
     44 H44         1.4330   49.2967   23.9775 H         1 UNK         0.0000 
     45 H45         1.6505   50.9776   24.2773 H         1 UNK         0.0000 
     46 H46        -1.4926   49.9495   27.6817 H         1 UNK         0.0000 
     47 H47         0.2348   54.6854   28.0817 H         1 UNK         0.0000 
     48 H48        -0.0143   53.9040   29.6113 H         1 UNK         0.0000 
     49 H49         2.2138   54.1196   26.9218 H         1 UNK         0.0000 
     50 H50         4.7337   53.2654   29.5310 H         1 UNK         0.0000 
     51 H51         7.1297   53.3860   29.0397 H         1 UNK         0.0000 
     52 H52         7.9044   54.2101   26.8817 H         1 UNK         0.0000 
     53 H53         3.8838   54.8319   25.5989 H         1 UNK         0.0000 
@<TRIPOS>BOND
     1    1    2 1    
     2    1   28 1    
     3    1   29 1    
     4    1   30 1    
     5    2    3 1    
     6    2    4 1    
     7    2    5 1    
     8    3   31 1    
     9    3   32 1    
    10    3   33 1    
    11    4   34 1    
    12    4   35 1    
    13    4   36 1    
    14    5   10 1    
    15    5    6 1    
    16    5   37 1    
    17    6    7 1    
    18    6   38 1    
    19    6   39 1    
    20    7    8 1    
    21    7   40 1    
    22    7   41 1    
    23    8   16 1    
    24    8    9 1    
    25    8   11 1    
    26    9   10 1    
    27    9   42 1    
    28    9   43 1    
    29   10   44 1    
    30   10   45 1    
    31   11   12 2    
    32   11   13 am   BACKBONE|DICT|INTERRES
    33   13   14 am   BACKBONE|DICT|INTERRES
    34   13   17 1    
    35   14   15 2    
    36   14   16 am   BACKBONE|DICT|INTERRES
    37   16   46 1    
    38   17   18 1    
    39   17   47 1    
    40   17   48 1    
    41   18   19 2    
    42   18   20 am   BACKBONE|DICT|INTERRES
    43   20   21 1    
    44   20   49 1    
    45   21   26 ar   
    46   21   22 ar   
    47   22   23 ar   
    48   22   50 1    
    49   23   24 ar   
    50   23   51 1    
    51   24   25 ar   
    52   24   52 1    
    53   25   26 ar   
    54   25   27 1    
    55   26   53 1    
@<TRIPOS>SUBSTRUCTURE
     1 UNK         1 GROUP             0       ****    0 ROOT    
