@<TRIPOS>MOLECULE
ZINC45829555_3746
56   60    1
SMALL
USER_CHARGES


@<TRIPOS>ATOM
      1 C1          0.6218   49.2482   19.8568 C.3       1 UNK         0.0000 
      2 C2          1.6919   49.4509   18.7577 C.3       1 UNK         0.0000 
      3 H3          2.4946   48.7283   18.9208 H         1 UNK         0.0000 
      4 C4          2.3087   50.8889   18.6789 C.3       1 UNK         0.0000 
      5 H5          3.1030   50.9047   17.9294 H         1 UNK         0.0000 
      6 O6          1.2931   51.8559   18.3632 O.3       1 UNK         0.0000 
      7 C7          0.5108   51.4818   17.2918 C.ar      1 UNK         0.0000 
      8 C8         -0.2154   52.4792   16.6421 C.ar      1 UNK         0.0000 
      9 C9         -1.0578   52.1395   15.5813 C.ar      1 UNK         0.0000 
     10 C10        -1.1775   50.8068   15.1767 C.ar      1 UNK         0.0000 
     11 C11        -0.4557   49.8052   15.8312 C.ar      1 UNK         0.0000 
     12 C12         0.3805   50.1399   16.8953 C.ar      1 UNK         0.0000 
     13 O13         1.1019   49.1202   17.4899 O.3       1 UNK         0.0000 
     14 C14         2.9833   51.3389   19.9957 C.2       1 UNK         0.0000 
     15 O15         3.4777   50.4965   20.7520 O.2       1 UNK         0.0000 
     16 N16         3.0152   52.6651   20.2483 N.am      1 UNK         0.0000 
     17 N17         3.4220   53.0668   21.5141 N.am      1 UNK         0.0000 
     18 C18         4.5668   53.7682   21.6377 C.2       1 UNK         0.0000 
     19 O19         5.2897   54.1005   20.6933 O.2       1 UNK         0.0000 
     20 C20         4.9626   54.0967   23.0570 C.ar      1 UNK         0.0000 
     21 C21         4.0085   54.1892   24.0827 C.ar      1 UNK         0.0000 
     22 C22         4.4030   54.4763   25.3842 C.ar      1 UNK         0.0000 
     23 C23         5.7545   54.6553   25.6848 C.ar      1 UNK         0.0000 
     24 C24         6.7046   54.5881   24.6673 C.ar      1 UNK         0.0000 
     25 C25         6.3106   54.3192   23.3613 C.ar      1 UNK         0.0000 
     26 C26         6.1964   54.8778   27.1212 C.3       1 UNK         0.0000 
     27 S27         6.0540   53.3424   28.0822 S.3       1 UNK         0.0000 
     28 C28         4.4800   53.5123   28.8680 C.ar      1 UNK         0.0000 
     29 N29         3.6521   54.6077   28.7639 N.pl3     1 UNK         0.0000 
     30 H30         3.8817   55.4268   28.2236 H         1 UNK         0.0000 
     31 C31         2.5206   54.3579   29.4966 C.ar      1 UNK         0.0000 
     32 C32         1.3567   55.0860   29.7584 C.ar      1 UNK         0.0000 
     33 C33         0.4213   54.4767   30.6010 C.ar      1 UNK         0.0000 
     34 C34         0.6394   53.2163   31.1558 C.ar      1 UNK         0.0000 
     35 C35         1.8013   52.4967   30.8854 C.ar      1 UNK         0.0000 
     36 C36         2.7566   53.0711   30.0385 C.ar      1 UNK         0.0000 
     37 N37         3.9684   52.5783   29.6349 N.2       1 UNK         0.0000 
     38 H38         1.0366   49.3801   20.8560 H         1 UNK         0.0000 
     39 H39        -0.2041   49.9506   19.7450 H         1 UNK         0.0000 
     40 H40         0.2081   48.2409   19.8095 H         1 UNK         0.0000 
     41 H41        -0.1229   53.5074   16.9593 H         1 UNK         0.0000 
     42 H42        -1.6181   52.9094   15.0709 H         1 UNK         0.0000 
     43 H43        -1.8267   50.5504   14.3528 H         1 UNK         0.0000 
     44 H44        -0.5391   48.7764   15.5143 H         1 UNK         0.0000 
     45 H45         2.4542   53.3506   19.7585 H         1 UNK         0.0000 
     46 H46         2.6479   53.1700   22.1519 H         1 UNK         0.0000 
     47 H47         2.9555   54.0424   23.8912 H         1 UNK         0.0000 
     48 H48         3.6514   54.5229   26.1557 H         1 UNK         0.0000 
     49 H49         7.7530   54.7239   24.8817 H         1 UNK         0.0000 
     50 H50         7.0698   54.2655   22.5933 H         1 UNK         0.0000 
     51 H51         7.2383   55.1915   27.1673 H         1 UNK         0.0000 
     52 H52         5.6488   55.6956   27.5774 H         1 UNK         0.0000 
     53 H53         1.1859   56.0691   29.3447 H         1 UNK         0.0000 
     54 H54        -0.4948   54.9929   30.8482 H         1 UNK         0.0000 
     55 H55        -0.0958   52.7900   31.8231 H         1 UNK         0.0000 
     56 H56         1.9583   51.5381   31.3499 H         1 UNK         0.0000 
@<TRIPOS>BOND
     1    1    2 1    
     2    1   38 1    
     3    1   39 1    
     4    1   40 1    
     5    2    3 1    
     6    2   13 1    
     7    2    4 1    
     8    4    5 1    
     9    4    6 1    
    10    4   14 1    
    11    6    7 1    
    12    7   12 ar   
    13    7    8 ar   
    14    8    9 ar   
    15    8   41 1    
    16    9   10 ar   
    17    9   42 1    
    18   10   11 ar   
    19   10   43 1    
    20   11   12 ar   
    21   11   44 1    
    22   12   13 1    
    23   14   15 2    
    24   14   16 am   BACKBONE|DICT|INTERRES
    25   16   17 1    
    26   16   45 1    
    27   17   18 am   BACKBONE|DICT|INTERRES
    28   17   46 1    
    29   18   19 2    
    30   18   20 1    
    31   20   25 ar   
    32   20   21 ar   
    33   21   22 ar   
    34   21   47 1    
    35   22   23 ar   
    36   22   48 1    
    37   23   24 ar   
    38   23   26 1    
    39   24   25 ar   
    40   24   49 1    
    41   25   50 1    
    42   26   27 1    
    43   26   51 1    
    44   26   52 1    
    45   27   28 1    
    46   28   37 ar   
    47   28   29 ar   
    48   29   30 1    
    49   29   31 ar   
    50   31   36 ar   
    51   31   32 ar   
    52   32   33 ar   
    53   32   53 1    
    54   33   34 ar   
    55   33   54 1    
    56   34   35 ar   
    57   34   55 1    
    58   35   36 ar   
    59   35   56 1    
    60   36   37 ar   
@<TRIPOS>SUBSTRUCTURE
     1 UNK         1 GROUP             0       ****    0 ROOT    
