@<TRIPOS>MOLECULE
ZINC11981010_6035
65   69    1
SMALL
USER_CHARGES


@<TRIPOS>ATOM
      1 C1          6.6952   54.9208   27.2758 C.3       1 UNK         0.0000 
      2 C2          5.9752   54.8334   25.9127 C.3       1 UNK         0.0000 
      3 H3          5.6625   55.8464   25.6547 H         1 UNK         0.0000 
      4 C4          6.9564   54.3453   24.8040 C.3       1 UNK         0.0000 
      5 C5          6.4924   54.5184   23.3532 C.ar      1 UNK         0.0000 
      6 C6          5.4886   53.6970   22.7989 C.ar      1 UNK         0.0000 
      7 C7          5.0357   53.8871   21.4840 C.ar      1 UNK         0.0000 
      8 C8          5.6369   54.8929   20.7364 C.ar      1 UNK         0.0000 
      9 C9          6.6392   55.6648   21.2458 C.ar      1 UNK         0.0000 
     10 C10         7.0998   55.4951   22.5449 C.ar      1 UNK         0.0000 
     11 O11         7.0260   56.5774   20.3181 O.3       1 UNK         0.0000 
     12 C12         6.3594   56.2234   19.1344 C.3       1 UNK         0.0000 
     13 O13         5.3634   55.2917   19.4673 O.3       1 UNK         0.0000 
     14 C14         4.7098   53.9440   25.9455 C.3       1 UNK         0.0000 
     15 C15         2.3416   53.9050   26.7946 C.3       1 UNK         0.0000 
     16 C16         1.4925   54.2879   28.0135 C.3       1 UNK         0.0000 
     17 C17         1.7444   53.2267   29.1033 C.3       1 UNK         0.0000 
     18 C18         3.2298   53.2348   29.5264 C.3       1 UNK         0.0000 
     19 C19         4.1765   53.0806   28.3152 C.3       1 UNK         0.0000 
     20 C20         0.6641   52.8329   30.0903 C.3       1 UNK         0.0000 
     21 C21         1.0569   51.8569   28.9859 C.3       1 UNK         0.0000 
     22 H22         1.5996   50.9587   29.2791 H         1 UNK         0.0000 
     23 C23         0.0392   51.6356   27.8372 C.2       1 UNK         0.0000 
     24 O24        -0.8954   52.4179   27.6829 O.2       1 UNK         0.0000 
     25 N25         0.3036   50.5981   27.0152 N.am      1 UNK         0.0000 
     26 C26        -0.3888   50.1550   25.8703 C.ar      1 UNK         0.0000 
     27 C27        -1.5305   50.7727   25.3326 C.ar      1 UNK         0.0000 
     28 C28        -2.1540   50.2346   24.2113 C.ar      1 UNK         0.0000 
     29 C29        -1.6468   49.0839   23.6142 C.ar      1 UNK         0.0000 
     30 C30        -0.5058   48.4702   24.1350 C.ar      1 UNK         0.0000 
     31 C31         0.1169   49.0042   25.2606 C.ar      1 UNK         0.0000 
     32 S32        -2.4985   48.4219   22.2086 S.3       1 UNK         0.0000 
     33 C33        -1.4559   47.1657   21.4195 C.3       1 UNK         0.0000 
     34 H34         7.1199   53.9626   27.5761 H         1 UNK         0.0000 
     35 H35         7.5044   55.6376   27.2475 H         1 UNK         0.0000 
     36 H36         6.0406   55.2752   28.0718 H         1 UNK         0.0000 
     37 H37         7.2066   53.2967   24.9576 H         1 UNK         0.0000 
     38 H38         7.9043   54.8716   24.9136 H         1 UNK         0.0000 
     39 H39         5.0484   52.9055   23.3818 H         1 UNK         0.0000 
     40 H40         4.2508   53.2696   21.0697 H         1 UNK         0.0000 
     41 H41         7.9043   56.0981   22.9298 H         1 UNK         0.0000 
     42 H42         5.9143   57.1047   18.6692 H         1 UNK         0.0000 
     43 H43         7.0694   55.7581   18.4476 H         1 UNK         0.0000 
     44 H44         4.0918   54.1703   25.0760 H         1 UNK         0.0000 
     45 H45         4.9682   52.8967   25.9072 H         1 UNK         0.0000 
     46 H46         2.1111   54.4967   25.9180 H         1 UNK         0.0000 
     47 H47         2.2284   52.8609   26.4974 H         1 UNK         0.0000 
     48 H48         1.7766   55.2761   28.3783 H         1 UNK         0.0000 
     49 H49         0.4443   54.3873   27.7546 H         1 UNK         0.0000 
     50 H50         3.4289   52.4446   30.2519 H         1 UNK         0.0000 
     51 H51         3.4579   54.1719   30.0355 H         1 UNK         0.0000 
     52 H52         4.0689   52.0968   27.8702 H         1 UNK         0.0000 
     53 H53         5.2113   53.2205   28.6209 H         1 UNK         0.0000 
     54 H54         0.9344   52.5861   31.1183 H         1 UNK         0.0000 
     55 H55        -0.3009   53.3418   30.0528 H         1 UNK         0.0000 
     56 H56         1.0712   50.0032   27.2812 H         1 UNK         0.0000 
     57 H57        -1.9700   51.6565   25.7631 H         1 UNK         0.0000 
     58 H58        -3.0402   50.7077   23.8135 H         1 UNK         0.0000 
     59 H59        -0.0995   47.5771   23.6919 H         1 UNK         0.0000 
     60 H60         0.9852   48.4997   25.6624 H         1 UNK         0.0000 
     61 H61        -1.9378   46.7989   20.5137 H         1 UNK         0.0000 
     62 H62        -0.4954   47.5977   21.1406 H         1 UNK         0.0000 
     63 H63        -1.2960   46.3179   22.0848 H         1 UNK         0.0000 
     64 N64         3.8168   54.1151   27.2056 N.4       1 UNK         0.0000 
     65 H65         3.9287   55.0641   27.5372 H         1 UNK         0.0000 
@<TRIPOS>BOND
     1    1    2 1    
     2    1   34 1    
     3    1   35 1    
     4    1   36 1    
     5    2    3 1    
     6    2    4 1    
     7    2   14 1    
     8    4    5 1    
     9    4   37 1    
    10    4   38 1    
    11    5   10 ar   
    12    5    6 ar   
    13    6    7 ar   
    14    6   39 1    
    15    7    8 ar   
    16    7   40 1    
    17    8   13 1    
    18    8    9 ar   
    19    9   10 ar   
    20    9   11 1    
    21   10   41 1    
    22   11   12 1    
    23   12   13 1    
    24   12   42 1    
    25   12   43 1    
    26   14   44 1    
    27   14   45 1    
    28   14   64 1    
    29   15   16 1    
    30   15   46 1    
    31   15   47 1    
    32   15   64 1    
    33   16   17 1    
    34   16   48 1    
    35   16   49 1    
    36   17   21 1    
    37   17   18 1    
    38   17   20 1    
    39   18   19 1    
    40   18   50 1    
    41   18   51 1    
    42   19   52 1    
    43   19   53 1    
    44   19   64 1    
    45   20   21 1    
    46   20   54 1    
    47   20   55 1    
    48   21   22 1    
    49   21   23 1    
    50   23   24 2    
    51   23   25 am   BACKBONE|DICT|INTERRES
    52   25   26 1    
    53   25   56 1    
    54   26   31 ar   
    55   26   27 ar   
    56   27   28 ar   
    57   27   57 1    
    58   28   29 ar   
    59   28   58 1    
    60   29   30 ar   
    61   29   32 1    
    62   30   31 ar   
    63   30   59 1    
    64   31   60 1    
    65   32   33 1    
    66   33   61 1    
    67   33   62 1    
    68   33   63 1    
    69   64   65 1    
@<TRIPOS>SUBSTRUCTURE
     1 UNK         1 GROUP             0       ****    0 ROOT    
