@<TRIPOS>MOLECULE
ZINC21867849_5637
52   56    1
SMALL
USER_CHARGES


@<TRIPOS>ATOM
      1 C1          7.3338   57.2197   17.2093 C.3       1 UNK         0.0000 
      2 C2          8.0127   56.3652   18.2909 C.3       1 UNK         0.0000 
      3 H3          8.7973   56.9820   18.7386 H         1 UNK         0.0000 
      4 C4          8.6656   55.1125   17.6893 C.ar      1 UNK         0.0000 
      5 C5          7.8914   53.9864   17.3763 C.ar      1 UNK         0.0000 
      6 C6          8.4962   52.8392   16.8687 C.ar      1 UNK         0.0000 
      7 C7          9.8731   52.8166   16.6692 C.ar      1 UNK         0.0000 
      8 C8         10.6518   53.9293   16.9785 C.ar      1 UNK         0.0000 
      9 C9         10.0499   55.0749   17.4931 C.ar      1 UNK         0.0000 
     10 F10        10.4608   51.7036   16.1752 F         1 UNK         0.0000 
     11 N11         7.0520   56.0406   19.3477 N.am      1 UNK         0.0000 
     12 C12         7.3800   55.6072   20.5760 C.2       1 UNK         0.0000 
     13 O13         8.5237   55.6960   21.0222 O.2       1 UNK         0.0000 
     14 C14         6.2627   55.0052   21.3988 C.ar      1 UNK         0.0000 
     15 C15         5.0835   54.5421   20.7959 C.ar      1 UNK         0.0000 
     16 C16         4.0109   54.0970   21.5640 C.ar      1 UNK         0.0000 
     17 C17         4.0964   54.0974   22.9590 C.ar      1 UNK         0.0000 
     18 C18         5.3062   54.4864   23.5775 C.ar      1 UNK         0.0000 
     19 C19         6.3856   54.9028   22.7928 C.ar      1 UNK         0.0000 
     20 N20         5.3007   54.4514   24.9923 N.pl3     1 UNK         0.0000 
     21 C21         4.1832   54.0513   25.7061 C.ar      1 UNK         0.0000 
     22 C22         4.5988   54.0383   27.0364 C.ar      1 UNK         0.0000 
     23 N23         5.8512   54.4792   27.0997 N.2       1 UNK         0.0000 
     24 N24         6.3121   54.7450   25.8216 N.2       1 UNK         0.0000 
     25 C25         3.8576   53.5435   28.2405 C.ar      1 UNK         0.0000 
     26 C26         4.5588   52.9337   29.2817 C.ar      1 UNK         0.0000 
     27 C27         3.8938   52.4187   30.3925 C.ar      1 UNK         0.0000 
     28 C28         2.5056   52.4972   30.4717 C.ar      1 UNK         0.0000 
     29 C29         1.7804   53.1009   29.4383 C.ar      1 UNK         0.0000 
     30 C30         2.4645   53.6226   28.3294 C.ar      1 UNK         0.0000 
     31 C31         0.2581   53.1740   29.5132 C.3       1 UNK         0.0000 
     32 F32        -0.2496   52.0792   30.0793 F         1 UNK         0.0000 
     33 F33        -0.0950   54.2255   30.2488 F         1 UNK         0.0000 
     34 F34        -0.2782   53.2992   28.2985 F         1 UNK         0.0000 
     35 N35         3.0168   53.7007   25.0968 N.2       1 UNK         0.0000 
     36 C36         2.8728   53.7093   23.7855 C.ar      1 UNK         0.0000 
     37 O37         1.8173   53.4296   23.2144 O.2       1 UNK         0.0000 
     38 H38         8.0490   57.5283   16.4463 H         1 UNK         0.0000 
     39 H39         6.5281   56.6788   16.7121 H         1 UNK         0.0000 
     40 H40         6.9072   58.1286   17.6337 H         1 UNK         0.0000 
     41 H41         6.8220   53.9930   17.5302 H         1 UNK         0.0000 
     42 H42         7.8997   51.9681   16.6366 H         1 UNK         0.0000 
     43 H43        11.7208   53.8936   16.8297 H         1 UNK         0.0000 
     44 H44        10.6652   55.9242   17.7503 H         1 UNK         0.0000 
     45 H45         6.0826   55.9973   19.0713 H         1 UNK         0.0000 
     46 H46         4.9594   54.5536   19.7225 H         1 UNK         0.0000 
     47 H47         3.1057   53.7902   21.0585 H         1 UNK         0.0000 
     48 H48         7.2985   55.2220   23.2816 H         1 UNK         0.0000 
     49 H49         5.6329   52.8689   29.2274 H         1 UNK         0.0000 
     50 H50         4.4540   51.9550   31.1927 H         1 UNK         0.0000 
     51 H51         1.9936   52.0965   31.3370 H         1 UNK         0.0000 
     52 H52         1.9111   54.0876   27.5268 H         1 UNK         0.0000 
@<TRIPOS>BOND
     1    1    2 1    
     2    1   38 1    
     3    1   39 1    
     4    1   40 1    
     5    2    3 1    
     6    2    4 1    
     7    2   11 1    
     8    4    9 ar   
     9    4    5 ar   
    10    5    6 ar   
    11    5   41 1    
    12    6    7 ar   
    13    6   42 1    
    14    7    8 ar   
    15    7   10 1    
    16    8    9 ar   
    17    8   43 1    
    18    9   44 1    
    19   11   12 am   BACKBONE|DICT|INTERRES
    20   11   45 1    
    21   12   13 2    
    22   12   14 1    
    23   14   19 ar   
    24   14   15 ar   
    25   15   16 ar   
    26   15   46 1    
    27   16   17 ar   
    28   16   47 1    
    29   17   36 ar   
    30   17   18 ar   
    31   18   19 ar   
    32   18   20 ar   
    33   19   48 1    
    34   20   24 ar   
    35   20   21 ar   
    36   21   22 ar   
    37   21   35 ar   
    38   22   23 ar   
    39   22   25 1    
    40   23   24 ar   
    41   25   30 ar   
    42   25   26 ar   
    43   26   27 ar   
    44   26   49 1    
    45   27   28 ar   
    46   27   50 1    
    47   28   29 ar   
    48   28   51 1    
    49   29   30 ar   
    50   29   31 1    
    51   30   52 1    
    52   31   32 1    
    53   31   33 1    
    54   31   34 1    
    55   35   36 ar   
    56   36   37 2    
@<TRIPOS>SUBSTRUCTURE
     1 UNK         1 GROUP             0       ****    0 ROOT    
