ZINC13479807_1708
                    3D
 Schrodinger Suite 2024-2.
 35 36  0  0  1  0            999 V2000
    1.5320   53.9433   23.8361 C   0  0  0  0  0  0
    3.0164   54.0436   24.1296 C   0  0  0  0  0  0
    4.0391   54.2482   23.2326 C   0  0  0  0  0  0
    5.2585   54.3864   23.8997 C   0  0  0  0  0  0
    4.9665   54.1470   25.2481 C   0  0  0  0  0  0
    3.5880   53.9582   25.3942 N   0  0  0  0  0  0
    2.8798   53.7330   26.6105 C   0  0  0  0  0  0
    1.9014   52.7346   26.6881 C   0  0  0  0  0  0
    1.1850   52.5362   27.8636 C   0  0  0  0  0  0
    1.4322   53.3489   28.9710 C   0  0  0  0  0  0
    2.4114   54.3403   28.9106 C   0  0  0  0  0  0
    3.1355   54.5235   27.7364 C   0  0  0  0  0  0
    0.4451   53.1566   30.4490 S   0  0  0  0  0  0
    0.3041   54.4865   31.0504 O   0  0  0  0  0  0
   -0.7195   52.3508   30.0774 O   0  0  0  0  0  0
    1.3994   52.1955   31.5428 N   0  0  0  0  0  0
    5.9291   54.0957   26.4291 C   0  0  0  0  0  0
    6.5496   54.7122   23.2937 C   0  0  0  0  0  0
    6.6051   55.1190   22.0908 N   0  0  0  0  0  0
    7.9043   55.4573   21.6816 O   0  0  0  0  0  0
    1.2957   54.3640   22.8585 H   0  0  0  0  0  0
    1.1800   52.9127   23.8208 H   0  0  0  0  0  0
    0.9295   54.4936   24.5552 H   0  0  0  0  0  0
    3.9013   54.3565   22.1651 H   0  0  0  0  0  0
    1.6940   52.0972   25.8425 H   0  0  0  0  0  0
    0.4295   51.7627   27.9011 H   0  0  0  0  0  0
    2.5982   54.9823   29.7587 H   0  0  0  0  0  0
    3.8838   55.2966   27.7050 H   0  0  0  0  0  0
    1.7189   52.7321   32.3514 H   0  0  0  0  0  0
    0.8638   51.3835   31.8604 H   0  0  0  0  0  0
    6.9374   53.8187   26.1224 H   0  0  0  0  0  0
    6.0096   55.0568   26.9371 H   0  0  0  0  0  0
    5.6376   53.3503   27.1701 H   0  0  0  0  0  0
    7.4041   54.5988   23.9565 H   0  0  0  0  0  0
    8.4490   55.2966   22.4645 H   0  0  0  0  0  0
  1  2  1  0  0  0
  1 21  1  0  0  0
  1 22  1  0  0  0
  1 23  1  0  0  0
  2  6  1  0  0  0
  2  3  2  0  0  0
  3  4  1  0  0  0
  3 24  1  0  0  0
  4  5  2  0  0  0
  4 18  1  0  0  0
  5  6  1  0  0  0
  5 17  1  0  0  0
  6  7  1  0  0  0
  7 12  2  0  0  0
  7  8  1  0  0  0
  8  9  2  0  0  0
  8 25  1  0  0  0
  9 10  1  0  0  0
  9 26  1  0  0  0
 10 11  2  0  0  0
 10 13  1  0  0  0
 11 12  1  0  0  0
 11 27  1  0  0  0
 12 28  1  0  0  0
 13 14  2  0  0  0
 13 15  2  0  0  0
 13 16  1  0  0  0
 16 29  1  0  0  0
 16 30  1  0  0  0
 17 31  1  0  0  0
 17 32  1  0  0  0
 17 33  1  0  0  0
 18 19  2  0  0  0
 18 34  1  0  0  0
 19 20  1  0  0  0
 20 35  1  0  0  0
M  END
> <i_i_glide_confnum>
1

> <i_i_glide_lignum>
1709

> <i_i_glide_posenum>
61

> <i_i_glide_rotatable_bonds>
4

> <i_m_Source_File_Index>
5859

> <b_m_subgroup_collapsed>
0

> <r_i_docking_score>
-7.2337

> <r_i_glide_ecoul>
-4.76396

> <r_i_glide_eff_state_penalty>
0

> <r_i_glide_einternal>
0.974773

> <r_i_glide_emodel>
-60.3337

> <r_i_glide_energy>
-41.0529

> <r_i_glide_erotb>
0.637003

> <r_i_glide_esite>
-0.1301

> <r_i_glide_evdw>
-36.2889

> <r_i_glide_gscore>
-7.2337

> <r_i_glide_hbond>
-0.32

> <r_i_glide_ligand_efficiency>
-0.361685

> <r_i_glide_ligand_efficiency_ln>
-1.81036

> <r_i_glide_ligand_efficiency_sa>
-0.981764

> <r_i_glide_lipo>
-2.6125

> <r_i_glide_metal>
0

> <r_i_glide_rewards>
-2.27906

> <s_i_glide_gridfile>
wee1_glide-grid

> <s_m_Source_File>
wee1_decoys_glide_SP.sdf

> <s_m_Source_Path>
/Users/zhangxujun/Desktop

> <s_m_entry_id>
6134

> <s_m_entry_name>
wee1_decoys_glide_SP.5859

> <s_m_subgroup_title>
wee1_decoys_glide_SP

> <s_m_subgroupid>
wee1_decoys_glide_SP


$$$$
