@<TRIPOS>MOLECULE
ZINC03364813_3353
60   63    1
SMALL
USER_CHARGES


@<TRIPOS>ATOM
      1 C1          1.3847   54.0003   29.5039 C.3       1 UNK         0.0000 
      2 C2          2.6430   54.3660   28.6935 C.3       1 UNK         0.0000 
      3 H3          2.7218   55.4555   28.7213 H         1 UNK         0.0000 
      4 C4          3.9112   53.7215   29.2997 C.3       1 UNK         0.0000 
      5 C5          5.1949   54.2790   28.6514 C.3       1 UNK         0.0000 
      6 C6          5.0173   54.2715   27.1434 C.2       1 UNK         0.0000 
      7 C7          3.7996   54.1074   26.4708 C.2       1 UNK         0.0000 
      8 C8          3.9614   54.1819   25.0768 C.2       1 UNK         0.0000 
      9 C9          5.2902   54.3581   24.6782 C.2       1 UNK         0.0000 
     10 S10         6.3410   54.4943   26.0576 S.3       1 UNK         0.0000 
     11 C11         5.8780   54.3091   23.3629 C.2       1 UNK         0.0000 
     12 O12         7.0796   54.0810   23.2263 O.2       1 UNK         0.0000 
     13 N13         5.0191   54.4953   22.3301 N.am      1 UNK         0.0000 
     14 N14         5.4854   54.5433   20.9972 N.am      1 UNK         0.0000 
     15 C15         6.3105   55.5341   20.5688 C.2       1 UNK         0.0000 
     16 O16         6.6827   56.4918   21.2555 O.2       1 UNK         0.0000 
     17 C17         6.8148   55.3869   19.1570 C.ar      1 UNK         0.0000 
     18 C18         8.1316   55.7484   18.8504 C.ar      1 UNK         0.0000 
     19 C19         8.6133   55.6230   17.5523 C.ar      1 UNK         0.0000 
     20 C20         7.7883   55.1481   16.5196 C.ar      1 UNK         0.0000 
     21 C21         6.4649   54.7919   16.8225 C.ar      1 UNK         0.0000 
     22 C22         5.9883   54.9078   18.1321 C.ar      1 UNK         0.0000 
     23 S23         5.3304   54.2218   15.5430 S.o2      1 UNK         0.0000 
     24 O24         3.9824   54.2842   16.1202 O.2       1 UNK         0.0000 
     25 O25         5.6066   54.9790   14.3160 O.2       1 UNK         0.0000 
     26 N26         5.7141   52.4981   15.2860 N.pl3     1 UNK         0.0000 
     27 C27         4.6115   51.7038   14.6973 C.3       1 UNK         0.0000 
     28 C28         4.4869   51.9933   13.1844 C.3       1 UNK         0.0000 
     29 O29         5.7426   51.7278   12.5404 O.3       1 UNK         0.0000 
     30 C30         6.8899   52.4071   13.0743 C.3       1 UNK         0.0000 
     31 C31         6.9874   52.1722   14.6006 C.3       1 UNK         0.0000 
     32 O32         8.2192   55.0104   15.2156 O.3       1 UNK         0.0000 
     33 C33         9.5473   55.3763   14.8634 C.3       1 UNK         0.0000 
     34 C34         2.4775   53.9176   27.2153 C.3       1 UNK         0.0000 
     35 H35         1.2241   52.9215   29.5372 H         1 UNK         0.0000 
     36 H36         0.4918   54.4543   29.0735 H         1 UNK         0.0000 
     37 H37         1.4608   54.3535   30.5325 H         1 UNK         0.0000 
     38 H38         3.9539   53.9232   30.3709 H         1 UNK         0.0000 
     39 H39         3.8556   52.6334   29.2333 H         1 UNK         0.0000 
     40 H40         5.3780   55.2915   29.0102 H         1 UNK         0.0000 
     41 H41         6.0605   53.6750   28.9188 H         1 UNK         0.0000 
     42 H42         3.1370   54.0614   24.3896 H         1 UNK         0.0000 
     43 H43         4.1016   54.9028   22.4389 H         1 UNK         0.0000 
     44 H44         5.5166   53.6208   20.5874 H         1 UNK         0.0000 
     45 H45         8.8006   56.1133   19.6191 H         1 UNK         0.0000 
     46 H46         9.6373   55.9084   17.3658 H         1 UNK         0.0000 
     47 H47         4.9608   54.6361   18.3486 H         1 UNK         0.0000 
     48 H48         4.8989   50.6560   14.7818 H         1 UNK         0.0000 
     49 H49         3.7053   51.8050   15.2964 H         1 UNK         0.0000 
     50 H50         4.2002   53.0346   13.0255 H         1 UNK         0.0000 
     51 H51         3.7140   51.3673   12.7394 H         1 UNK         0.0000 
     52 H52         6.8115   53.4689   12.8471 H         1 UNK         0.0000 
     53 H53         7.7873   52.0327   12.5828 H         1 UNK         0.0000 
     54 H54         7.8346   52.6084   15.1268 H         1 UNK         0.0000 
     55 H55         7.1269   51.0978   14.7065 H         1 UNK         0.0000 
     56 H56         9.6898   55.1997   13.7974 H         1 UNK         0.0000 
     57 H57         9.7402   56.4330   15.0436 H         1 UNK         0.0000 
     58 H58        10.2917   54.7819   15.3966 H         1 UNK         0.0000 
     59 H59         2.1928   52.8650   27.1688 H         1 UNK         0.0000 
     60 H60         1.6719   54.4762   26.7413 H         1 UNK         0.0000 
@<TRIPOS>BOND
     1    1    2 1    
     2    1   35 1    
     3    1   36 1    
     4    1   37 1    
     5    2    3 1    
     6    2   34 1    
     7    2    4 1    
     8    4    5 1    
     9    4   38 1    
    10    4   39 1    
    11    5    6 1    
    12    5   40 1    
    13    5   41 1    
    14    6   10 1    
    15    6    7 2    
    16    7    8 1    
    17    7   34 1    
    18    8    9 2    
    19    8   42 1    
    20    9   10 1    
    21    9   11 1    
    22   11   12 2    
    23   11   13 am   BACKBONE|DICT|INTERRES
    24   13   14 1    
    25   13   43 1    
    26   14   15 am   BACKBONE|DICT|INTERRES
    27   14   44 1    
    28   15   16 2    
    29   15   17 1    
    30   17   22 ar   
    31   17   18 ar   
    32   18   19 ar   
    33   18   45 1    
    34   19   20 ar   
    35   19   46 1    
    36   20   21 ar   
    37   20   32 1    
    38   21   22 ar   
    39   21   23 1    
    40   22   47 1    
    41   23   24 2    
    42   23   25 2    
    43   23   26 1    
    44   26   31 1    
    45   26   27 1    
    46   27   28 1    
    47   27   48 1    
    48   27   49 1    
    49   28   29 1    
    50   28   50 1    
    51   28   51 1    
    52   29   30 1    
    53   30   31 1    
    54   30   52 1    
    55   30   53 1    
    56   31   54 1    
    57   31   55 1    
    58   32   33 1    
    59   33   56 1    
    60   33   57 1    
    61   33   58 1    
    62   34   59 1    
    63   34   60 1    
@<TRIPOS>SUBSTRUCTURE
     1 UNK         1 GROUP             0       ****    0 ROOT    
