@<TRIPOS>MOLECULE
ZINC57355146_2526
53   55    1
SMALL
USER_CHARGES


@<TRIPOS>ATOM
      1 C1          7.3172   55.5789   19.8369 C.3       1 UNK         0.0000 
      2 C2          5.9277   55.0131   19.4632 C.3       1 UNK         0.0000 
      3 H3          6.0743   54.0206   19.0310 H         1 UNK         0.0000 
      4 C4          5.1503   55.8347   18.4142 C.ar      1 UNK         0.0000 
      5 C5          5.5792   57.0919   17.9573 C.ar      1 UNK         0.0000 
      6 C6          4.8312   57.7997   17.0145 C.ar      1 UNK         0.0000 
      7 C7          3.6447   57.2574   16.5181 C.ar      1 UNK         0.0000 
      8 C8          3.2136   56.0047   16.9582 C.ar      1 UNK         0.0000 
      9 C9          3.9634   55.3003   17.8961 C.ar      1 UNK         0.0000 
     10 S10         2.6999   58.1406   15.2723 S.o2      1 UNK         0.0000 
     11 O11         3.6081   58.3781   14.1466 O.2       1 UNK         0.0000 
     12 O12         1.4358   57.4204   15.0854 O.2       1 UNK         0.0000 
     13 N13         2.3048   59.6968   15.9536 N.pl3     1 UNK         0.0000 
     14 N14         5.0953   54.8957   20.6591 N.3       1 UNK         0.0000 
     15 C15         5.4472   53.8999   21.6501 C.3       1 UNK         0.0000 
     16 C16         4.3507   53.8812   22.7340 C.2       1 UNK         0.0000 
     17 O17         3.1846   53.6512   22.4080 O.2       1 UNK         0.0000 
     18 N18         4.7684   54.0966   24.0002 N.am      1 UNK         0.0000 
     19 C19         4.0360   54.0275   25.1918 C.2       1 UNK         0.0000 
     20 C20         4.5641   54.1610   26.4752 C.2       1 UNK         0.0000 
     21 C21         3.6094   54.0051   27.5107 C.2       1 UNK         0.0000 
     22 C22         2.3302   53.7141   27.0123 C.2       1 UNK         0.0000 
     23 S23         2.3396   53.6654   25.2729 S.3       1 UNK         0.0000 
     24 C24         1.0762   53.4612   27.8244 C.3       1 UNK         0.0000 
     25 C25         1.1986   52.2717   28.7953 C.3       1 UNK         0.0000 
     26 C26         2.0530   52.5507   30.0479 C.3       1 UNK         0.0000 
     27 C27         3.5523   52.8194   29.8054 C.3       1 UNK         0.0000 
     28 C28         3.8849   54.1015   29.0110 C.3       1 UNK         0.0000 
     29 C29         5.9801   54.4004   26.7122 C.1       1 UNK         0.0000 
     30 N30         7.1039   54.5852   26.8910 N.1       1 UNK         0.0000 
     31 H31         7.9345   55.7217   18.9494 H         1 UNK         0.0000 
     32 H32         7.2388   56.5347   20.3544 H         1 UNK         0.0000 
     33 H33         7.8693   54.8977   20.4845 H         1 UNK         0.0000 
     34 H34         6.4866   57.5429   18.3282 H         1 UNK         0.0000 
     35 H35         5.1727   58.7687   16.6739 H         1 UNK         0.0000 
     36 H36         2.3037   55.5668   16.5734 H         1 UNK         0.0000 
     37 H37         3.6146   54.3302   18.2214 H         1 UNK         0.0000 
     38 H38         1.7026   59.6573   16.7870 H         1 UNK         0.0000 
     39 H39         3.1150   60.3293   16.0817 H         1 UNK         0.0000 
     40 H40         4.1560   54.6919   20.3359 H         1 UNK         0.0000 
     41 H41         6.4245   54.1043   22.0894 H         1 UNK         0.0000 
     42 H42         5.5009   52.9050   21.2045 H         1 UNK         0.0000 
     43 H43         5.7530   54.2854   24.1149 H         1 UNK         0.0000 
     44 H44         0.2250   53.2893   27.1662 H         1 UNK         0.0000 
     45 H45         0.8264   54.3494   28.4063 H         1 UNK         0.0000 
     46 H46         1.5790   51.3948   28.2684 H         1 UNK         0.0000 
     47 H47         0.1968   51.9954   29.1287 H         1 UNK         0.0000 
     48 H48         1.9586   51.6988   30.7215 H         1 UNK         0.0000 
     49 H49         1.6199   53.3904   30.5935 H         1 UNK         0.0000 
     50 H50         4.0102   51.9571   29.3167 H         1 UNK         0.0000 
     51 H51         4.0373   52.8871   30.7803 H         1 UNK         0.0000 
     52 H52         3.3244   54.9377   29.4318 H         1 UNK         0.0000 
     53 H53         4.9281   54.3531   29.2058 H         1 UNK         0.0000 
@<TRIPOS>BOND
     1    1    2 1    
     2    1   31 1    
     3    1   32 1    
     4    1   33 1    
     5    2    3 1    
     6    2    4 1    
     7    2   14 1    
     8    4    9 ar   
     9    4    5 ar   
    10    5    6 ar   
    11    5   34 1    
    12    6    7 ar   
    13    6   35 1    
    14    7    8 ar   
    15    7   10 1    
    16    8    9 ar   
    17    8   36 1    
    18    9   37 1    
    19   10   11 2    
    20   10   12 2    
    21   10   13 1    
    22   13   38 1    
    23   13   39 1    
    24   14   15 1    
    25   14   40 1    
    26   15   16 1    
    27   15   41 1    
    28   15   42 1    
    29   16   17 2    
    30   16   18 am   BACKBONE|DICT|INTERRES
    31   18   19 am   BACKBONE|DICT|INTERRES
    32   18   43 1    
    33   19   23 1    
    34   19   20 2    
    35   20   21 1    
    36   20   29 1    
    37   21   28 1    
    38   21   22 2    
    39   22   23 1    
    40   22   24 1    
    41   24   25 1    
    42   24   44 1    
    43   24   45 1    
    44   25   26 1    
    45   25   46 1    
    46   25   47 1    
    47   26   27 1    
    48   26   48 1    
    49   26   49 1    
    50   27   28 1    
    51   27   50 1    
    52   27   51 1    
    53   28   52 1    
    54   28   53 1    
    55   29   30 3    
@<TRIPOS>SUBSTRUCTURE
     1 UNK         1 GROUP             0       ****    0 ROOT    
