@<TRIPOS>MOLECULE
ZINC66175197_249
60   62    1
SMALL
USER_CHARGES


@<TRIPOS>ATOM
      1 C1          2.0152   50.7951   18.2715 C.3       1 UNK         0.0000 
      2 C2          2.1564   51.8736   19.3556 C.3       1 UNK         0.0000 
      3 C3          1.8768   51.3228   20.7720 C.3       1 UNK         0.0000 
      4 C4          2.0014   52.3596   21.9326 C.3       1 UNK         0.0000 
      5 H5          1.4152   53.2286   21.6252 H         1 UNK         0.0000 
      6 C6          3.4469   52.9014   22.1798 C.2       1 UNK         0.0000 
      7 O7          4.3607   52.4316   21.4942 O.2       1 UNK         0.0000 
      8 N8          3.6943   53.8262   23.1546 N.am      1 UNK         0.0000 
      9 C9          2.6639   54.3987   24.0472 C.3       1 UNK         0.0000 
     10 C10         2.8808   53.8233   25.4729 C.3       1 UNK         0.0000 
     11 C11         4.3191   54.0970   25.8803 C.2       1 UNK         0.0000 
     12 C12         5.3487   54.2769   24.9541 C.2       1 UNK         0.0000 
     13 C13         6.5843   54.4942   25.5753 C.2       1 UNK         0.0000 
     14 C14         6.5137   54.4138   26.9598 C.2       1 UNK         0.0000 
     15 S15         4.9027   54.0971   27.5150 S.3       1 UNK         0.0000 
     16 C16         5.0954   54.2268   23.4514 C.3       1 UNK         0.0000 
     17 N17         1.4117   51.8247   23.1693 N.am      1 UNK         0.0000 
     18 C18         0.1004   51.7960   23.4565 C.2       1 UNK         0.0000 
     19 O19        -0.7864   52.0980   22.6580 O.2       1 UNK         0.0000 
     20 N20        -0.1323   51.4110   24.7219 N.am      1 UNK         0.0000 
     21 C21        -1.4551   51.1385   25.2980 C.3       1 UNK         0.0000 
     22 C22        -1.5483   51.4632   26.8040 C.3       1 UNK         0.0000 
     23 C23        -2.9316   51.1710   27.4132 C.3       1 UNK         0.0000 
     24 N24        -3.2959   49.7001   27.1240 N.4       1 UNK         0.0000 
     25 C25        -3.3819   49.4345   25.6033 C.3       1 UNK         0.0000 
     26 C26        -2.0145   49.7375   24.9625 C.3       1 UNK         0.0000 
     27 C27        -4.5871   49.2891   27.8653 C.3       1 UNK         0.0000 
     28 C28        -4.6228   47.7616   28.0296 C.3       1 UNK         0.0000 
     29 H29         2.2934   51.1842   17.2925 H         1 UNK         0.0000 
     30 H30         2.6674   49.9443   18.4707 H         1 UNK         0.0000 
     31 H31         0.9928   50.4246   18.2076 H         1 UNK         0.0000 
     32 H32         1.4766   52.6975   19.1363 H         1 UNK         0.0000 
     33 H33         3.1652   52.2852   19.2908 H         1 UNK         0.0000 
     34 H34         2.5352   50.4737   20.9761 H         1 UNK         0.0000 
     35 H35         0.8650   50.9064   20.7677 H         1 UNK         0.0000 
     36 H36         1.6480   54.3149   23.6618 H         1 UNK         0.0000 
     37 H37         2.8114   55.4752   24.0758 H         1 UNK         0.0000 
     38 H38         2.6720   52.7543   25.4922 H         1 UNK         0.0000 
     39 H39         2.1855   54.2737   26.1792 H         1 UNK         0.0000 
     40 H40         7.4975   54.6635   25.0220 H         1 UNK         0.0000 
     41 H41         7.3163   54.4993   27.6780 H         1 UNK         0.0000 
     42 H42         5.3461   55.1691   22.9667 H         1 UNK         0.0000 
     43 H43         5.8218   53.5477   23.0009 H         1 UNK         0.0000 
     44 H44         2.0660   51.3942   23.8024 H         1 UNK         0.0000 
     45 H45         0.6243   51.4851   25.3821 H         1 UNK         0.0000 
     46 H46        -2.1509   51.8474   24.8388 H         1 UNK         0.0000 
     47 H47        -0.8114   50.8638   27.3463 H         1 UNK         0.0000 
     48 H48        -1.2947   52.5106   26.9762 H         1 UNK         0.0000 
     49 H49        -3.7256   51.8013   27.0091 H         1 UNK         0.0000 
     50 H50        -2.8812   51.2768   28.4978 H         1 UNK         0.0000 
     51 H51        -4.1884   50.0492   25.2014 H         1 UNK         0.0000 
     52 H52        -3.6197   48.3810   25.4702 H         1 UNK         0.0000 
     53 H53        -2.0919   49.6210   23.8796 H         1 UNK         0.0000 
     54 H54        -1.3069   48.9833   25.3110 H         1 UNK         0.0000 
     55 H55        -4.5331   49.7584   28.8502 H         1 UNK         0.0000 
     56 H56        -5.4382   49.6979   27.3168 H         1 UNK         0.0000 
     57 H57        -5.4609   47.4640   28.6576 H         1 UNK         0.0000 
     58 H58        -4.7314   47.2434   27.0783 H         1 UNK         0.0000 
     59 H59        -3.7092   47.3979   28.5060 H         1 UNK         0.0000 
     60 H60        -2.5503   49.1197   27.5382 H         1 UNK         0.0000 
@<TRIPOS>BOND
     1    1    2 1    
     2    1   29 1    
     3    1   30 1    
     4    1   31 1    
     5    2    3 1    
     6    2   32 1    
     7    2   33 1    
     8    3    4 1    
     9    3   34 1    
    10    3   35 1    
    11    4    5 1    
    12    4    6 1    
    13    4   17 1    
    14    6    7 2    
    15    6    8 am   BACKBONE|DICT|INTERRES
    16    8   16 1    
    17    8    9 1    
    18    9   10 1    
    19    9   36 1    
    20    9   37 1    
    21   10   11 1    
    22   10   38 1    
    23   10   39 1    
    24   11   15 1    
    25   11   12 2    
    26   12   13 1    
    27   12   16 1    
    28   13   14 2    
    29   13   40 1    
    30   14   15 1    
    31   14   41 1    
    32   16   42 1    
    33   16   43 1    
    34   17   18 am   BACKBONE|DICT|INTERRES
    35   17   44 1    
    36   18   19 2    
    37   18   20 am   BACKBONE|DICT|INTERRES
    38   20   21 1    
    39   20   45 1    
    40   21   26 1    
    41   21   22 1    
    42   21   46 1    
    43   22   23 1    
    44   22   47 1    
    45   22   48 1    
    46   23   24 1    
    47   23   49 1    
    48   23   50 1    
    49   24   25 1    
    50   24   27 1    
    51   24   60 1    
    52   25   26 1    
    53   25   51 1    
    54   25   52 1    
    55   26   53 1    
    56   26   54 1    
    57   27   28 1    
    58   27   55 1    
    59   27   56 1    
    60   28   57 1    
    61   28   58 1    
    62   28   59 1    
@<TRIPOS>SUBSTRUCTURE
     1 UNK         1 GROUP             0       ****    0 ROOT    
