@<TRIPOS>MOLECULE
ZINC03011009_2325
59   62    1
SMALL
USER_CHARGES


@<TRIPOS>ATOM
      1 C1          9.1425   54.4905   14.4845 C.3       1 UNK         0.0000 
      2 C2          8.2767   54.4706   15.7366 C.ar      1 UNK         0.0000 
      3 C3          8.8842   54.6316   16.9861 C.ar      1 UNK         0.0000 
      4 C4          8.1223   54.6250   18.1521 C.ar      1 UNK         0.0000 
      5 C5          6.7310   54.4532   18.0863 C.ar      1 UNK         0.0000 
      6 C6          6.1241   54.2716   16.8396 C.ar      1 UNK         0.0000 
      7 C7          6.8831   54.2862   15.6641 C.ar      1 UNK         0.0000 
      8 C8          6.1821   54.1099   14.3237 C.3       1 UNK         0.0000 
      9 N9          5.8983   54.3959   19.2173 N.am      1 UNK         0.0000 
     10 C10         6.1320   54.8979   20.4500 C.2       1 UNK         0.0000 
     11 O11         7.0837   55.6213   20.7610 O.2       1 UNK         0.0000 
     12 C12         5.1900   54.4562   21.4488 C.ar      1 UNK         0.0000 
     13 C13         5.5042   54.2908   22.8071 C.ar      1 UNK         0.0000 
     14 C14         4.3252   53.9421   23.4286 C.ar      1 UNK         0.0000 
     15 N15         3.3617   53.9549   22.4478 N.pl3     1 UNK         0.0000 
     16 N16         3.9059   54.2161   21.2465 N.2       1 UNK         0.0000 
     17 C17         1.9362   53.6572   22.6243 C.3       1 UNK         0.0000 
     18 H18         1.3779   54.4127   22.0820 H         1 UNK         0.0000 
     19 C19         1.6054   53.8322   24.1306 C.3       1 UNK         0.0000 
     20 C20         2.6610   53.1905   25.0624 C.3       1 UNK         0.0000 
     21 H21         2.6886   52.1159   24.8813 H         1 UNK         0.0000 
     22 N22         4.0057   53.6969   24.7399 N.pl3     1 UNK         0.0000 
     23 C23         2.2942   53.2741   26.5509 C.ar      1 UNK         0.0000 
     24 C24         1.1472   52.6486   27.0489 C.ar      1 UNK         0.0000 
     25 C25         0.8706   52.6653   28.4170 C.ar      1 UNK         0.0000 
     26 C26         1.7550   53.2793   29.3236 C.ar      1 UNK         0.0000 
     27 C27         2.9175   53.8956   28.8326 C.ar      1 UNK         0.0000 
     28 C28         3.1488   53.9092   27.4540 C.ar      1 UNK         0.0000 
     29 O29         3.8022   54.4640   29.7348 O.3       1 UNK         0.0000 
     30 C30         5.1491   54.6910   29.3123 C.3       1 UNK         0.0000 
     31 O31         1.5589   53.2966   30.6931 O.3       1 UNK         0.0000 
     32 C32         0.3532   52.7670   31.2379 C.3       1 UNK         0.0000 
     33 C33         1.5192   52.2822   22.0402 C.3       1 UNK         0.0000 
     34 F34         0.2186   52.0588   22.2425 F         1 UNK         0.0000 
     35 F35         1.7248   52.2128   20.7248 F         1 UNK         0.0000 
     36 F36         2.1853   51.2745   22.6040 F         1 UNK         0.0000 
     37 H37        10.2027   54.5856   14.7154 H         1 UNK         0.0000 
     38 H38         9.0048   53.5689   13.9185 H         1 UNK         0.0000 
     39 H39         8.8560   55.3219   13.8378 H         1 UNK         0.0000 
     40 H40         9.9547   54.7624   17.0588 H         1 UNK         0.0000 
     41 H41         8.6314   54.7303   19.0984 H         1 UNK         0.0000 
     42 H42         5.0549   54.1222   16.7798 H         1 UNK         0.0000 
     43 H43         5.0979   54.0362   14.4309 H         1 UNK         0.0000 
     44 H44         6.5407   53.2079   13.8247 H         1 UNK         0.0000 
     45 H45         6.3966   54.9570   13.6691 H         1 UNK         0.0000 
     46 H46         5.0366   53.8857   19.0936 H         1 UNK         0.0000 
     47 H47         6.4683   54.4196   23.2733 H         1 UNK         0.0000 
     48 H48         1.4999   54.8944   24.3574 H         1 UNK         0.0000 
     49 H49         0.6185   53.4190   24.3371 H         1 UNK         0.0000 
     50 H50         4.6967   53.2197   25.3003 H         1 UNK         0.0000 
     51 H51         0.4701   52.1391   26.3767 H         1 UNK         0.0000 
     52 H52        -0.0217   52.1644   28.7597 H         1 UNK         0.0000 
     53 H53         4.0201   54.4020   27.0625 H         1 UNK         0.0000 
     54 H54         5.6974   55.2274   30.0820 H         1 UNK         0.0000 
     55 H55         5.6614   53.7480   29.1267 H         1 UNK         0.0000 
     56 H56         5.2411   55.2963   28.4155 H         1 UNK         0.0000 
     57 H57         0.3427   52.9069   32.3201 H         1 UNK         0.0000 
     58 H58        -0.5117   53.2913   30.8330 H         1 UNK         0.0000 
     59 H59         0.2440   51.6968   31.0457 H         1 UNK         0.0000 
@<TRIPOS>BOND
     1    1    2 1    
     2    1   37 1    
     3    1   38 1    
     4    1   39 1    
     5    2    7 ar   
     6    2    3 ar   
     7    3    4 ar   
     8    3   40 1    
     9    4    5 ar   
    10    4   41 1    
    11    5    6 ar   
    12    5    9 1    
    13    6    7 ar   
    14    6   42 1    
    15    7    8 1    
    16    8   43 1    
    17    8   44 1    
    18    8   45 1    
    19    9   10 am   BACKBONE|DICT|INTERRES
    20    9   46 1    
    21   10   11 2    
    22   10   12 1    
    23   12   16 ar   
    24   12   13 ar   
    25   13   14 ar   
    26   13   47 1    
    27   14   22 1    
    28   14   15 ar   
    29   15   16 ar   
    30   15   17 1    
    31   17   18 1    
    32   17   19 1    
    33   17   33 1    
    34   19   20 1    
    35   19   48 1    
    36   19   49 1    
    37   20   21 1    
    38   20   22 1    
    39   20   23 1    
    40   22   50 1    
    41   23   28 ar   
    42   23   24 ar   
    43   24   25 ar   
    44   24   51 1    
    45   25   26 ar   
    46   25   52 1    
    47   26   27 ar   
    48   26   31 1    
    49   27   28 ar   
    50   27   29 1    
    51   28   53 1    
    52   29   30 1    
    53   30   54 1    
    54   30   55 1    
    55   30   56 1    
    56   31   32 1    
    57   32   57 1    
    58   32   58 1    
    59   32   59 1    
    60   33   34 1    
    61   33   35 1    
    62   33   36 1    
@<TRIPOS>SUBSTRUCTURE
     1 UNK         1 GROUP             0       ****    0 ROOT    
