@<TRIPOS>MOLECULE
ZINC01040679_869
43   45    1
SMALL
USER_CHARGES


@<TRIPOS>ATOM
      1 C1          3.9265   53.6967   26.5777 C.ar      1 UNK         0.0000 
      2 C2          3.5044   53.7185   25.2539 C.ar      1 UNK         0.0000 
      3 C3          4.3642   54.1458   24.2281 C.ar      1 UNK         0.0000 
      4 C4          5.6623   54.5423   24.5640 C.ar      1 UNK         0.0000 
      5 C5          6.0959   54.4834   25.8884 C.ar      1 UNK         0.0000 
      6 C6          5.2348   54.0564   26.9056 C.ar      1 UNK         0.0000 
      7 N7          5.7021   53.9504   28.2980 N.pl3     1 UNK         0.0000 
      8 O8          6.8883   53.6967   28.4817 O.co2     1 UNK         0.0000 
      9 O9          4.8740   54.0967   29.1941 O.co2     1 UNK         0.0000 
     10 Cl10        6.7441   55.1109   23.3439 Cl        1 UNK         0.0000 
     11 O11         3.9786   54.2174   22.9021 O.3       1 UNK         0.0000 
     12 C12         3.1702   53.2375   22.3743 C.ar      1 UNK         0.0000 
     13 C13         1.7870   53.3134   22.5232 C.ar      1 UNK         0.0000 
     14 C14         0.9625   52.2885   22.0681 C.ar      1 UNK         0.0000 
     15 C15         1.5233   51.1811   21.4316 C.ar      1 UNK         0.0000 
     16 C16         2.9065   51.1249   21.2271 C.ar      1 UNK         0.0000 
     17 C17         3.7238   52.1600   21.6817 C.ar      1 UNK         0.0000 
     18 Cl18        5.4239   52.0967   21.4221 Cl        1 UNK         0.0000 
     19 S19         0.4644   49.8714   20.8397 S.o2      1 UNK         0.0000 
     20 O20        -0.8678   50.0240   21.4313 O.2       1 UNK         0.0000 
     21 O21         1.2103   48.6089   20.8708 O.2       1 UNK         0.0000 
     22 N22         0.3062   50.3357   19.2251 N.pl3     1 UNK         0.0000 
     23 C23         1.2725   50.1719   18.3284 C.2       1 UNK         0.0000 
     24 C24         1.1961   50.9636   17.1101 C.ar      1 UNK         0.0000 
     25 C25         2.3044   51.6968   16.6568 C.ar      1 UNK         0.0000 
     26 C26         2.1948   52.4484   15.4861 C.ar      1 UNK         0.0000 
     27 N27         1.0539   52.5111   14.7554 N.ar      1 UNK         0.0000 
     28 C28        -0.0174   51.8067   15.1986 C.ar      1 UNK         0.0000 
     29 C29         0.0114   51.0316   16.3601 C.ar      1 UNK         0.0000 
     30 Cl30        1.1044   54.6918   23.2817 Cl        1 UNK         0.0000 
     31 H31         3.2432   53.3532   27.3421 H         1 UNK         0.0000 
     32 H32         2.5009   53.3854   25.0539 H         1 UNK         0.0000 
     33 H33         7.1044   54.7722   26.1303 H         1 UNK         0.0000 
     34 H34        -0.1062   52.3573   22.2125 H         1 UNK         0.0000 
     35 H35         3.3544   50.2855   20.7186 H         1 UNK         0.0000 
     36 H36        -0.4346   50.9972   19.0713 H         1 UNK         0.0000 
     37 H37         2.3288   48.7561   19.2926 H         1 UNK         0.0000 
     38 H38         3.2338   51.6967   17.2093 H         1 UNK         0.0000 
     39 H39         3.0352   53.0193   15.1179 H         1 UNK         0.0000 
     40 H40        -0.9122   51.8697   14.5961 H         1 UNK         0.0000 
     41 H41        -0.8657   50.4786   16.6639 H         1 UNK         0.0000 
     42 N42         2.3044   49.3601   18.4817 N.pl3     1 UNK         0.0000 
     43 H43         3.0342   49.2967   17.7545 H         1 UNK         0.0000 
@<TRIPOS>BOND
     1    1    6 ar   
     2    1    2 ar   
     3    1   31 1    
     4    2    3 ar   
     5    2   32 1    
     6    3    4 ar   
     7    3   11 1    
     8    4    5 ar   
     9    4   10 1    
    10    5    6 ar   
    11    5   33 1    
    12    6    7 1    
    13    7    8 2    
    14    7    9 1    
    15   11   12 1    
    16   12   17 ar   
    17   12   13 ar   
    18   13   14 ar   
    19   13   30 1    
    20   14   15 ar   
    21   14   34 1    
    22   15   16 ar   
    23   15   19 1    
    24   16   17 ar   
    25   16   35 1    
    26   17   18 1    
    27   19   20 2    
    28   19   21 2    
    29   19   22 1    
    30   22   23 1    
    31   22   36 1    
    32   23   24 1    
    33   23   42 2    
    34   24   29 ar   
    35   24   25 ar   
    36   25   26 ar   
    37   25   38 1    
    38   26   27 ar   
    39   26   39 1    
    40   27   28 ar   
    41   28   29 ar   
    42   28   40 1    
    43   29   41 1    
    44   37   42 1    
    45   42   43 1    
@<TRIPOS>SUBSTRUCTURE
     1 UNK         1 GROUP             0       ****    0 ROOT    
