@<TRIPOS>MOLECULE
ZINC59857083_5821
62   64    1
SMALL
USER_CHARGES


@<TRIPOS>ATOM
      1 C1         -0.0069   52.7313   30.1496 C.3       1 UNK         0.0000 
      2 C2          0.8877   51.9933   29.1296 C.3       1 UNK         0.0000 
      3 C3          0.0967   51.6399   27.8562 C.3       1 UNK         0.0000 
      4 C4          2.2206   52.7221   28.7903 C.3       1 UNK         0.0000 
      5 H5          2.7391   52.0984   28.0620 H         1 UNK         0.0000 
      6 C6          3.1807   52.7884   30.0071 C.2       1 UNK         0.0000 
      7 O7          3.5543   51.6967   30.4829 O.co2     1 UNK         0.0000 
      8 O8          3.5332   53.8903   30.4805 O.co2     1 UNK         0.0000 
      9 S9          2.0478   54.4068   28.0803 S.3       1 UNK         0.0000 
     10 C10         3.4137   54.3283   26.9642 C.ar      1 UNK         0.0000 
     11 N11         4.6602   54.4963   27.3214 N.2       1 UNK         0.0000 
     12 N12         5.4313   54.4292   26.1694 N.2       1 UNK         0.0000 
     13 C13         4.6267   54.2279   25.1495 C.ar      1 UNK         0.0000 
     14 N14         3.3227   54.1005   25.6074 N.pl3     1 UNK         0.0000 
     15 C15         2.0952   53.8927   24.8445 C.3       1 UNK         0.0000 
     16 C16         5.0942   54.2515   23.7169 C.ar      1 UNK         0.0000 
     17 C17         6.3022   54.8968   23.4180 C.ar      1 UNK         0.0000 
     18 C18         6.7037   55.0731   22.0986 C.ar      1 UNK         0.0000 
     19 C19         5.9045   54.5856   21.0531 C.ar      1 UNK         0.0000 
     20 C20         4.7431   53.8773   21.3447 C.ar      1 UNK         0.0000 
     21 C21         4.3476   53.7047   22.6649 C.ar      1 UNK         0.0000 
     22 N22         6.2706   54.6592   19.6994 N.am      1 UNK         0.0000 
     23 C23         7.1936   55.4585   19.1234 C.2       1 UNK         0.0000 
     24 O24         7.6362   56.4822   19.6538 O.2       1 UNK         0.0000 
     25 C25         7.6744   55.0198   17.7546 C.ar      1 UNK         0.0000 
     26 C26         7.4303   53.7240   17.2672 C.ar      1 UNK         0.0000 
     27 C27         7.9161   53.3286   16.0257 C.ar      1 UNK         0.0000 
     28 C28         8.6656   54.2102   15.2322 C.ar      1 UNK         0.0000 
     29 C29         8.9077   55.5015   15.7227 C.ar      1 UNK         0.0000 
     30 C30         8.4201   55.9021   16.9643 C.ar      1 UNK         0.0000 
     31 C31         9.2406   53.7960   13.8522 C.3       1 UNK         0.0000 
     32 C32        10.7873   53.8262   13.9087 C.3       1 UNK         0.0000 
     33 C33         8.7492   54.7747   12.7562 C.3       1 UNK         0.0000 
     34 C34         8.8161   52.3684   13.4136 C.3       1 UNK         0.0000 
     35 H35        -0.3490   53.6926   29.7653 H         1 UNK         0.0000 
     36 H36        -0.8903   52.1404   30.3991 H         1 UNK         0.0000 
     37 H37         0.5216   52.9176   31.0842 H         1 UNK         0.0000 
     38 H38         1.1514   51.0340   29.5743 H         1 UNK         0.0000 
     39 H39        -0.2341   52.5362   27.3289 H         1 UNK         0.0000 
     40 H40         0.7013   51.0513   27.1656 H         1 UNK         0.0000 
     41 H41        -0.7874   51.0455   28.0942 H         1 UNK         0.0000 
     42 H42         1.2200   54.0967   25.4546 H         1 UNK         0.0000 
     43 H43         2.0719   54.5598   23.9821 H         1 UNK         0.0000 
     44 H44         2.0433   52.8474   24.5356 H         1 UNK         0.0000 
     45 H45         6.9200   55.3089   24.2035 H         1 UNK         0.0000 
     46 H46         7.6417   55.5761   21.9161 H         1 UNK         0.0000 
     47 H47         4.1368   53.4576   20.5548 H         1 UNK         0.0000 
     48 H48         3.4466   53.1446   22.8397 H         1 UNK         0.0000 
     49 H49         5.8359   53.9734   19.1024 H         1 UNK         0.0000 
     50 H50         6.8775   52.9924   17.8406 H         1 UNK         0.0000 
     51 H51         7.7004   52.3197   15.7054 H         1 UNK         0.0000 
     52 H52         9.4902   56.2042   15.1461 H         1 UNK         0.0000 
     53 H53         8.6384   56.9037   17.3096 H         1 UNK         0.0000 
     54 H54        11.2289   53.5278   12.9563 H         1 UNK         0.0000 
     55 H55        11.1697   53.1426   14.6693 H         1 UNK         0.0000 
     56 H56        11.1718   54.8205   14.1401 H         1 UNK         0.0000 
     57 H57         7.6590   54.8031   12.7098 H         1 UNK         0.0000 
     58 H58         9.0944   55.7955   12.9257 H         1 UNK         0.0000 
     59 H59         9.1086   54.4818   11.7677 H         1 UNK         0.0000 
     60 H60         7.7310   52.2750   13.3389 H         1 UNK         0.0000 
     61 H61         9.2258   52.1127   12.4353 H         1 UNK         0.0000 
     62 H62         9.1731   51.6056   14.1083 H         1 UNK         0.0000 
@<TRIPOS>BOND
     1    1    2 1    
     2    1   35 1    
     3    1   36 1    
     4    1   37 1    
     5    2    3 1    
     6    2    4 1    
     7    2   38 1    
     8    3   39 1    
     9    3   40 1    
    10    3   41 1    
    11    4    5 1    
    12    4    6 1    
    13    4    9 1    
    14    6    7 2    
    15    6    8 1    
    16    9   10 1    
    17   10   14 ar   
    18   10   11 ar   
    19   11   12 ar   
    20   12   13 ar   
    21   13   14 ar   
    22   13   16 1    
    23   14   15 1    
    24   15   42 1    
    25   15   43 1    
    26   15   44 1    
    27   16   21 ar   
    28   16   17 ar   
    29   17   18 ar   
    30   17   45 1    
    31   18   19 ar   
    32   18   46 1    
    33   19   20 ar   
    34   19   22 1    
    35   20   21 ar   
    36   20   47 1    
    37   21   48 1    
    38   22   23 am   BACKBONE|DICT|INTERRES
    39   22   49 1    
    40   23   24 2    
    41   23   25 1    
    42   25   30 ar   
    43   25   26 ar   
    44   26   27 ar   
    45   26   50 1    
    46   27   28 ar   
    47   27   51 1    
    48   28   29 ar   
    49   28   31 1    
    50   29   30 ar   
    51   29   52 1    
    52   30   53 1    
    53   31   32 1    
    54   31   33 1    
    55   31   34 1    
    56   32   54 1    
    57   32   55 1    
    58   32   56 1    
    59   33   57 1    
    60   33   58 1    
    61   33   59 1    
    62   34   60 1    
    63   34   61 1    
    64   34   62 1    
@<TRIPOS>SUBSTRUCTURE
     1 UNK         1 GROUP             0       ****    0 ROOT    
