ZINC36053751_5962
                    3D
 Schrodinger Suite 2024-2.
 66 68  0  0  1  0            999 V2000
   -4.8344   49.5935   24.9060 C   0  0  0  0  0  0
   -4.1846   50.3454   23.7339 C   0  0  0  0  0  0
   -3.0218   51.1470   24.1500 N   0  0  0  0  0  0
   -3.3775   52.4989   24.6169 C   0  0  0  0  0  0
   -2.8906   53.6149   23.6830 C   0  0  0  0  0  0
   -1.7683   50.6064   24.1307 C   0  0  0  0  0  0
   -1.5415   49.4964   23.6445 O   0  0  0  0  0  0
   -0.6740   51.3720   24.7027 C   0  0  0  0  0  0
   -0.5269   51.5302   26.0526 C   0  0  0  0  0  0
    0.4868   52.2399   26.6248 N   0  0  0  0  0  0
    1.3703   52.7647   25.8723 C   0  0  0  0  0  0
    1.4255   52.7307   24.4787 N   0  0  0  0  0  0
    0.3344   52.0429   23.7146 C   0  0  1  0  0  0
   -0.1764   52.8552   23.2042 H   0  0  0  0  0  0
    0.8511   51.1084   22.6063 C   0  0  0  0  0  0
    1.8229   50.1522   22.9160 C   0  0  0  0  0  0
    2.3039   49.2957   21.9344 C   0  0  0  0  0  0
    1.8409   49.3871   20.6291 C   0  0  0  0  0  0
    0.8601   50.3202   20.3119 C   0  0  0  0  0  0
    0.3370   51.1815   21.2946 C   0  0  0  0  0  0
   -0.6732   52.0926   21.0301 O   0  0  0  0  0  0
   -1.2729   52.0965   19.7372 C   0  0  0  0  0  0
    2.4385   53.5056   23.9265 C   0  0  0  0  0  0
    3.2204   54.0693   24.8668 C   0  0  0  0  0  0
    2.7346   53.6961   26.5111 S   0  0  0  0  0  0
    2.6730   53.6878   22.5027 C   0  0  0  0  0  0
    3.8634   53.8324   21.8897 C   0  0  0  0  0  0
    5.0577   53.8175   22.3697 O   0  5  0  0  0  0
    3.9052   54.0631   20.5361 N   0  0  0  0  0  0
    4.7168   53.3687   19.5399 C   0  0  0  0  0  0
    4.8047   54.1336   18.2024 C   0  0  0  0  0  0
    5.8513   53.5007   17.2699 C   0  0  0  0  0  0
    3.4406   54.2398   17.4931 C   0  0  0  0  0  0
   -1.3997   50.9142   27.1427 C   0  0  0  0  0  0
   -5.6905   49.0135   24.5614 H   0  0  0  0  0  0
   -4.1328   48.8972   25.3678 H   0  0  0  0  0  0
   -5.1908   50.2804   25.6741 H   0  0  0  0  0  0
   -4.9263   50.9917   23.2615 H   0  0  0  0  0  0
   -3.8980   49.6217   22.9680 H   0  0  0  0  0  0
   -4.4600   52.5877   24.7248 H   0  0  0  0  0  0
   -2.9781   52.6548   25.6193 H   0  0  0  0  0  0
   -3.4928   54.5170   23.7928 H   0  0  0  0  0  0
   -1.8661   53.8896   23.9146 H   0  0  0  0  0  0
   -2.9150   53.2965   22.6424 H   0  0  0  0  0  0
    2.2004   50.0620   23.9236 H   0  0  0  0  0  0
    3.0543   48.5597   22.1826 H   0  0  0  0  0  0
    2.2383   48.7325   19.8663 H   0  0  0  0  0  0
    0.5181   50.3526   19.2893 H   0  0  0  0  0  0
   -2.0863   52.8198   19.7091 H   0  0  0  0  0  0
   -0.5533   52.3864   18.9691 H   0  0  0  0  0  0
   -1.6975   51.1230   19.4865 H   0  0  0  0  0  0
    4.0773   54.6999   24.6828 H   0  0  0  0  0  0
    1.7927   53.7191   21.8781 H   0  0  0  0  0  0
    3.0030   54.3049   20.1447 H   0  0  0  0  0  0
    4.3150   52.3659   19.3850 H   0  0  0  0  0  0
    5.7220   53.2372   19.9392 H   0  0  0  0  0  0
    5.1461   55.1468   18.4226 H   0  0  0  0  0  0
    5.5589   52.4961   16.9681 H   0  0  0  0  0  0
    6.8245   53.4286   17.7557 H   0  0  0  0  0  0
    5.9830   54.0903   16.3627 H   0  0  0  0  0  0
    3.0261   53.2535   17.2850 H   0  0  0  0  0  0
    2.7176   54.7828   18.0982 H   0  0  0  0  0  0
    3.5267   54.7699   16.5446 H   0  0  0  0  0  0
   -2.0390   50.1098   26.7790 H   0  0  0  0  0  0
   -0.7831   50.4967   27.9391 H   0  0  0  0  0  0
   -2.0373   51.6771   27.5888 H   0  0  0  0  0  0
  1  2  1  0  0  0
  1 35  1  0  0  0
  1 36  1  0  0  0
  1 37  1  0  0  0
  2  3  1  0  0  0
  2 38  1  0  0  0
  2 39  1  0  0  0
  3  4  1  0  0  0
  3  6  1  0  0  0
  4  5  1  0  0  0
  4 40  1  0  0  0
  4 41  1  0  0  0
  5 42  1  0  0  0
  5 43  1  0  0  0
  5 44  1  0  0  0
  6  7  2  0  0  0
  6  8  1  0  0  0
  8 13  1  0  0  0
  8  9  2  0  0  0
  9 10  1  0  0  0
  9 34  1  0  0  0
 10 11  2  0  0  0
 11 25  1  0  0  0
 11 12  1  0  0  0
 12 13  1  0  0  0
 12 23  1  0  0  0
 13 14  1  0  0  0
 13 15  1  0  0  0
 15 20  2  0  0  0
 15 16  1  0  0  0
 16 17  2  0  0  0
 16 45  1  0  0  0
 17 18  1  0  0  0
 17 46  1  0  0  0
 18 19  2  0  0  0
 18 47  1  0  0  0
 19 20  1  0  0  0
 19 48  1  0  0  0
 20 21  1  0  0  0
 21 22  1  0  0  0
 22 49  1  0  0  0
 22 50  1  0  0  0
 22 51  1  0  0  0
 23 24  2  0  0  0
 23 26  1  0  0  0
 24 25  1  0  0  0
 24 52  1  0  0  0
 26 27  2  0  0  0
 26 53  1  0  0  0
 27 28  1  0  0  0
 27 29  1  0  0  0
 29 30  1  0  0  0
 29 54  1  0  0  0
 30 31  1  0  0  0
 30 55  1  0  0  0
 30 56  1  0  0  0
 31 32  1  0  0  0
 31 33  1  0  0  0
 31 57  1  0  0  0
 32 58  1  0  0  0
 32 59  1  0  0  0
 32 60  1  0  0  0
 33 61  1  0  0  0
 33 62  1  0  0  0
 33 63  1  0  0  0
 34 64  1  0  0  0
 34 65  1  0  0  0
 34 66  1  0  0  0
M  CHG  1  28  -1
M  END
> <i_i_glide_confnum>
28

> <i_i_glide_lignum>
5963

> <i_i_glide_posenum>
228

> <i_i_glide_rotatable_bonds>
10

> <i_m_Source_File_Index>
4026

> <b_m_subgroup_collapsed>
0

> <r_i_docking_score>
-3.96598

> <r_i_glide_ecoul>
-2.11815

> <r_i_glide_eff_state_penalty>
0

> <r_i_glide_einternal>
4.26559

> <r_i_glide_emodel>
-45.6771

> <r_i_glide_energy>
-37.5202

> <r_i_glide_erotb>
0.549521

> <r_i_glide_esite>
-0.0205643

> <r_i_glide_evdw>
-35.4021

> <r_i_glide_gscore>
-3.96598

> <r_i_glide_hbond>
-0.32

> <r_i_glide_ligand_efficiency>
-0.120181

> <r_i_glide_ligand_efficiency_ln>
-0.882013

> <r_i_glide_ligand_efficiency_sa>
-0.385485

> <r_i_glide_lipo>
-1.42009

> <r_i_glide_metal>
0

> <r_i_glide_rewards>
-0.66702

> <s_i_glide_gridfile>
wee1_glide-grid

> <s_m_Source_File>
wee1_decoys_glide_SP.sdf

> <s_m_Source_Path>
/Users/zhangxujun/Desktop

> <s_m_entry_id>
4301

> <s_m_entry_name>
wee1_decoys_glide_SP.4026

> <s_m_subgroup_title>
wee1_decoys_glide_SP

> <s_m_subgroupid>
wee1_decoys_glide_SP


$$$$
