ZINC20119452_2356
                    3D
 Schrodinger Suite 2024-2.
 60 63  0  0  1  0            999 V2000
   -1.9711   50.9648   26.6205 C   0  0  0  0  0  0
   -0.4384   50.9507   26.8184 C   0  0  2  0  0  0
   -0.1372   49.9533   27.1528 H   0  0  0  0  0  0
    0.0125   51.8984   27.9487 C   0  0  0  0  0  0
   -0.4957   51.6968   29.2380 C   0  0  0  0  0  0
   -0.0954   52.5070   30.2944 C   0  0  0  0  0  0
    0.8045   53.5419   30.0689 C   0  0  0  0  0  0
    1.3221   53.7612   28.7946 C   0  0  0  0  0  0
    0.9346   52.9371   27.7404 C   0  0  0  0  0  0
    0.2559   51.1887   25.5504 N   0  0  0  0  0  0
    0.3759   50.3368   24.5165 C   0  0  0  0  0  0
   -0.0996   49.2020   24.5085 O   0  0  0  0  0  0
    1.1936   50.8539   23.3552 C   0  0  0  0  0  0
    1.2740   52.2269   23.0778 C   0  0  0  0  0  0
    2.0822   52.6875   22.0440 C   0  0  0  0  0  0
    2.8367   51.7794   21.2953 C   0  0  0  0  0  0
    2.7044   50.4105   21.5171 C   0  0  0  0  0  0
    1.8933   49.9524   22.5481 C   0  0  0  0  0  0
    3.7179   52.1988   20.2842 N   0  0  0  0  0  0
    4.6844   53.1685   20.2789 C   0  0  0  0  0  0
    5.1041   54.0986   21.6250 S   0  0  0  0  0  0
    5.2815   53.2275   19.0444 N   0  0  0  0  0  0
    6.0619   54.1661   18.4453 C   0  0  0  0  0  0
    6.3144   55.2854   18.8918 O   0  0  0  0  0  0
    6.5750   53.7734   17.1576 C   0  0  0  0  0  0
    7.0825   52.5469   16.8967 C   0  0  0  0  0  0
    7.5978   52.0970   15.5907 C   0  0  0  0  0  0
    6.9106   52.4500   14.4244 C   0  0  0  0  0  0
    7.3399   52.0211   13.1745 C   0  0  0  0  0  0
    8.4755   51.2294   13.0517 C   0  0  0  0  0  0
    9.2141   50.8579   14.1986 C   0  0  0  0  0  0
    8.7789   51.2957   15.4900 C   0  0  0  0  0  0
    9.5497   50.8973   16.6227 C   0  0  0  0  0  0
   10.6864   50.1084   16.4759 C   0  0  0  0  0  0
   11.1008   49.6941   15.2170 C   0  0  0  0  0  0
   10.3759   50.0531   14.0850 C   0  0  0  0  0  0
   -2.4965   50.6650   27.5285 H   0  0  0  0  0  0
   -2.3271   51.9555   26.3363 H   0  0  0  0  0  0
   -2.2786   50.2638   25.8443 H   0  0  0  0  0  0
   -1.1970   50.8986   29.4360 H   0  0  0  0  0  0
   -0.4959   52.3302   31.2815 H   0  0  0  0  0  0
    1.1003   54.1778   30.8886 H   0  0  0  0  0  0
    2.0237   54.5626   28.6224 H   0  0  0  0  0  0
    1.3605   53.1301   26.7695 H   0  0  0  0  0  0
    0.7929   52.0380   25.5047 H   0  0  0  0  0  0
    0.7247   52.9531   23.6570 H   0  0  0  0  0  0
    2.1345   53.7473   21.8434 H   0  0  0  0  0  0
    3.2488   49.6973   20.9149 H   0  0  0  0  0  0
    1.8355   48.8898   22.7372 H   0  0  0  0  0  0
    3.7070   51.6010   19.4679 H   0  0  0  0  0  0
    5.1494   52.3904   18.4902 H   0  0  0  0  0  0
    6.5442   54.5454   16.4022 H   0  0  0  0  0  0
    7.1047   51.7979   17.6783 H   0  0  0  0  0  0
    6.0148   53.0529   14.4884 H   0  0  0  0  0  0
    6.7816   52.3024   12.2930 H   0  0  0  0  0  0
    8.8056   50.8944   12.0787 H   0  0  0  0  0  0
    9.2622   51.2047   17.6165 H   0  0  0  0  0  0
   11.2512   49.8204   17.3515 H   0  0  0  0  0  0
   11.9875   49.0871   15.1128 H   0  0  0  0  0  0
   10.7041   49.7225   13.1090 H   0  0  0  0  0  0
  1  2  1  0  0  0
  1 37  1  0  0  0
  1 38  1  0  0  0
  1 39  1  0  0  0
  2  3  1  0  0  0
  2  4  1  0  0  0
  2 10  1  0  0  0
  4  9  2  0  0  0
  4  5  1  0  0  0
  5  6  2  0  0  0
  5 40  1  0  0  0
  6  7  1  0  0  0
  6 41  1  0  0  0
  7  8  2  0  0  0
  7 42  1  0  0  0
  8  9  1  0  0  0
  8 43  1  0  0  0
  9 44  1  0  0  0
 10 11  1  0  0  0
 10 45  1  0  0  0
 11 12  2  0  0  0
 11 13  1  0  0  0
 13 18  2  0  0  0
 13 14  1  0  0  0
 14 15  2  0  0  0
 14 46  1  0  0  0
 15 16  1  0  0  0
 15 47  1  0  0  0
 16 17  2  0  0  0
 16 19  1  0  0  0
 17 18  1  0  0  0
 17 48  1  0  0  0
 18 49  1  0  0  0
 19 20  1  0  0  0
 19 50  1  0  0  0
 20 21  2  0  0  0
 20 22  1  0  0  0
 22 23  1  0  0  0
 22 51  1  0  0  0
 23 24  2  0  0  0
 23 25  1  0  0  0
 25 26  2  0  0  0
 25 52  1  0  0  0
 26 27  1  0  0  0
 26 53  1  0  0  0
 27 32  2  0  0  0
 27 28  1  0  0  0
 28 29  2  0  0  0
 28 54  1  0  0  0
 29 30  1  0  0  0
 29 55  1  0  0  0
 30 31  2  0  0  0
 30 56  1  0  0  0
 31 36  1  0  0  0
 31 32  1  0  0  0
 32 33  1  0  0  0
 33 34  2  0  0  0
 33 57  1  0  0  0
 34 35  1  0  0  0
 34 58  1  0  0  0
 35 36  2  0  0  0
 35 59  1  0  0  0
 36 60  1  0  0  0
M  END
> <i_i_glide_confnum>
21

> <i_i_glide_lignum>
2357

> <i_i_glide_posenum>
139

> <i_i_glide_rotatable_bonds>
10

> <i_m_Source_File_Index>
1344

> <b_m_subgroup_collapsed>
0

> <r_i_docking_score>
-4.21764

> <r_i_glide_ecoul>
-6.40532

> <r_i_glide_eff_state_penalty>
0

> <r_i_glide_einternal>
9.48139

> <r_i_glide_emodel>
-60.5862

> <r_i_glide_energy>
-51.7413

> <r_i_glide_erotb>
0.705113

> <r_i_glide_esite>
-0.142047

> <r_i_glide_evdw>
-45.3359

> <r_i_glide_gscore>
-4.21764

> <r_i_glide_hbond>
-0.147726

> <r_i_glide_ligand_efficiency>
-0.120504

> <r_i_glide_ligand_efficiency_ln>
-0.925865

> <r_i_glide_ligand_efficiency_sa>
-0.394176

> <r_i_glide_lipo>
-1.38685

> <r_i_glide_metal>
0

> <r_i_glide_rewards>
-0.0185309

> <s_i_glide_gridfile>
wee1_glide-grid

> <s_m_Source_File>
wee1_decoys_glide_SP.sdf

> <s_m_Source_Path>
/Users/zhangxujun/Desktop

> <s_m_entry_id>
1619

> <s_m_entry_name>
wee1_decoys_glide_SP.1344

> <s_m_subgroup_title>
wee1_decoys_glide_SP

> <s_m_subgroupid>
wee1_decoys_glide_SP


$$$$
