@<TRIPOS>MOLECULE
ZINC07256781_1388
51   53    1
SMALL
USER_CHARGES


@<TRIPOS>ATOM
      1 C1          0.1589   53.8749   32.2840 C.3       1 UNK         0.0000 
      2 C2          0.4634   53.7099   30.8074 C.ar      1 UNK         0.0000 
      3 C3          1.0351   54.7559   30.0814 C.ar      1 UNK         0.0000 
      4 C4          1.3449   54.5763   28.7364 C.ar      1 UNK         0.0000 
      5 C5          1.1089   53.3415   28.1170 C.ar      1 UNK         0.0000 
      6 C6          0.5072   52.3080   28.8438 C.ar      1 UNK         0.0000 
      7 C7          0.1794   52.4967   30.1835 C.ar      1 UNK         0.0000 
      8 N8          1.5044   53.1497   26.7655 N.pl3     1 UNK         0.0000 
      9 C9          2.6956   53.5359   26.1520 C.ar      1 UNK         0.0000 
     10 N10         2.6536   53.2967   24.8636 N.2       1 UNK         0.0000 
     11 N11         1.4432   52.6777   24.5934 N.2       1 UNK         0.0000 
     12 C12         0.7728   52.5980   25.7154 C.ar      1 UNK         0.0000 
     13 S13        -0.8993   52.0088   25.7630 S.3       1 UNK         0.0000 
     14 C14        -0.7183   50.2040   26.0571 C.3       1 UNK         0.0000 
     15 H15        -1.1442   50.0967   27.0551 H         1 UNK         0.0000 
     16 C16         0.7044   49.6201   26.1077 C.3       1 UNK         0.0000 
     17 C17        -1.5641   49.3234   25.1109 C.2       1 UNK         0.0000 
     18 O18        -1.8038   49.6751   23.9530 O.2       1 UNK         0.0000 
     19 N19        -1.9654   48.1695   25.6817 N.am      1 UNK         0.0000 
     20 C20        -2.6539   47.1374   25.1645 C.2       1 UNK         0.0000 
     21 O21        -2.9412   46.9674   23.9776 O.2       1 UNK         0.0000 
     22 N22        -3.0218   46.3029   26.1497 N.am      1 UNK         0.0000 
     23 C23        -4.1370   45.3655   26.0818 C.3       1 UNK         0.0000 
     24 N24         3.7692   54.1182   26.8069 N.pl3     1 UNK         0.0000 
     25 C25         4.8960   54.6922   26.0578 C.3       1 UNK         0.0000 
     26 C26         6.1443   54.7121   26.9511 C.3       1 UNK         0.0000 
     27 C27         5.6222   54.2767   28.3066 C.3       1 UNK         0.0000 
     28 C28         4.4008   53.4440   27.9406 C.3       1 UNK         0.0000 
     29 H29        -0.8956   53.6968   32.4815 H         1 UNK         0.0000 
     30 H30         0.7066   53.1377   32.8716 H         1 UNK         0.0000 
     31 H31         0.4063   54.8701   32.6487 H         1 UNK         0.0000 
     32 H32         1.2425   55.7046   30.5559 H         1 UNK         0.0000 
     33 H33         1.7903   55.3937   28.1870 H         1 UNK         0.0000 
     34 H34         0.3029   51.3500   28.3959 H         1 UNK         0.0000 
     35 H35        -0.2843   51.6970   30.7452 H         1 UNK         0.0000 
     36 H36         0.7100   48.5530   26.3421 H         1 UNK         0.0000 
     37 H37         1.1975   49.7352   25.1420 H         1 UNK         0.0000 
     38 H38         1.3042   50.0959   26.8817 H         1 UNK         0.0000 
     39 H39        -1.7304   48.0967   26.6705 H         1 UNK         0.0000 
     40 H40        -2.5978   46.4232   27.0607 H         1 UNK         0.0000 
     41 H41        -3.8449   44.4049   26.5074 H         1 UNK         0.0000 
     42 H42        -4.4956   45.2057   25.0639 H         1 UNK         0.0000 
     43 H43        -4.9692   45.7487   26.6724 H         1 UNK         0.0000 
     44 H44         5.1235   54.0675   25.1917 H         1 UNK         0.0000 
     45 H45         4.6504   55.6849   25.6804 H         1 UNK         0.0000 
     46 H46         6.8844   53.9953   26.5896 H         1 UNK         0.0000 
     47 H47         6.6095   55.6963   27.0053 H         1 UNK         0.0000 
     48 H48         5.3392   55.1234   28.9348 H         1 UNK         0.0000 
     49 H49         6.3587   53.7007   28.8685 H         1 UNK         0.0000 
     50 H50         3.7106   53.3705   28.7795 H         1 UNK         0.0000 
     51 H51         4.6718   52.4243   27.6733 H         1 UNK         0.0000 
@<TRIPOS>BOND
     1    1    2 1    
     2    1   29 1    
     3    1   30 1    
     4    1   31 1    
     5    2    7 ar   
     6    2    3 ar   
     7    3    4 ar   
     8    3   32 1    
     9    4    5 ar   
    10    4   33 1    
    11    5    6 ar   
    12    5    8 1    
    13    6    7 ar   
    14    6   34 1    
    15    7   35 1    
    16    8   12 ar   
    17    8    9 ar   
    18    9   10 ar   
    19    9   24 1    
    20   10   11 ar   
    21   11   12 ar   
    22   12   13 1    
    23   13   14 1    
    24   14   15 1    
    25   14   16 1    
    26   14   17 1    
    27   16   36 1    
    28   16   37 1    
    29   16   38 1    
    30   17   18 2    
    31   17   19 am   BACKBONE|DICT|INTERRES
    32   19   20 am   BACKBONE|DICT|INTERRES
    33   19   39 1    
    34   20   21 2    
    35   20   22 am   BACKBONE|DICT|INTERRES
    36   22   23 1    
    37   22   40 1    
    38   23   41 1    
    39   23   42 1    
    40   23   43 1    
    41   24   28 1    
    42   24   25 1    
    43   25   26 1    
    44   25   44 1    
    45   25   45 1    
    46   26   27 1    
    47   26   46 1    
    48   26   47 1    
    49   27   28 1    
    50   27   48 1    
    51   27   49 1    
    52   28   50 1    
    53   28   51 1    
@<TRIPOS>SUBSTRUCTURE
     1 UNK         1 GROUP             0       ****    0 ROOT    
