ZINC61327823_1913
                    3D
 Schrodinger Suite 2024-2.
 40 42  0  0  1  0            999 V2000
   -4.9203   50.4504   29.0178 C   0  0  0  0  0  0
   -3.6958   50.2933   28.2425 N   0  0  0  0  0  0
   -3.2610   51.1618   27.3181 C   0  0  0  0  0  0
   -3.9392   52.0924   26.8777 O   0  0  0  0  0  0
   -1.9846   50.8969   26.9799 N   0  0  0  0  0  0
   -1.1649   51.5736   26.0591 C   0  0  0  0  0  0
    0.2128   51.4882   26.2621 C   0  0  0  0  0  0
    1.0870   52.1597   25.4106 C   0  0  0  0  0  0
    0.5992   52.9205   24.3429 C   0  0  0  0  0  0
   -0.7772   52.9497   24.1081 C   0  0  0  0  0  0
   -1.6585   52.2868   24.9588 C   0  0  0  0  0  0
    1.4393   53.6767   23.5004 N   0  0  0  0  0  0
    2.8538   53.3424   23.3261 C   0  0  1  0  0  0
    2.9354   52.2616   23.4278 H   0  0  0  0  0  0
    3.2650   53.6898   21.8782 C   0  0  0  0  0  0
    4.7437   53.3335   21.6224 C   0  0  0  0  0  0
    5.7169   54.1668   22.4858 C   0  0  0  0  0  0
    5.1637   54.3197   23.8954 C   0  0  0  0  0  0
    3.8427   54.0334   24.2839 C   0  0  0  0  0  0
    3.6239   54.3893   25.6251 C   0  0  0  0  0  0
    4.7515   54.8945   26.2545 C   0  0  0  0  0  0
    6.1115   54.9783   25.1931 S   0  0  0  0  0  0
   -4.7911   49.9962   30.0014 H   0  0  0  0  0  0
   -5.7534   49.9550   28.5159 H   0  0  0  0  0  0
   -5.1783   51.5014   29.1626 H   0  0  0  0  0  0
   -3.1035   49.5003   28.4750 H   0  0  0  0  0  0
   -1.5403   50.1476   27.4971 H   0  0  0  0  0  0
    0.6112   50.9208   27.0919 H   0  0  0  0  0  0
    2.1441   52.0969   25.6051 H   0  0  0  0  0  0
   -1.1860   53.5068   23.2818 H   0  0  0  0  0  0
   -2.7174   52.3385   24.7553 H   0  0  0  0  0  0
    1.0076   54.0903   22.6868 H   0  0  0  0  0  0
    2.6350   53.1490   21.1694 H   0  0  0  0  0  0
    3.1046   54.7514   21.6811 H   0  0  0  0  0  0
    4.8986   52.2713   21.8204 H   0  0  0  0  0  0
    4.9826   53.4706   20.5664 H   0  0  0  0  0  0
    6.7020   53.7024   22.5012 H   0  0  0  0  0  0
    5.8353   55.1515   22.0328 H   0  0  0  0  0  0
    2.6766   54.2668   26.1284 H   0  0  0  0  0  0
    4.8454   55.2194   27.2802 H   0  0  0  0  0  0
  1  2  1  0  0  0
  1 23  1  0  0  0
  1 24  1  0  0  0
  1 25  1  0  0  0
  2  3  1  0  0  0
  2 26  1  0  0  0
  3  4  2  0  0  0
  3  5  1  0  0  0
  5  6  1  0  0  0
  5 27  1  0  0  0
  6 11  2  0  0  0
  6  7  1  0  0  0
  7  8  2  0  0  0
  7 28  1  0  0  0
  8  9  1  0  0  0
  8 29  1  0  0  0
  9 10  2  0  0  0
  9 12  1  0  0  0
 10 11  1  0  0  0
 10 30  1  0  0  0
 11 31  1  0  0  0
 12 13  1  0  0  0
 12 32  1  0  0  0
 13 14  1  0  0  0
 13 19  1  0  0  0
 13 15  1  0  0  0
 15 16  1  0  0  0
 15 33  1  0  0  0
 15 34  1  0  0  0
 16 17  1  0  0  0
 16 35  1  0  0  0
 16 36  1  0  0  0
 17 18  1  0  0  0
 17 37  1  0  0  0
 17 38  1  0  0  0
 18 22  1  0  0  0
 18 19  2  0  0  0
 19 20  1  0  0  0
 20 21  2  0  0  0
 20 39  1  0  0  0
 21 22  1  0  0  0
 21 40  1  0  0  0
M  END
> <i_i_glide_confnum>
25

> <i_i_glide_lignum>
1914

> <i_i_glide_posenum>
361

> <i_i_glide_rotatable_bonds>
5

> <i_m_Source_File_Index>
857

> <b_m_subgroup_collapsed>
0

> <r_i_docking_score>
-5.47086

> <r_i_glide_ecoul>
-4.01144

> <r_i_glide_eff_state_penalty>
0

> <r_i_glide_einternal>
3.12248

> <r_i_glide_emodel>
-43.78

> <r_i_glide_energy>
-32.4722

> <r_i_glide_erotb>
0.810003

> <r_i_glide_esite>
-0.246901

> <r_i_glide_evdw>
-28.4608

> <r_i_glide_gscore>
-5.47086

> <r_i_glide_hbond>
-0.304

> <r_i_glide_ligand_efficiency>
-0.260517

> <r_i_glide_ligand_efficiency_ln>
-1.35266

> <r_i_glide_ligand_efficiency_sa>
-0.718747

> <r_i_glide_lipo>
-2.28038

> <r_i_glide_metal>
0

> <r_i_glide_rewards>
-1.42483

> <s_i_glide_gridfile>
wee1_glide-grid

> <s_m_Source_File>
wee1_decoys_glide_SP.sdf

> <s_m_Source_Path>
/Users/zhangxujun/Desktop

> <s_m_entry_id>
1132

> <s_m_entry_name>
wee1_decoys_glide_SP.857

> <s_m_subgroup_title>
wee1_decoys_glide_SP

> <s_m_subgroupid>
wee1_decoys_glide_SP


$$$$
