ZINC02699225_4515
                    3D
 Schrodinger Suite 2024-2.
 51 54  0  0  1  0            999 V2000
    3.7592   53.4531   20.7931 C   0  0  0  0  0  0
    4.5525   53.9773   21.9869 C   0  0  0  0  0  0
    5.8265   54.4968   21.7349 C   0  0  0  0  0  0
    6.6327   54.9390   22.7778 C   0  0  0  0  0  0
    6.1621   54.8809   24.0845 C   0  0  0  0  0  0
    4.8811   54.3926   24.3435 C   0  0  0  0  0  0
    4.0457   53.9421   23.3048 C   0  0  0  0  0  0
    2.7411   53.4264   23.4981 N   0  0  0  0  0  0
    1.9349   53.1674   24.5912 C   0  0  0  0  0  0
    0.7178   52.4739   24.5592 C   0  0  0  0  0  0
    0.1705   52.3045   25.8418 C   0  0  0  0  0  0
    0.9551   52.8125   26.8770 C   0  0  0  0  0  0
    2.3027   53.6860   26.2127 S   0  0  0  0  0  0
    0.6821   52.7790   28.3202 C   0  0  0  0  0  0
   -0.4935   52.8974   28.6739 O   0  0  0  0  0  0
    1.7553   52.5250   29.3464 C   0  0  0  0  0  0
    3.1126   52.3369   29.0365 C   0  0  0  0  0  0
    4.0473   52.1025   30.0386 C   0  0  0  0  0  0
    3.6270   51.9973   31.3577 C   0  0  0  0  0  0
    2.2765   52.0967   31.6753 C   0  0  0  0  0  0
    1.3549   52.4070   30.6862 C   0  0  0  0  0  0
   -1.0199   51.6706   26.0676 N   0  0  0  0  0  0
   -0.0854   51.8443   23.0495 S   0  0  0  0  0  0
   -1.3192   52.6197   22.8813 O   0  0  0  0  0  0
    0.9309   51.7781   21.9936 O   0  0  0  0  0  0
   -0.5873   50.1735   23.4366 C   0  0  0  0  0  0
    0.3312   49.2951   24.0081 C   0  0  0  0  0  0
   -0.0960   48.0408   24.4279 C   0  0  0  0  0  0
   -1.4234   47.6579   24.2520 C   0  0  0  0  0  0
   -2.3350   48.5242   23.6537 C   0  0  0  0  0  0
   -1.9174   49.7870   23.2457 C   0  0  0  0  0  0
   -1.9417   46.0970   24.7719 Cl  0  0  0  0  0  0
    4.0918   53.9003   19.8553 H   0  0  0  0  0  0
    3.8502   52.3686   20.7191 H   0  0  0  0  0  0
    2.7040   53.6967   20.8820 H   0  0  0  0  0  0
    6.2081   54.5356   20.7243 H   0  0  0  0  0  0
    7.6189   55.3266   22.5691 H   0  0  0  0  0  0
    6.7883   55.2190   24.8960 H   0  0  0  0  0  0
    4.5868   54.3757   25.3734 H   0  0  0  0  0  0
    2.3724   53.1086   22.6088 H   0  0  0  0  0  0
    3.4908   52.3416   28.0299 H   0  0  0  0  0  0
    5.0942   51.9824   29.7891 H   0  0  0  0  0  0
    4.3493   51.7861   32.1306 H   0  0  0  0  0  0
    1.9219   51.9436   32.6798 H   0  0  0  0  0  0
    0.3164   52.4988   30.9790 H   0  0  0  0  0  0
   -1.5725   51.2676   25.3257 H   0  0  0  0  0  0
   -1.3536   51.5267   27.0124 H   0  0  0  0  0  0
    1.3609   49.5876   24.1591 H   0  0  0  0  0  0
    0.6116   47.3646   24.8818 H   0  0  0  0  0  0
   -3.3645   48.2259   23.5209 H   0  0  0  0  0  0
   -2.6339   50.4661   22.8069 H   0  0  0  0  0  0
  1  2  1  0  0  0
  1 33  1  0  0  0
  1 34  1  0  0  0
  1 35  1  0  0  0
  2  7  2  0  0  0
  2  3  1  0  0  0
  3  4  2  0  0  0
  3 36  1  0  0  0
  4  5  1  0  0  0
  4 37  1  0  0  0
  5  6  2  0  0  0
  5 38  1  0  0  0
  6  7  1  0  0  0
  6 39  1  0  0  0
  7  8  1  0  0  0
  8  9  1  0  0  0
  8 40  1  0  0  0
  9 13  1  0  0  0
  9 10  2  0  0  0
 10 11  1  0  0  0
 10 23  1  0  0  0
 11 12  2  0  0  0
 11 22  1  0  0  0
 12 13  1  0  0  0
 12 14  1  0  0  0
 14 15  2  0  0  0
 14 16  1  0  0  0
 16 21  2  0  0  0
 16 17  1  0  0  0
 17 18  2  0  0  0
 17 41  1  0  0  0
 18 19  1  0  0  0
 18 42  1  0  0  0
 19 20  2  0  0  0
 19 43  1  0  0  0
 20 21  1  0  0  0
 20 44  1  0  0  0
 21 45  1  0  0  0
 22 46  1  0  0  0
 22 47  1  0  0  0
 23 24  2  0  0  0
 23 25  2  0  0  0
 23 26  1  0  0  0
 26 31  2  0  0  0
 26 27  1  0  0  0
 27 28  2  0  0  0
 27 48  1  0  0  0
 28 29  1  0  0  0
 28 49  1  0  0  0
 29 30  2  0  0  0
 29 32  1  0  0  0
 30 31  1  0  0  0
 30 50  1  0  0  0
 31 51  1  0  0  0
M  END
> <i_i_glide_confnum>
85

> <i_i_glide_lignum>
4516

> <i_i_glide_posenum>
340

> <i_i_glide_rotatable_bonds>
6

> <i_m_Source_File_Index>
4257

> <b_m_subgroup_collapsed>
0

> <r_i_docking_score>
-5.81327

> <r_i_glide_ecoul>
-6.88546

> <r_i_glide_eff_state_penalty>
0

> <r_i_glide_einternal>
10.6256

> <r_i_glide_emodel>
-58.4725

> <r_i_glide_energy>
-47.3488

> <r_i_glide_erotb>
0.52203

> <r_i_glide_esite>
-0.0292886

> <r_i_glide_evdw>
-40.4633

> <r_i_glide_gscore>
-5.81327

> <r_i_glide_hbond>
0

> <r_i_glide_ligand_efficiency>
-0.181665

> <r_i_glide_ligand_efficiency_ln>
-1.30175

> <r_i_glide_ligand_efficiency_sa>
-0.576749

> <r_i_glide_lipo>
-2.83513

> <r_i_glide_metal>
0

> <r_i_glide_rewards>
-0.414892

> <s_i_glide_gridfile>
wee1_glide-grid

> <s_m_Source_File>
wee1_decoys_glide_SP.sdf

> <s_m_Source_Path>
/Users/zhangxujun/Desktop

> <s_m_entry_id>
4532

> <s_m_entry_name>
wee1_decoys_glide_SP.4257

> <s_m_subgroup_title>
wee1_decoys_glide_SP

> <s_m_subgroupid>
wee1_decoys_glide_SP


$$$$
