@<TRIPOS>MOLECULE
ZINC06232740_1163
48   50    1
SMALL
USER_CHARGES


@<TRIPOS>ATOM
      1 C1          0.6979   49.5570   24.2762 C.3       1 UNK         0.0000 
      2 C2          0.1416   50.2864   23.0278 C.3       1 UNK         0.0000 
      3 C3          1.3475   51.0244   22.3110 C.3       1 UNK         0.0000 
      4 H4          2.1554   50.3099   22.1406 H         1 UNK         0.0000 
      5 C5          1.9306   52.2329   23.1338 C.3       1 UNK         0.0000 
      6 H6          2.2673   51.8281   24.0878 H         1 UNK         0.0000 
      7 C7         -0.3915   52.5860   24.2909 C.3       1 UNK         0.0000 
      8 H8         -1.1310   53.3893   24.2691 H         1 UNK         0.0000 
      9 C9         -0.9215   51.3828   23.4298 C.3       1 UNK         0.0000 
     10 H10        -1.2665   51.8152   22.4912 H         1 UNK         0.0000 
     11 N11        -2.2541   50.8791   23.9399 N.pl3     1 UNK         0.0000 
     12 O12        -2.3298   49.7864   24.4892 O.co2     1 UNK         0.0000 
     13 O13        -3.2193   51.6224   23.7837 O.co2     1 UNK         0.0000 
     14 C14        -0.0837   52.3923   25.8046 C.ar      1 UNK         0.0000 
     15 C15         1.1112   52.8561   26.3866 C.ar      1 UNK         0.0000 
     16 C16         1.3363   52.7495   27.7572 C.ar      1 UNK         0.0000 
     17 C17         0.3701   52.1761   28.5761 C.ar      1 UNK         0.0000 
     18 C18        -0.8131   51.6959   28.0259 C.ar      1 UNK         0.0000 
     19 C19        -1.0444   51.8241   26.6579 C.ar      1 UNK         0.0000 
     20 Br20        0.6499   52.0974   30.4599 Br        1 UNK         0.0000 
     21 C21         3.1355   53.0500   22.6167 C.ar      1 UNK         0.0000 
     22 C22         3.5096   53.1406   21.2657 C.ar      1 UNK         0.0000 
     23 C23         4.6392   53.8623   20.8851 C.ar      1 UNK         0.0000 
     24 C24         5.4212   54.4894   21.8504 C.ar      1 UNK         0.0000 
     25 C25         5.0809   54.3954   23.1946 C.ar      1 UNK         0.0000 
     26 C26         3.9377   53.6971   23.5698 C.ar      1 UNK         0.0000 
     27 Br27        6.9633   55.4808   21.3383 Br        1 UNK         0.0000 
     28 N28         0.9505   51.4439   20.9109 N.pl3     1 UNK         0.0000 
     29 O29         0.2874   52.4669   20.7604 O.co2     1 UNK         0.0000 
     30 O30         1.3155   50.7274   19.9836 O.co2     1 UNK         0.0000 
     31 C31        -0.4919   49.2335   22.0656 C.3       1 UNK         0.0000 
     32 H32         1.5044   48.8967   23.9802 H         1 UNK         0.0000 
     33 H33         1.1029   50.2117   25.0422 H         1 UNK         0.0000 
     34 H34        -0.0412   48.9233   24.7668 H         1 UNK         0.0000 
     35 H35         1.8787   53.3386   25.8075 H         1 UNK         0.0000 
     36 H36         2.2533   53.1263   28.1875 H         1 UNK         0.0000 
     37 H37        -1.5606   51.2383   28.6601 H         1 UNK         0.0000 
     38 H38        -2.0029   51.4908   26.3003 H         1 UNK         0.0000 
     39 H39         2.9585   52.6722   20.4707 H         1 UNK         0.0000 
     40 H40         4.9077   53.9284   19.8405 H         1 UNK         0.0000 
     41 H41         5.6961   54.8721   23.9433 H         1 UNK         0.0000 
     42 H42         3.7074   53.6348   24.6218 H         1 UNK         0.0000 
     43 H43         0.2405   48.5004   21.7106 H         1 UNK         0.0000 
     44 H44        -1.2672   48.6450   22.5560 H         1 UNK         0.0000 
     45 H45        -0.9601   49.6841   21.1895 H         1 UNK         0.0000 
     46 N46         0.7999   53.2114   23.5191 N.4       1 UNK         0.0000 
     47 H47         0.4884   53.7118   22.6973 H         1 UNK         0.0000 
     48 H48         1.2050   53.9321   24.0993 H         1 UNK         0.0000 
@<TRIPOS>BOND
     1    1    2 1    
     2    1   32 1    
     3    1   33 1    
     4    1   34 1    
     5    2    9 1    
     6    2    3 1    
     7    2   31 1    
     8    3    4 1    
     9    3    5 1    
    10    3   28 1    
    11    5    6 1    
    12    5   21 1    
    13    5   46 1    
    14    7    8 1    
    15    7    9 1    
    16    7   14 1    
    17    7   46 1    
    18    9   10 1    
    19    9   11 1    
    20   11   12 2    
    21   11   13 1    
    22   14   19 ar   
    23   14   15 ar   
    24   15   16 ar   
    25   15   35 1    
    26   16   17 ar   
    27   16   36 1    
    28   17   18 ar   
    29   17   20 1    
    30   18   19 ar   
    31   18   37 1    
    32   19   38 1    
    33   21   26 ar   
    34   21   22 ar   
    35   22   23 ar   
    36   22   39 1    
    37   23   24 ar   
    38   23   40 1    
    39   24   25 ar   
    40   24   27 1    
    41   25   26 ar   
    42   25   41 1    
    43   26   42 1    
    44   28   29 2    
    45   28   30 1    
    46   31   43 1    
    47   31   44 1    
    48   31   45 1    
    49   46   47 1    
    50   46   48 1    
@<TRIPOS>SUBSTRUCTURE
     1 UNK         1 GROUP             0       ****    0 ROOT    
