@<TRIPOS>MOLECULE
ZINC13027651_1983
44   46    1
SMALL
USER_CHARGES


@<TRIPOS>ATOM
      1 C1          6.5780   54.0973   27.4018 C.ar      1 UNK         0.0000 
      2 C2          6.4343   54.1061   26.0225 C.ar      1 UNK         0.0000 
      3 C3          5.1645   54.0968   25.4588 C.ar      1 UNK         0.0000 
      4 C4          4.0106   54.0635   26.2565 C.ar      1 UNK         0.0000 
      5 C5          4.1493   54.1011   27.6761 C.ar      1 UNK         0.0000 
      6 C6          5.4498   54.0962   28.2133 C.ar      1 UNK         0.0000 
      7 C7          2.9793   54.1902   28.6366 C.2       1 UNK         0.0000 
      8 O8          3.2116   54.0967   29.8686 O.co2     1 UNK         0.0000 
      9 N9          2.7314   54.0967   25.6665 N.pl3     1 UNK         0.0000 
     10 S10         2.2035   53.5888   24.0382 S.o2      1 UNK         0.0000 
     11 O11         1.1045   54.4885   23.6819 O.2       1 UNK         0.0000 
     12 O12         3.3550   53.4334   23.1443 O.2       1 UNK         0.0000 
     13 C13         1.4526   51.9833   24.2483 C.ar      1 UNK         0.0000 
     14 C14         1.7125   50.9465   23.3485 C.ar      1 UNK         0.0000 
     15 C15         1.1044   49.7043   23.5290 C.ar      1 UNK         0.0000 
     16 C16         0.2212   49.5008   24.5911 C.ar      1 UNK         0.0000 
     17 C17        -0.0814   50.5457   25.4679 C.ar      1 UNK         0.0000 
     18 C18         0.5507   51.7847   25.2975 C.ar      1 UNK         0.0000 
     19 N19        -1.0245   50.3253   26.4817 N.pl3     1 UNK         0.0000 
     20 S20        -1.9072   51.6279   27.2820 S.o2      1 UNK         0.0000 
     21 O21        -1.0831   52.0366   28.4247 O.2       1 UNK         0.0000 
     22 O22        -2.2893   52.5874   26.2387 O.2       1 UNK         0.0000 
     23 C23        -3.4272   50.8967   27.8949 C.ar      1 UNK         0.0000 
     24 C24        -3.5627   50.4968   29.2299 C.ar      1 UNK         0.0000 
     25 C25        -4.7584   49.9341   29.6771 C.ar      1 UNK         0.0000 
     26 C26        -5.8214   49.7602   28.7922 C.ar      1 UNK         0.0000 
     27 C27        -5.6894   50.1475   27.4596 C.ar      1 UNK         0.0000 
     28 C28        -4.4966   50.7143   27.0117 C.ar      1 UNK         0.0000 
     29 F29        -6.7195   49.9756   26.6013 F         1 UNK         0.0000 
     30 F30        -4.8945   49.5606   30.9689 F         1 UNK         0.0000 
     31 H31         7.5594   54.1106   27.8504 H         1 UNK         0.0000 
     32 H32         7.3031   54.1280   25.3820 H         1 UNK         0.0000 
     33 H33         5.1177   54.1427   24.3864 H         1 UNK         0.0000 
     34 H34         5.6037   54.1265   29.2814 H         1 UNK         0.0000 
     35 H35         1.9931   54.3331   26.3250 H         1 UNK         0.0000 
     36 H36         2.3933   51.0965   22.5227 H         1 UNK         0.0000 
     37 H37         1.3268   48.8970   22.8484 H         1 UNK         0.0000 
     38 H38        -0.2400   48.5322   24.7205 H         1 UNK         0.0000 
     39 H39         0.3426   52.6008   25.9749 H         1 UNK         0.0000 
     40 H40        -1.2955   49.3802   26.7324 H         1 UNK         0.0000 
     41 H41        -2.7376   50.5972   29.9223 H         1 UNK         0.0000 
     42 H42        -6.7445   49.3215   29.1393 H         1 UNK         0.0000 
     43 H43        -4.4053   51.0112   25.9768 H         1 UNK         0.0000 
     44 O44         1.8336   54.3840   28.1666 O.co2     1 UNK         0.0000 
@<TRIPOS>BOND
     1    1    6 ar   
     2    1    2 ar   
     3    1   31 1    
     4    2    3 ar   
     5    2   32 1    
     6    3    4 ar   
     7    3   33 1    
     8    4    5 ar   
     9    4    9 1    
    10    5    6 ar   
    11    5    7 1    
    12    6   34 1    
    13    7    8 2    
    14    7   44 1    
    15    9   10 1    
    16    9   35 1    
    17   10   11 2    
    18   10   12 2    
    19   10   13 1    
    20   13   18 ar   
    21   13   14 ar   
    22   14   15 ar   
    23   14   36 1    
    24   15   16 ar   
    25   15   37 1    
    26   16   17 ar   
    27   16   38 1    
    28   17   18 ar   
    29   17   19 1    
    30   18   39 1    
    31   19   20 1    
    32   19   40 1    
    33   20   21 2    
    34   20   22 2    
    35   20   23 1    
    36   23   28 ar   
    37   23   24 ar   
    38   24   25 ar   
    39   24   41 1    
    40   25   26 ar   
    41   25   30 1    
    42   26   27 ar   
    43   26   42 1    
    44   27   28 ar   
    45   27   29 1    
    46   28   43 1    
@<TRIPOS>SUBSTRUCTURE
     1 UNK         1 GROUP             0       ****    0 ROOT    
