@<TRIPOS>MOLECULE
ZINC09242496_3635
48   51    1
SMALL
USER_CHARGES


@<TRIPOS>ATOM
      1 C1          6.7041   54.7716   23.1386 C.3       1 UNK         0.0000 
      2 C2          6.7455   55.5088   24.4874 C.3       1 UNK         0.0000 
      3 C3          6.0433   54.7620   25.6188 C.3       1 UNK         0.0000 
      4 O4          4.7150   54.5705   25.1732 O.3       1 UNK         0.0000 
      5 C5          3.7843   54.0199   26.0131 C.ar      1 UNK         0.0000 
      6 C6          2.5436   53.7982   25.4391 C.ar      1 UNK         0.0000 
      7 C7          1.5051   53.2982   26.2031 C.ar      1 UNK         0.0000 
      8 C8          1.6862   52.9751   27.5465 C.ar      1 UNK         0.0000 
      9 C9          2.9541   53.1714   28.1164 C.ar      1 UNK         0.0000 
     10 C10         3.9995   53.6956   27.3589 C.ar      1 UNK         0.0000 
     11 C11         0.5311   52.4471   28.3511 C.ar      1 UNK         0.0000 
     12 C12        -0.7659   52.0303   27.9179 C.ar      1 UNK         0.0000 
     13 C13        -1.3442   51.6042   29.0916 C.ar      1 UNK         0.0000 
     14 N14        -0.4964   51.8556   30.1177 N.pl3     1 UNK         0.0000 
     15 H15        -0.6978   51.6889   31.0990 H         1 UNK         0.0000 
     16 N16         0.6526   52.3588   29.6710 N.2       1 UNK         0.0000 
     17 O17        -2.5766   51.0359   29.2814 O.3       1 UNK         0.0000 
     18 C18        -3.3064   50.8974   28.1439 C.2       1 UNK         0.0000 
     19 C19        -2.9345   51.2803   26.8980 C.2       1 UNK         0.0000 
     20 C20        -1.5603   51.9098   26.5960 C.3       1 UNK         0.0000 
     21 H21        -1.7376   52.9293   26.2535 H         1 UNK         0.0000 
     22 C22        -0.8375   51.1955   25.4536 C.ar      1 UNK         0.0000 
     23 C23        -0.1443   50.0044   25.6801 C.ar      1 UNK         0.0000 
     24 C24         0.5712   49.4149   24.6439 C.ar      1 UNK         0.0000 
     25 C25         0.6128   50.0248   23.3896 C.ar      1 UNK         0.0000 
     26 C26        -0.1124   51.1872   23.1465 C.ar      1 UNK         0.0000 
     27 C27        -0.8506   51.7634   24.1733 C.ar      1 UNK         0.0000 
     28 Br28        1.6882   49.2969   21.9991 Br        1 UNK         0.0000 
     29 C29        -3.8392   51.1099   25.8063 C.1       1 UNK         0.0000 
     30 N30        -4.5761   51.0041   24.9195 N.1       1 UNK         0.0000 
     31 N31        -4.4829   50.2992   28.4996 N.pl3     1 UNK         0.0000 
     32 H32         7.2666   55.3166   22.3809 H         1 UNK         0.0000 
     33 H33         7.1463   53.7787   23.2204 H         1 UNK         0.0000 
     34 H34         5.6831   54.6545   22.7724 H         1 UNK         0.0000 
     35 H35         6.3039   56.4966   24.3751 H         1 UNK         0.0000 
     36 H36         7.7786   55.6853   24.7747 H         1 UNK         0.0000 
     37 H37         6.0766   55.3605   26.5313 H         1 UNK         0.0000 
     38 H38         6.5279   53.8036   25.8163 H         1 UNK         0.0000 
     39 H39         2.3733   54.0575   24.4052 H         1 UNK         0.0000 
     40 H40         0.5455   53.2292   25.7364 H         1 UNK         0.0000 
     41 H41         3.1376   52.9291   29.1531 H         1 UNK         0.0000 
     42 H42         4.9594   53.8458   27.8275 H         1 UNK         0.0000 
     43 H43        -0.1508   49.5435   26.6603 H         1 UNK         0.0000 
     44 H44         1.1043   48.4963   24.8276 H         1 UNK         0.0000 
     45 H45        -0.0858   51.6482   22.1703 H         1 UNK         0.0000 
     46 H46        -1.3952   52.6754   23.9819 H         1 UNK         0.0000 
     47 H47        -5.1696   50.0860   27.7915 H         1 UNK         0.0000 
     48 H48        -4.4775   49.7059   29.3170 H         1 UNK         0.0000 
@<TRIPOS>BOND
     1    1    2 1    
     2    1   32 1    
     3    1   33 1    
     4    1   34 1    
     5    2    3 1    
     6    2   35 1    
     7    2   36 1    
     8    3    4 1    
     9    3   37 1    
    10    3   38 1    
    11    4    5 1    
    12    5   10 ar   
    13    5    6 ar   
    14    6    7 ar   
    15    6   39 1    
    16    7    8 ar   
    17    7   40 1    
    18    8    9 ar   
    19    8   11 1    
    20    9   10 ar   
    21    9   41 1    
    22   10   42 1    
    23   11   16 ar   
    24   11   12 ar   
    25   12   20 1    
    26   12   13 ar   
    27   13   14 ar   
    28   13   17 1    
    29   14   15 1    
    30   14   16 ar   
    31   17   18 1    
    32   18   19 2    
    33   18   31 1    
    34   19   20 1    
    35   19   29 1    
    36   20   21 1    
    37   20   22 1    
    38   22   27 ar   
    39   22   23 ar   
    40   23   24 ar   
    41   23   43 1    
    42   24   25 ar   
    43   24   44 1    
    44   25   26 ar   
    45   25   28 1    
    46   26   27 ar   
    47   26   45 1    
    48   27   46 1    
    49   29   30 3    
    50   31   47 1    
    51   31   48 1    
@<TRIPOS>SUBSTRUCTURE
     1 UNK         1 GROUP             0       ****    0 ROOT    
