@<TRIPOS>MOLECULE
ZINC20723365_307
48   51    1
SMALL
USER_CHARGES


@<TRIPOS>ATOM
      1 C1          0.7048   53.0149   31.2775 C.3       1 UNK         0.0000 
      2 O2          1.8605   53.2255   30.4736 O.3       1 UNK         0.0000 
      3 C3          1.7665   53.8648   29.2753 C.2       1 UNK         0.0000 
      4 O4          0.7075   54.3005   28.8163 O.2       1 UNK         0.0000 
      5 C5          3.0747   53.8985   28.5322 C.ar      1 UNK         0.0000 
      6 C6          4.2486   54.0994   29.2807 C.ar      1 UNK         0.0000 
      7 C7          5.4775   54.3089   28.6598 C.ar      1 UNK         0.0000 
      8 C8          5.5694   54.3186   27.2752 C.ar      1 UNK         0.0000 
      9 C9          4.4286   54.1065   26.5104 C.ar      1 UNK         0.0000 
     10 C10         3.1890   53.8666   27.1153 C.ar      1 UNK         0.0000 
     11 N11         2.1584   53.6266   26.1901 N.am      1 UNK         0.0000 
     12 C12         1.2441   52.6295   26.1833 C.2       1 UNK         0.0000 
     13 O13         1.1043   51.8495   27.1286 O.2       1 UNK         0.0000 
     14 N14         0.5238   52.5172   25.0256 N.am      1 UNK         0.0000 
     15 C15         0.6036   53.5060   23.9061 C.3       1 UNK         0.0000 
     16 C16         1.1126   52.7800   22.6313 C.3       1 UNK         0.0000 
     17 C17         0.2001   51.5958   22.3754 C.ar      1 UNK         0.0000 
     18 C18        -0.5122   51.0071   23.4099 C.ar      1 UNK         0.0000 
     19 N19        -1.1770   49.9644   22.8290 N.pl3     1 UNK         0.0000 
     20 H20        -1.7775   49.2954   23.2905 H         1 UNK         0.0000 
     21 C21        -0.8649   50.0300   21.4952 C.ar      1 UNK         0.0000 
     22 N22        -0.0443   51.0159   21.2104 N.2       1 UNK         0.0000 
     23 C23        -0.4600   51.4015   24.8830 C.3       1 UNK         0.0000 
     24 H24        -0.0704   50.5537   25.4515 H         1 UNK         0.0000 
     25 C25        -1.8455   51.6878   25.4811 C.ar      1 UNK         0.0000 
     26 C26        -2.1681   51.1011   26.7110 C.ar      1 UNK         0.0000 
     27 C27        -3.4212   51.2962   27.2874 C.ar      1 UNK         0.0000 
     28 C28        -4.3658   52.0953   26.6470 C.ar      1 UNK         0.0000 
     29 C29        -4.0551   52.7029   25.4299 C.ar      1 UNK         0.0000 
     30 C30        -2.8044   52.4967   24.8422 C.ar      1 UNK         0.0000 
     31 F31        -2.5468   53.0789   23.6472 F         1 UNK         0.0000 
     32 F32        -4.9701   53.4890   24.8147 F         1 UNK         0.0000 
     33 F33        -5.5808   52.2834   27.2120 F         1 UNK         0.0000 
     34 H34         0.2368   53.9617   31.5508 H         1 UNK         0.0000 
     35 H35        -0.0329   52.4049   30.7531 H         1 UNK         0.0000 
     36 H36         0.9775   52.4954   32.1968 H         1 UNK         0.0000 
     37 H37         4.2262   54.1397   30.3600 H         1 UNK         0.0000 
     38 H38         6.3584   54.4882   29.2583 H         1 UNK         0.0000 
     39 H39         6.5226   54.4856   26.7962 H         1 UNK         0.0000 
     40 H40         4.5271   54.0992   25.4341 H         1 UNK         0.0000 
     41 H41         2.3263   54.0237   25.2805 H         1 UNK         0.0000 
     42 H42        -0.3993   53.8880   23.7299 H         1 UNK         0.0000 
     43 H43         1.1783   54.4037   24.1314 H         1 UNK         0.0000 
     44 H44         1.1114   53.4624   21.7811 H         1 UNK         0.0000 
     45 H45         2.1472   52.4599   22.7600 H         1 UNK         0.0000 
     46 H46        -1.2780   49.3126   20.8013 H         1 UNK         0.0000 
     47 H47        -1.4468   50.4847   27.2313 H         1 UNK         0.0000 
     48 H48        -3.6528   50.8227   28.2312 H         1 UNK         0.0000 
@<TRIPOS>BOND
     1    1    2 1    
     2    1   34 1    
     3    1   35 1    
     4    1   36 1    
     5    2    3 1    
     6    3    4 2    
     7    3    5 1    
     8    5   10 ar   
     9    5    6 ar   
    10    6    7 ar   
    11    6   37 1    
    12    7    8 ar   
    13    7   38 1    
    14    8    9 ar   
    15    8   39 1    
    16    9   10 ar   
    17    9   40 1    
    18   10   11 1    
    19   11   12 am   BACKBONE|DICT|INTERRES
    20   11   41 1    
    21   12   13 2    
    22   12   14 am   BACKBONE|DICT|INTERRES
    23   14   23 1    
    24   14   15 1    
    25   15   16 1    
    26   15   42 1    
    27   15   43 1    
    28   16   17 1    
    29   16   44 1    
    30   16   45 1    
    31   17   22 ar   
    32   17   18 ar   
    33   18   19 ar   
    34   18   23 1    
    35   19   20 1    
    36   19   21 ar   
    37   21   22 ar   
    38   21   46 1    
    39   23   24 1    
    40   23   25 1    
    41   25   30 ar   
    42   25   26 ar   
    43   26   27 ar   
    44   26   47 1    
    45   27   28 ar   
    46   27   48 1    
    47   28   29 ar   
    48   28   33 1    
    49   29   30 ar   
    50   29   32 1    
    51   30   31 1    
@<TRIPOS>SUBSTRUCTURE
     1 UNK         1 GROUP             0       ****    0 ROOT    
