@<TRIPOS>MOLECULE
ZINC35711721_2879
66   68    1
SMALL
USER_CHARGES


@<TRIPOS>ATOM
      1 C1          0.3040   48.5468   24.6817 C.3       1 UNK         0.0000 
      2 C2         -1.1676   48.9932   24.6652 C.3       1 UNK         0.0000 
      3 C3         -1.5067   50.2189   25.5487 C.3       1 UNK         0.0000 
      4 N4         -0.6232   51.3967   25.3200 N.am      1 UNK         0.0000 
      5 C5          0.4676   51.7490   26.1205 C.2       1 UNK         0.0000 
      6 C6          1.2885   52.7923   25.7909 C.2       1 UNK         0.0000 
      7 C7          1.0748   53.5086   24.4383 C.3       1 UNK         0.0000 
      8 H8          1.1870   54.5844   24.5708 H         1 UNK         0.0000 
      9 N9         -0.3254   53.2967   24.0381 N.am      1 UNK         0.0000 
     10 C10        -1.0504   52.1819   24.2703 C.2       1 UNK         0.0000 
     11 O11        -1.9972   51.9723   23.5087 O.2       1 UNK         0.0000 
     12 C12         2.0931   53.2161   23.3169 C.ar      1 UNK         0.0000 
     13 C13         1.9879   52.0884   22.4922 C.ar      1 UNK         0.0000 
     14 C14         2.8462   51.9273   21.4005 C.ar      1 UNK         0.0000 
     15 C15         3.8177   52.8917   21.1141 C.ar      1 UNK         0.0000 
     16 C16         3.9509   53.9962   21.9658 C.ar      1 UNK         0.0000 
     17 C17         3.0878   54.1573   23.0399 C.ar      1 UNK         0.0000 
     18 N18         4.6192   52.6805   19.9700 N.am      1 UNK         0.0000 
     19 C19         5.4589   53.5395   19.3523 C.2       1 UNK         0.0000 
     20 O20         5.6022   54.7240   19.6522 O.2       1 UNK         0.0000 
     21 N21         6.1646   52.8979   18.4014 N.am      1 UNK         0.0000 
     22 C22         7.2965   53.3229   17.6814 C.ar      1 UNK         0.0000 
     23 C23         7.9083   52.3539   16.8788 C.ar      1 UNK         0.0000 
     24 C24         9.0705   52.6503   16.1660 C.ar      1 UNK         0.0000 
     25 C25         9.6308   53.9238   16.2459 C.ar      1 UNK         0.0000 
     26 C26         9.0262   54.9014   17.0363 C.ar      1 UNK         0.0000 
     27 C27         7.8647   54.6070   17.7494 C.ar      1 UNK         0.0000 
     28 F28         9.5669   56.1385   17.1175 F         1 UNK         0.0000 
     29 F29        10.7611   54.2055   15.5577 F         1 UNK         0.0000 
     30 C30         2.3958   53.2969   26.6600 C.2       1 UNK         0.0000 
     31 O31         2.5261   53.0130   27.8528 O.2       1 UNK         0.0000 
     32 O32         3.2390   54.1472   26.0305 O.3       1 UNK         0.0000 
     33 C33         4.3543   54.7373   26.6938 C.3       1 UNK         0.0000 
     34 C34         5.6357   53.8887   26.5821 C.3       1 UNK         0.0000 
     35 C35         6.1752   53.8607   25.1386 C.3       1 UNK         0.0000 
     36 C36         6.7119   54.3912   27.5553 C.3       1 UNK         0.0000 
     37 C37         0.6399   50.8967   27.3884 C.3       1 UNK         0.0000 
     38 H38         0.4356   47.6512   24.0817 H         1 UNK         0.0000 
     39 H39         0.9697   49.3113   24.2805 H         1 UNK         0.0000 
     40 H40         0.6430   48.2982   25.6843 H         1 UNK         0.0000 
     41 H41        -1.7932   48.1584   24.9846 H         1 UNK         0.0000 
     42 H42        -1.4634   49.1983   23.6349 H         1 UNK         0.0000 
     43 H43        -1.5116   49.9295   26.5971 H         1 UNK         0.0000 
     44 H44        -2.5505   50.4794   25.3579 H         1 UNK         0.0000 
     45 H45        -0.6303   53.8045   23.2246 H         1 UNK         0.0000 
     46 H46         1.2262   51.3456   22.6762 H         1 UNK         0.0000 
     47 H47         2.7349   51.0609   20.7635 H         1 UNK         0.0000 
     48 H48         4.6977   54.7572   21.8108 H         1 UNK         0.0000 
     49 H49         3.1899   55.0444   23.6460 H         1 UNK         0.0000 
     50 H50         4.5219   51.7749   19.5293 H         1 UNK         0.0000 
     51 H51         5.8978   51.9279   18.2249 H         1 UNK         0.0000 
     52 H52         7.4984   51.3550   16.8217 H         1 UNK         0.0000 
     53 H53         9.5439   51.8907   15.5597 H         1 UNK         0.0000 
     54 H54         7.4370   55.3941   18.3495 H         1 UNK         0.0000 
     55 H55         4.1127   54.9489   27.7373 H         1 UNK         0.0000 
     56 H56         4.5352   55.6968   26.2174 H         1 UNK         0.0000 
     57 H57         5.3892   52.8682   26.8801 H         1 UNK         0.0000 
     58 H58         6.3764   54.8647   24.7626 H         1 UNK         0.0000 
     59 H59         5.4647   53.3882   24.4609 H         1 UNK         0.0000 
     60 H60         7.1043   53.2970   25.0733 H         1 UNK         0.0000 
     61 H61         7.0628   55.3870   27.2851 H         1 UNK         0.0000 
     62 H62         6.3365   54.4372   28.5787 H         1 UNK         0.0000 
     63 H63         7.5716   53.7228   27.5584 H         1 UNK         0.0000 
     64 H64         1.6683   50.8415   27.7357 H         1 UNK         0.0000 
     65 H65         0.0147   51.2800   28.1963 H         1 UNK         0.0000 
     66 H66         0.3867   49.8506   27.2460 H         1 UNK         0.0000 
@<TRIPOS>BOND
     1    1    2 1    
     2    1   38 1    
     3    1   39 1    
     4    1   40 1    
     5    2    3 1    
     6    2   41 1    
     7    2   42 1    
     8    3    4 1    
     9    3   43 1    
    10    3   44 1    
    11    4   10 am   BACKBONE|DICT|INTERRES
    12    4    5 1    
    13    5    6 2    
    14    5   37 1    
    15    6    7 1    
    16    6   30 1    
    17    7    8 1    
    18    7    9 1    
    19    7   12 1    
    20    9   10 am   BACKBONE|DICT|INTERRES
    21    9   45 1    
    22   10   11 2    
    23   12   17 ar   
    24   12   13 ar   
    25   13   14 ar   
    26   13   46 1    
    27   14   15 ar   
    28   14   47 1    
    29   15   16 ar   
    30   15   18 1    
    31   16   17 ar   
    32   16   48 1    
    33   17   49 1    
    34   18   19 am   BACKBONE|DICT|INTERRES
    35   18   50 1    
    36   19   20 2    
    37   19   21 am   BACKBONE|DICT|INTERRES
    38   21   22 1    
    39   21   51 1    
    40   22   27 ar   
    41   22   23 ar   
    42   23   24 ar   
    43   23   52 1    
    44   24   25 ar   
    45   24   53 1    
    46   25   26 ar   
    47   25   29 1    
    48   26   27 ar   
    49   26   28 1    
    50   27   54 1    
    51   30   31 2    
    52   30   32 1    
    53   32   33 1    
    54   33   34 1    
    55   33   55 1    
    56   33   56 1    
    57   34   35 1    
    58   34   36 1    
    59   34   57 1    
    60   35   58 1    
    61   35   59 1    
    62   35   60 1    
    63   36   61 1    
    64   36   62 1    
    65   36   63 1    
    66   37   64 1    
    67   37   65 1    
    68   37   66 1    
@<TRIPOS>SUBSTRUCTURE
     1 UNK         1 GROUP             0       ****    0 ROOT    
