@<TRIPOS>MOLECULE
ZINC09236266_4162
58   62    1
SMALL
USER_CHARGES


@<TRIPOS>ATOM
      1 C1         -4.9981   45.0887   23.6303 C.3       1 UNK         0.0000 
      2 C2         -4.2237   46.2662   24.1924 C.ar      1 UNK         0.0000 
      3 C3         -3.6377   47.1881   23.3235 C.ar      1 UNK         0.0000 
      4 C4         -2.9343   48.2757   23.8325 C.ar      1 UNK         0.0000 
      5 C5         -2.8157   48.4474   25.2190 C.ar      1 UNK         0.0000 
      6 C6         -3.3829   47.5086   26.0818 C.ar      1 UNK         0.0000 
      7 C7         -4.0874   46.4213   25.5728 C.ar      1 UNK         0.0000 
      8 N8         -2.0985   49.5106   25.7953 N.am      1 UNK         0.0000 
      9 C9         -2.0067   50.7781   25.3276 C.2       1 UNK         0.0000 
     10 O10        -2.6621   51.1950   24.3691 O.2       1 UNK         0.0000 
     11 C11        -1.0180   51.7569   26.0108 C.3       1 UNK         0.0000 
     12 H12        -1.3169   52.7500   25.6745 H         1 UNK         0.0000 
     13 C13         0.4602   51.4589   25.6002 C.3       1 UNK         0.0000 
     14 H14         0.7564   50.5182   26.0687 H         1 UNK         0.0000 
     15 N15         1.3214   52.5164   26.1196 N.3       1 UNK         0.0000 
     16 N16         1.2944   52.6505   27.4964 N.pl3     1 UNK         0.0000 
     17 C17         2.3153   53.1230   28.2972 C.ar      1 UNK         0.0000 
     18 N18         1.9243   53.1031   29.5512 N.2       1 UNK         0.0000 
     19 N19         0.6286   52.5957   29.5892 N.2       1 UNK         0.0000 
     20 C20         0.2678   52.3397   28.3575 C.ar      1 UNK         0.0000 
     21 S21        -1.2945   51.6956   27.8274 S.3       1 UNK         0.0000 
     22 C22         3.6340   53.6864   27.8292 C.ar      1 UNK         0.0000 
     23 C23         3.7939   54.2784   26.5661 C.ar      1 UNK         0.0000 
     24 C24         5.0370   54.7361   26.1483 C.ar      1 UNK         0.0000 
     25 C25         6.1333   54.6240   26.9994 C.ar      1 UNK         0.0000 
     26 C26         5.9855   54.0757   28.2663 C.ar      1 UNK         0.0000 
     27 C27         4.7411   53.6057   28.6817 C.ar      1 UNK         0.0000 
     28 C28         0.6899   51.3082   24.0957 C.ar      1 UNK         0.0000 
     29 C29         0.5726   52.4172   23.2529 C.ar      1 UNK         0.0000 
     30 C30         0.7857   52.2795   21.8864 C.ar      1 UNK         0.0000 
     31 C31         1.1043   51.0310   21.3386 C.ar      1 UNK         0.0000 
     32 C32         1.2251   49.9219   22.1935 C.ar      1 UNK         0.0000 
     33 C33         1.0172   50.0623   23.5619 C.ar      1 UNK         0.0000 
     34 C34         1.2890   50.9163   19.8567 C.2       1 UNK         0.0000 
     35 O35         1.1116   51.8600   19.0796 O.2       1 UNK         0.0000 
     36 O36         1.6679   49.6782   19.4595 O.3       1 UNK         0.0000 
     37 C37         1.9045   49.4100   18.0858 C.3       1 UNK         0.0000 
     38 H38        -5.0742   44.2715   24.3475 H         1 UNK         0.0000 
     39 H39        -4.5060   44.6926   22.7418 H         1 UNK         0.0000 
     40 H40        -6.0029   45.4002   23.3462 H         1 UNK         0.0000 
     41 H41        -3.7314   47.0699   22.2529 H         1 UNK         0.0000 
     42 H42        -2.4792   48.9766   23.1466 H         1 UNK         0.0000 
     43 H43        -3.2976   47.6251   27.1546 H         1 UNK         0.0000 
     44 H44        -4.5356   45.7140   26.2548 H         1 UNK         0.0000 
     45 H45        -1.6947   49.3027   26.7070 H         1 UNK         0.0000 
     46 H46         2.2711   52.2690   25.8724 H         1 UNK         0.0000 
     47 H47         2.9583   54.4052   25.8950 H         1 UNK         0.0000 
     48 H48         5.1500   55.1857   25.1723 H         1 UNK         0.0000 
     49 H49         7.0991   54.9804   26.6823 H         1 UNK         0.0000 
     50 H50         6.8402   54.0045   28.9240 H         1 UNK         0.0000 
     51 H51         4.6453   53.1605   29.6621 H         1 UNK         0.0000 
     52 H52         0.3212   53.3877   23.6547 H         1 UNK         0.0000 
     53 H53         0.7040   53.1577   21.2617 H         1 UNK         0.0000 
     54 H54         1.4773   48.9414   21.8123 H         1 UNK         0.0000 
     55 H55         1.1108   49.1982   24.2046 H         1 UNK         0.0000 
     56 H56         2.3045   48.4045   17.9610 H         1 UNK         0.0000 
     57 H57         0.9888   49.4889   17.5023 H         1 UNK         0.0000 
     58 H58         2.6326   50.1158   17.6816 H         1 UNK         0.0000 
@<TRIPOS>BOND
     1    1    2 1    
     2    1   38 1    
     3    1   39 1    
     4    1   40 1    
     5    2    7 ar   
     6    2    3 ar   
     7    3    4 ar   
     8    3   41 1    
     9    4    5 ar   
    10    4   42 1    
    11    5    6 ar   
    12    5    8 1    
    13    6    7 ar   
    14    6   43 1    
    15    7   44 1    
    16    8    9 am   BACKBONE|DICT|INTERRES
    17    8   45 1    
    18    9   10 2    
    19    9   11 1    
    20   11   12 1    
    21   11   21 1    
    22   11   13 1    
    23   13   14 1    
    24   13   15 1    
    25   13   28 1    
    26   15   16 1    
    27   15   46 1    
    28   16   20 ar   
    29   16   17 ar   
    30   17   18 ar   
    31   17   22 1    
    32   18   19 ar   
    33   19   20 ar   
    34   20   21 1    
    35   22   27 ar   
    36   22   23 ar   
    37   23   24 ar   
    38   23   47 1    
    39   24   25 ar   
    40   24   48 1    
    41   25   26 ar   
    42   25   49 1    
    43   26   27 ar   
    44   26   50 1    
    45   27   51 1    
    46   28   33 ar   
    47   28   29 ar   
    48   29   30 ar   
    49   29   52 1    
    50   30   31 ar   
    51   30   53 1    
    52   31   32 ar   
    53   31   34 1    
    54   32   33 ar   
    55   32   54 1    
    56   33   55 1    
    57   34   35 2    
    58   34   36 1    
    59   36   37 1    
    60   37   56 1    
    61   37   57 1    
    62   37   58 1    
@<TRIPOS>SUBSTRUCTURE
     1 UNK         1 GROUP             0       ****    0 ROOT    
