@<TRIPOS>MOLECULE
ZINC02096283_2397
67   70    1
SMALL
USER_CHARGES


@<TRIPOS>ATOM
      1 C1          2.6464   55.0456   29.3874 C.3       1 UNK         0.0000 
      2 C2          3.8223   54.1997   28.8517 C.3       1 UNK         0.0000 
      3 C3          3.8641   52.7989   29.4889 C.3       1 UNK         0.0000 
      4 C4          3.8243   54.1260   27.3227 C.ar      1 UNK         0.0000 
      5 C5          2.6828   53.7031   26.6348 C.ar      1 UNK         0.0000 
      6 C6          2.6657   53.6996   25.2435 C.ar      1 UNK         0.0000 
      7 C7          3.7964   54.0928   24.5278 C.ar      1 UNK         0.0000 
      8 C8          4.9515   54.4960   25.2125 C.ar      1 UNK         0.0000 
      9 C9          4.9635   54.5014   26.6054 C.ar      1 UNK         0.0000 
     10 N10         3.6921   54.0363   23.1284 N.am      1 UNK         0.0000 
     11 C11         4.6714   53.8036   22.2279 C.2       1 UNK         0.0000 
     12 O12         5.8650   53.6466   22.5019 O.2       1 UNK         0.0000 
     13 C13         4.1841   53.6804   20.7571 C.3       1 UNK         0.0000 
     14 H14         3.5821   54.5650   20.5473 H         1 UNK         0.0000 
     15 C15         3.2652   52.4187   20.5968 C.3       1 UNK         0.0000 
     16 C16         3.9078   51.0804   21.0168 C.3       1 UNK         0.0000 
     17 C17         2.7009   52.2858   19.1723 C.3       1 UNK         0.0000 
     18 N18         5.2720   53.6795   19.7691 N.am      1 UNK         0.0000 
     19 C19         6.0342   54.7407   19.4414 C.2       1 UNK         0.0000 
     20 O20         5.9052   55.8301   20.0064 O.2       1 UNK         0.0000 
     21 N21         6.9915   54.5117   18.4962 N.am      1 UNK         0.0000 
     22 C22         7.7781   55.6397   17.9587 C.3       1 UNK         0.0000 
     23 C23         7.2291   55.9806   16.5407 C.3       1 UNK         0.0000 
     24 H24         7.7863   56.8151   16.1114 H         1 UNK         0.0000 
     25 C25         7.4541   54.7710   15.6259 C.3       1 UNK         0.0000 
     26 C26         6.6587   53.6002   16.2185 C.3       1 UNK         0.0000 
     27 H27         6.8582   52.7091   15.6208 H         1 UNK         0.0000 
     28 C28         7.0984   53.2798   17.6784 C.3       1 UNK         0.0000 
     29 C29         5.1573   53.9014   16.1413 C.ar      1 UNK         0.0000 
     30 C30         4.2656   52.9185   15.8795 C.ar      1 UNK         0.0000 
     31 C31         2.8561   53.2415   15.8715 C.ar      1 UNK         0.0000 
     32 C32         2.4761   54.5056   16.1474 C.ar      1 UNK         0.0000 
     33 C33         3.4202   55.5758   16.4466 C.ar      1 UNK         0.0000 
     34 O34         2.9953   56.6928   16.7441 O.2       1 UNK         0.0000 
     35 N35         4.7587   55.2328   16.3776 N.pl3     1 UNK         0.0000 
     36 C36         5.7207   56.3685   16.5423 C.3       1 UNK         0.0000 
     37 H37         2.6354   56.0350   28.9265 H         1 UNK         0.0000 
     38 H38         2.7069   55.1963   30.4648 H         1 UNK         0.0000 
     39 H39         1.6820   54.5774   29.1872 H         1 UNK         0.0000 
     40 H40         4.7335   54.7149   29.1594 H         1 UNK         0.0000 
     41 H41         4.7173   52.2254   29.1205 H         1 UNK         0.0000 
     42 H42         3.9558   52.8597   30.5741 H         1 UNK         0.0000 
     43 H43         2.9615   52.2298   29.2628 H         1 UNK         0.0000 
     44 H44         1.8006   53.3946   27.1749 H         1 UNK         0.0000 
     45 H45         1.7707   53.3759   24.7317 H         1 UNK         0.0000 
     46 H46         5.8366   54.8117   24.6794 H         1 UNK         0.0000 
     47 H47         5.8527   54.8227   27.1263 H         1 UNK         0.0000 
     48 H48         2.7534   54.0906   22.7614 H         1 UNK         0.0000 
     49 H49         2.3881   52.5622   21.2305 H         1 UNK         0.0000 
     50 H50         4.8403   50.9006   20.4820 H         1 UNK         0.0000 
     51 H51         4.1278   51.0596   22.0815 H         1 UNK         0.0000 
     52 H52         3.2450   50.2382   20.8113 H         1 UNK         0.0000 
     53 H53         3.4855   52.0449   18.4548 H         1 UNK         0.0000 
     54 H54         1.9560   51.4920   19.1119 H         1 UNK         0.0000 
     55 H55         2.2239   53.2116   18.8515 H         1 UNK         0.0000 
     56 H56         5.3888   52.8154   19.2605 H         1 UNK         0.0000 
     57 H57         7.8108   56.4960   18.6342 H         1 UNK         0.0000 
     58 H58         8.8189   55.3183   17.8919 H         1 UNK         0.0000 
     59 H59         7.1329   54.9826   14.6054 H         1 UNK         0.0000 
     60 H60         8.5137   54.5210   15.5670 H         1 UNK         0.0000 
     61 H61         8.1456   52.9754   17.6808 H         1 UNK         0.0000 
     62 H62         6.5684   52.4274   18.1003 H         1 UNK         0.0000 
     63 H63         4.5848   51.8953   15.7345 H         1 UNK         0.0000 
     64 H64         2.1244   52.4760   15.6578 H         1 UNK         0.0000 
     65 H65         1.4268   54.7587   16.1523 H         1 UNK         0.0000 
     66 H66         5.4838   56.9158   17.4574 H         1 UNK         0.0000 
     67 H67         5.5273   57.1020   15.7580 H         1 UNK         0.0000 
@<TRIPOS>BOND
     1    1    2 1    
     2    1   37 1    
     3    1   38 1    
     4    1   39 1    
     5    2    3 1    
     6    2    4 1    
     7    2   40 1    
     8    3   41 1    
     9    3   42 1    
    10    3   43 1    
    11    4    9 ar   
    12    4    5 ar   
    13    5    6 ar   
    14    5   44 1    
    15    6    7 ar   
    16    6   45 1    
    17    7    8 ar   
    18    7   10 1    
    19    8    9 ar   
    20    8   46 1    
    21    9   47 1    
    22   10   11 am   BACKBONE|DICT|INTERRES
    23   10   48 1    
    24   11   12 2    
    25   11   13 1    
    26   13   14 1    
    27   13   15 1    
    28   13   18 1    
    29   15   16 1    
    30   15   17 1    
    31   15   49 1    
    32   16   50 1    
    33   16   51 1    
    34   16   52 1    
    35   17   53 1    
    36   17   54 1    
    37   17   55 1    
    38   18   19 am   BACKBONE|DICT|INTERRES
    39   18   56 1    
    40   19   20 2    
    41   19   21 am   BACKBONE|DICT|INTERRES
    42   21   28 1    
    43   21   22 1    
    44   22   23 1    
    45   22   57 1    
    46   22   58 1    
    47   23   24 1    
    48   23   36 1    
    49   23   25 1    
    50   25   26 1    
    51   25   59 1    
    52   25   60 1    
    53   26   27 1    
    54   26   28 1    
    55   26   29 1    
    56   28   61 1    
    57   28   62 1    
    58   29   35 ar   
    59   29   30 ar   
    60   30   31 ar   
    61   30   63 1    
    62   31   32 ar   
    63   31   64 1    
    64   32   33 ar   
    65   32   65 1    
    66   33   34 2    
    67   33   35 ar   
    68   35   36 1    
    69   36   66 1    
    70   36   67 1    
@<TRIPOS>SUBSTRUCTURE
     1 UNK         1 GROUP             0       ****    0 ROOT    
