ZINC36019575_1041
                    3D
 Schrodinger Suite 2024-2.
 73 76  0  0  1  0            999 V2000
   -6.3113   51.6449   29.9498 C   0  0  0  0  0  0
   -5.4397   50.3867   29.7230 C   0  0  0  0  0  0
   -4.6849   50.0745   31.0311 C   0  0  0  0  0  0
   -6.3439   49.1794   29.3812 C   0  0  0  0  0  0
   -4.4321   50.6034   28.6715 N   0  0  0  0  0  0
   -4.6207   50.9666   27.3815 C   0  0  0  0  0  0
   -5.7496   51.1918   26.9394 O   0  0  0  0  0  0
   -3.4899   51.1657   26.6427 N   0  0  0  0  0  0
   -2.1989   50.5559   27.0112 C   0  0  0  0  0  0
   -1.0272   51.3943   26.4564 C   0  0  0  0  0  0
   -1.1181   51.7696   25.0373 N   0  0  0  0  0  0
   -2.4302   52.3787   24.7753 C   0  0  0  0  0  0
   -3.6489   51.5533   25.2305 C   0  0  0  0  0  0
   -0.0092   52.2601   24.3372 C   0  0  0  0  0  0
    1.0457   52.8607   25.0439 C   0  0  0  0  0  0
    2.1488   53.4024   24.3936 C   0  0  0  0  0  0
    2.2430   53.3404   22.9996 C   0  0  0  0  0  0
    1.2106   52.7449   22.2783 C   0  0  0  0  0  0
    0.0912   52.2027   22.9224 C   0  0  0  0  0  0
   -0.8919   51.4465   22.0620 C   0  0  0  0  0  0
   -1.6945   52.0957   21.3859 O   0  0  0  0  0  0
   -0.8358   50.0870   22.0579 N   0  0  0  0  0  0
   -1.7922   49.2973   21.2593 C   0  0  0  0  0  0
   -2.6194   48.4508   22.2539 C   0  0  0  0  0  0
   -1.7310   47.5775   23.1615 C   0  0  0  0  0  0
   -0.6172   48.4148   23.8205 C   0  0  0  0  0  0
    0.1586   49.2866   22.8081 C   0  0  0  0  0  0
    3.3185   53.8515   22.2533 N   0  0  0  0  0  0
    4.5827   54.0967   22.6613 C   0  0  0  0  0  0
    4.9844   53.9281   23.8143 O   0  0  0  0  0  0
    5.5341   54.6267   21.6118 C   0  0  0  0  0  0
    6.7264   55.2394   22.0221 C   0  0  0  0  0  0
    7.6485   55.6963   21.0885 C   0  0  0  0  0  0
    7.3765   55.5717   19.7304 C   0  0  0  0  0  0
    6.1928   54.9764   19.3015 C   0  0  0  0  0  0
    5.2767   54.4983   20.2356 C   0  0  0  0  0  0
    8.5231   56.1441   18.5758 Cl  0  0  0  0  0  0
   -6.9443   51.5401   30.8312 H   0  0  0  0  0  0
   -6.9746   51.8378   29.1069 H   0  0  0  0  0  0
   -5.6972   52.5325   30.0820 H   0  0  0  0  0  0
   -4.0888   49.1677   30.9318 H   0  0  0  0  0  0
   -4.0076   50.8799   31.3205 H   0  0  0  0  0  0
   -5.3685   49.9165   31.8659 H   0  0  0  0  0  0
   -5.7564   48.2722   29.2310 H   0  0  0  0  0  0
   -7.0598   48.9769   30.1793 H   0  0  0  0  0  0
   -6.9217   49.3474   28.4712 H   0  0  0  0  0  0
   -3.4859   50.3963   28.9539 H   0  0  0  0  0  0
   -2.0418   50.4969   28.0886 H   0  0  0  0  0  0
   -2.1267   49.5694   26.5512 H   0  0  0  0  0  0
   -0.0934   50.8598   26.6429 H   0  0  0  0  0  0
   -1.0148   52.3291   27.0202 H   0  0  0  0  0  0
   -2.5537   52.6799   23.7371 H   0  0  0  0  0  0
   -2.4417   53.2968   25.3624 H   0  0  0  0  0  0
   -3.6870   50.6635   24.6025 H   0  0  0  0  0  0
   -4.5353   52.1679   25.0656 H   0  0  0  0  0  0
    1.0132   52.9425   26.1197 H   0  0  0  0  0  0
    2.9114   53.8739   24.9942 H   0  0  0  0  0  0
    1.2888   52.6842   21.2000 H   0  0  0  0  0  0
   -2.4117   49.9051   20.5975 H   0  0  0  0  0  0
   -1.2124   48.6428   20.6058 H   0  0  0  0  0  0
   -3.2441   49.1099   22.8596 H   0  0  0  0  0  0
   -3.3127   47.8167   21.7020 H   0  0  0  0  0  0
   -1.2888   46.7775   22.5675 H   0  0  0  0  0  0
   -2.3366   47.0904   23.9275 H   0  0  0  0  0  0
    0.0795   47.7608   24.3469 H   0  0  0  0  0  0
   -1.0478   49.0536   24.5905 H   0  0  0  0  0  0
    0.6592   48.6435   22.0833 H   0  0  0  0  0  0
    0.9521   49.8724   23.2725 H   0  0  0  0  0  0
    3.1197   54.0094   21.2766 H   0  0  0  0  0  0
    6.9696   55.3360   23.0712 H   0  0  0  0  0  0
    8.5808   56.1275   21.4240 H   0  0  0  0  0  0
    5.9919   54.8710   18.2451 H   0  0  0  0  0  0
    4.3810   54.0198   19.8661 H   0  0  0  0  0  0
  1  2  1  0  0  0
  1 38  1  0  0  0
  1 39  1  0  0  0
  1 40  1  0  0  0
  2  3  1  0  0  0
  2  4  1  0  0  0
  2  5  1  0  0  0
  3 41  1  0  0  0
  3 42  1  0  0  0
  3 43  1  0  0  0
  4 44  1  0  0  0
  4 45  1  0  0  0
  4 46  1  0  0  0
  5  6  1  0  0  0
  5 47  1  0  0  0
  6  7  2  0  0  0
  6  8  1  0  0  0
  8 13  1  0  0  0
  8  9  1  0  0  0
  9 10  1  0  0  0
  9 48  1  0  0  0
  9 49  1  0  0  0
 10 11  1  0  0  0
 10 50  1  0  0  0
 10 51  1  0  0  0
 11 12  1  0  0  0
 11 14  1  0  0  0
 12 13  1  0  0  0
 12 52  1  0  0  0
 12 53  1  0  0  0
 13 54  1  0  0  0
 13 55  1  0  0  0
 14 19  2  0  0  0
 14 15  1  0  0  0
 15 16  2  0  0  0
 15 56  1  0  0  0
 16 17  1  0  0  0
 16 57  1  0  0  0
 17 18  2  0  0  0
 17 28  1  0  0  0
 18 19  1  0  0  0
 18 58  1  0  0  0
 19 20  1  0  0  0
 20 21  2  0  0  0
 20 22  1  0  0  0
 22 27  1  0  0  0
 22 23  1  0  0  0
 23 24  1  0  0  0
 23 59  1  0  0  0
 23 60  1  0  0  0
 24 25  1  0  0  0
 24 61  1  0  0  0
 24 62  1  0  0  0
 25 26  1  0  0  0
 25 63  1  0  0  0
 25 64  1  0  0  0
 26 27  1  0  0  0
 26 65  1  0  0  0
 26 66  1  0  0  0
 27 67  1  0  0  0
 27 68  1  0  0  0
 28 29  1  0  0  0
 28 69  1  0  0  0
 29 30  2  0  0  0
 29 31  1  0  0  0
 31 36  2  0  0  0
 31 32  1  0  0  0
 32 33  2  0  0  0
 32 70  1  0  0  0
 33 34  1  0  0  0
 33 71  1  0  0  0
 34 35  2  0  0  0
 34 37  1  0  0  0
 35 36  1  0  0  0
 35 72  1  0  0  0
 36 73  1  0  0  0
M  END
> <i_i_glide_confnum>
441

> <i_i_glide_lignum>
1042

> <i_i_glide_posenum>
225

> <i_i_glide_rotatable_bonds>
9

> <i_m_Source_File_Index>
3548

> <b_m_subgroup_collapsed>
0

> <r_i_docking_score>
-4.56168

> <r_i_glide_ecoul>
-6.69973

> <r_i_glide_eff_state_penalty>
0

> <r_i_glide_einternal>
8.84038

> <r_i_glide_emodel>
-56.5196

> <r_i_glide_energy>
-47.4145

> <r_i_glide_erotb>
0.5951

> <r_i_glide_esite>
-0.118318

> <r_i_glide_evdw>
-40.7148

> <r_i_glide_gscore>
-4.56168

> <r_i_glide_hbond>
-0.0102113

> <r_i_glide_ligand_efficiency>
-0.123289

> <r_i_glide_ligand_efficiency_ln>
-0.989321

> <r_i_glide_ligand_efficiency_sa>
-0.410825

> <r_i_glide_lipo>
-1.7366

> <r_i_glide_metal>
0

> <r_i_glide_rewards>
-0.250948

> <s_i_glide_gridfile>
wee1_glide-grid

> <s_m_Source_File>
wee1_decoys_glide_SP.sdf

> <s_m_Source_Path>
/Users/zhangxujun/Desktop

> <s_m_entry_id>
3823

> <s_m_entry_name>
wee1_decoys_glide_SP.3548

> <s_m_subgroup_title>
wee1_decoys_glide_SP

> <s_m_subgroupid>
wee1_decoys_glide_SP


$$$$
