@<TRIPOS>MOLECULE
ZINC39686701_2161
70   73    1
SMALL
USER_CHARGES


@<TRIPOS>ATOM
      1 C1         -1.1596   49.7218   24.5222 C.3       1 UNK         0.0000 
      2 C2         -0.2659   50.8645   25.0439 C.3       1 UNK         0.0000 
      3 H3          0.4396   50.3721   25.7183 H         1 UNK         0.0000 
      4 C4         -1.0409   51.9281   25.8725 C.3       1 UNK         0.0000 
      5 C5         -0.5441   52.0910   27.3136 C.ar      1 UNK         0.0000 
      6 C6         -1.2991   51.5458   28.3573 C.ar      1 UNK         0.0000 
      7 C7         -0.8946   51.6965   29.6825 C.ar      1 UNK         0.0000 
      8 C8          0.2671   52.3970   29.9806 C.ar      1 UNK         0.0000 
      9 C9          1.0364   52.9298   28.9501 C.ar      1 UNK         0.0000 
     10 C10         0.6446   52.7833   27.6060 C.ar      1 UNK         0.0000 
     11 O11         1.3700   53.2924   26.5451 O.3       1 UNK         0.0000 
     12 C12         2.5095   54.0919   26.8177 C.3       1 UNK         0.0000 
     13 N13         0.5917   51.4643   24.0142 N.am      1 UNK         0.0000 
     14 C14         0.2513   52.0196   22.8290 C.2       1 UNK         0.0000 
     15 O15        -0.9047   52.0330   22.4094 O.2       1 UNK         0.0000 
     16 C16         1.3450   52.7342   21.9787 C.3       1 UNK         0.0000 
     17 H17         0.9376   53.6967   21.6834 H         1 UNK         0.0000 
     18 C18         2.5590   53.0760   22.8687 C.3       1 UNK         0.0000 
     19 N19         3.6524   53.2284   21.9197 N.am      1 UNK         0.0000 
     20 C20         3.2967   52.6954   20.6037 C.3       1 UNK         0.0000 
     21 C21         1.9340   51.9655   20.7594 C.3       1 UNK         0.0000 
     22 C22         2.1036   50.4364   21.0027 C.3       1 UNK         0.0000 
     23 C23         2.8885   49.7486   19.8614 C.3       1 UNK         0.0000 
     24 N24         2.2577   50.0580   18.4830 N.4       1 UNK         0.0000 
     25 C25         1.8423   51.5307   18.2486 C.3       1 UNK         0.0000 
     26 C26         1.0616   52.0416   19.4836 C.3       1 UNK         0.0000 
     27 C27         4.7428   54.0171   22.0969 C.2       1 UNK         0.0000 
     28 O28         5.5035   54.2444   21.1528 O.2       1 UNK         0.0000 
     29 C29         5.0662   54.6277   23.4996 C.3       1 UNK         0.0000 
     30 H30         4.2277   55.2964   23.6855 H         1 UNK         0.0000 
     31 C31         6.4260   55.3702   23.4717 C.3       1 UNK         0.0000 
     32 C32         6.6345   56.0970   24.8142 C.3       1 UNK         0.0000 
     33 C33         6.4114   55.2037   26.0128 C.2       1 UNK         0.0000 
     34 C34         5.7607   54.0439   25.9074 C.2       1 UNK         0.0000 
     35 C35         5.1516   53.5631   24.6019 C.3       1 UNK         0.0000 
     36 H36        -1.7428   49.2967   25.3404 H         1 UNK         0.0000 
     37 H37        -1.8794   50.0635   23.7784 H         1 UNK         0.0000 
     38 H38        -0.5632   48.9114   24.1018 H         1 UNK         0.0000 
     39 H39        -2.1036   51.6795   25.8990 H         1 UNK         0.0000 
     40 H40        -1.0114   52.9035   25.3855 H         1 UNK         0.0000 
     41 H41        -2.2003   50.9865   28.1474 H         1 UNK         0.0000 
     42 H42        -1.4792   51.2579   30.4808 H         1 UNK         0.0000 
     43 H43         0.5743   52.5074   31.0106 H         1 UNK         0.0000 
     44 H44         1.9405   53.4513   29.2204 H         1 UNK         0.0000 
     45 H45         2.8833   54.5006   25.8819 H         1 UNK         0.0000 
     46 H46         2.2741   54.9324   27.4712 H         1 UNK         0.0000 
     47 H47         3.3021   53.4965   27.2726 H         1 UNK         0.0000 
     48 H48         1.5572   51.5370   24.2874 H         1 UNK         0.0000 
     49 H49         2.3415   53.9572   23.4757 H         1 UNK         0.0000 
     50 H50         2.8090   52.1931   23.4494 H         1 UNK         0.0000 
     51 H51         4.0854   52.1666   20.0685 H         1 UNK         0.0000 
     52 H52         3.1070   53.5788   19.9900 H         1 UNK         0.0000 
     53 H53         2.6742   50.2779   21.9197 H         1 UNK         0.0000 
     54 H54         1.1463   49.9403   21.1718 H         1 UNK         0.0000 
     55 H55         3.9078   50.1067   19.7802 H         1 UNK         0.0000 
     56 H56         2.9019   48.6621   19.9517 H         1 UNK         0.0000 
     57 H57         2.9276   49.7829   17.7586 H         1 UNK         0.0000 
     58 H58         2.7675   52.0789   18.0568 H         1 UNK         0.0000 
     59 H59         1.2433   51.5339   17.3362 H         1 UNK         0.0000 
     60 H60         0.1010   51.5402   19.6143 H         1 UNK         0.0000 
     61 H61         0.8167   53.0857   19.2833 H         1 UNK         0.0000 
     62 H62         7.2581   54.6709   23.3566 H         1 UNK         0.0000 
     63 H63         6.4599   56.1291   22.6901 H         1 UNK         0.0000 
     64 H64         5.9068   56.9016   24.8832 H         1 UNK         0.0000 
     65 H65         7.6451   56.4960   24.8484 H         1 UNK         0.0000 
     66 H66         6.7864   55.4946   26.9845 H         1 UNK         0.0000 
     67 H67         5.6593   53.4290   26.7912 H         1 UNK         0.0000 
     68 H68         4.2224   53.0350   24.7841 H         1 UNK         0.0000 
     69 H69         5.8990   52.8967   24.2090 H         1 UNK         0.0000 
     70 H70         1.4458   49.4703   18.3588 H         1 UNK         0.0000 
@<TRIPOS>BOND
     1    1    2 1    
     2    1   36 1    
     3    1   37 1    
     4    1   38 1    
     5    2    3 1    
     6    2    4 1    
     7    2   13 1    
     8    4    5 1    
     9    4   39 1    
    10    4   40 1    
    11    5   10 ar   
    12    5    6 ar   
    13    6    7 ar   
    14    6   41 1    
    15    7    8 ar   
    16    7   42 1    
    17    8    9 ar   
    18    8   43 1    
    19    9   10 ar   
    20    9   44 1    
    21   10   11 1    
    22   11   12 1    
    23   12   45 1    
    24   12   46 1    
    25   12   47 1    
    26   13   14 am   BACKBONE|DICT|INTERRES
    27   13   48 1    
    28   14   15 2    
    29   14   16 1    
    30   16   17 1    
    31   16   21 1    
    32   16   18 1    
    33   18   19 1    
    34   18   49 1    
    35   18   50 1    
    36   19   20 1    
    37   19   27 am   BACKBONE|DICT|INTERRES
    38   20   21 1    
    39   20   51 1    
    40   20   52 1    
    41   21   26 1    
    42   21   22 1    
    43   22   23 1    
    44   22   53 1    
    45   22   54 1    
    46   23   24 1    
    47   23   55 1    
    48   23   56 1    
    49   24   25 1    
    50   24   57 1    
    51   24   70 1    
    52   25   26 1    
    53   25   58 1    
    54   25   59 1    
    55   26   60 1    
    56   26   61 1    
    57   27   28 2    
    58   27   29 1    
    59   29   30 1    
    60   29   35 1    
    61   29   31 1    
    62   31   32 1    
    63   31   62 1    
    64   31   63 1    
    65   32   33 1    
    66   32   64 1    
    67   32   65 1    
    68   33   34 2    
    69   33   66 1    
    70   34   35 1    
    71   34   67 1    
    72   35   68 1    
    73   35   69 1    
@<TRIPOS>SUBSTRUCTURE
     1 UNK         1 GROUP             0       ****    0 ROOT    
