@<TRIPOS>MOLECULE
ZINC41067825_1899
29   30    1
SMALL
USER_CHARGES


@<TRIPOS>ATOM
      1 C1          0.3856   50.3619   26.8810 C.3       1 UNK         0.0000 
      2 C2          0.6963   51.5038   25.9255 C.ar      1 UNK         0.0000 
      3 C3          0.2584   51.4038   24.6004 C.ar      1 UNK         0.0000 
      4 C4          0.5507   52.4090   23.6816 C.ar      1 UNK         0.0000 
      5 C5          1.2833   53.5220   24.0837 C.ar      1 UNK         0.0000 
      6 C6          1.7178   53.6247   25.4051 C.ar      1 UNK         0.0000 
      7 C7          1.4325   52.6278   26.3457 C.ar      1 UNK         0.0000 
      8 N8          1.8891   52.6934   27.6778 N.pl3     1 UNK         0.0000 
      9 S9          2.6449   54.0919   28.4742 S.o2      1 UNK         0.0000 
     10 O10         1.9177   55.3007   28.0820 O.2       1 UNK         0.0000 
     11 O11         2.8090   53.7302   29.8875 O.2       1 UNK         0.0000 
     12 C12         4.3040   54.1576   27.7545 C.2       1 UNK         0.0000 
     13 C13         4.7178   54.8761   26.6330 C.2       1 UNK         0.0000 
     14 C14         6.0726   54.6884   26.3451 C.2       1 UNK         0.0000 
     15 C15         6.7051   53.8589   27.2526 C.2       1 UNK         0.0000 
     16 S16         5.6146   53.2968   28.4723 S.3       1 UNK         0.0000 
     17 N17         6.7060   55.2689   25.2840 N.pl3     1 UNK         0.0000 
     18 Cl18        0.0124   52.2681   22.0482 Cl        1 UNK         0.0000 
     19 H19         1.3231   49.9806   27.2815 H         1 UNK         0.0000 
     20 H20        -0.2216   50.7090   27.7176 H         1 UNK         0.0000 
     21 H21        -0.1346   49.5314   26.4020 H         1 UNK         0.0000 
     22 H22        -0.3032   50.5390   24.2776 H         1 UNK         0.0000 
     23 H23         1.5152   54.3039   23.3752 H         1 UNK         0.0000 
     24 H24         2.2778   54.4919   25.6883 H         1 UNK         0.0000 
     25 H25         1.7493   51.8779   28.2531 H         1 UNK         0.0000 
     26 H26         4.0786   55.5179   26.0481 H         1 UNK         0.0000 
     27 H27         7.7392   53.5550   27.2781 H         1 UNK         0.0000 
     28 H28         6.2587   55.9962   24.7463 H         1 UNK         0.0000 
     29 H29         7.5290   54.8614   24.8594 H         1 UNK         0.0000 
@<TRIPOS>BOND
     1    1    2 1    
     2    1   19 1    
     3    1   20 1    
     4    1   21 1    
     5    2    7 ar   
     6    2    3 ar   
     7    3    4 ar   
     8    3   22 1    
     9    4    5 ar   
    10    4   18 1    
    11    5    6 ar   
    12    5   23 1    
    13    6    7 ar   
    14    6   24 1    
    15    7    8 1    
    16    8    9 1    
    17    8   25 1    
    18    9   10 2    
    19    9   11 2    
    20    9   12 1    
    21   12   16 1    
    22   12   13 2    
    23   13   14 1    
    24   13   26 1    
    25   14   15 2    
    26   14   17 1    
    27   15   16 1    
    28   15   27 1    
    29   17   28 1    
    30   17   29 1    
@<TRIPOS>SUBSTRUCTURE
     1 UNK         1 GROUP             0       ****    0 ROOT    
