@<TRIPOS>MOLECULE
ZINC40368168_5353
68   71    1
SMALL
USER_CHARGES


@<TRIPOS>ATOM
      1 C1          4.3093   54.4900   29.1947 C.3       1 UNK         0.0000 
      2 C2          3.3641   54.4924   27.9839 C.3       1 UNK         0.0000 
      3 N3          2.3181   53.4549   28.0509 N.am      1 UNK         0.0000 
      4 C4          2.7987   52.0969   27.8571 C.3       1 UNK         0.0000 
      5 C5          3.0173   51.3010   29.1366 C.3       1 UNK         0.0000 
      6 C6          1.0309   53.7511   28.3652 C.2       1 UNK         0.0000 
      7 O7          0.7044   54.9019   28.6195 O.2       1 UNK         0.0000 
      8 C8          0.0309   52.6871   28.4339 C.2       1 UNK         0.0000 
      9 C9         -0.3309   52.1670   29.6350 C.2       1 UNK         0.0000 
     10 N10        -1.3941   51.2969   29.6834 N.pl3     1 UNK         0.0000 
     11 C11        -2.2944   51.1413   28.7084 C.2       1 UNK         0.0000 
     12 N12        -1.9959   51.5792   27.4694 N.pl3     1 UNK         0.0000 
     13 C13        -0.7631   52.3545   27.1398 C.3       1 UNK         0.0000 
     14 H14        -1.1741   53.2965   26.7813 H         1 UNK         0.0000 
     15 C15         0.0487   51.7929   25.9524 C.ar      1 UNK         0.0000 
     16 C16         0.0263   50.4260   25.6335 C.ar      1 UNK         0.0000 
     17 C17         0.7039   49.9486   24.5109 C.ar      1 UNK         0.0000 
     18 C18         1.4531   50.8182   23.7173 C.ar      1 UNK         0.0000 
     19 C19         1.5412   52.1776   24.0595 C.ar      1 UNK         0.0000 
     20 C20         0.8120   52.6530   25.1522 C.ar      1 UNK         0.0000 
     21 N21         2.4261   53.0863   23.4496 N.am      1 UNK         0.0000 
     22 C22         3.1055   52.9491   22.2916 C.2       1 UNK         0.0000 
     23 O23         2.7893   52.1736   21.3894 O.2       1 UNK         0.0000 
     24 C24         4.3412   53.8100   22.1673 C.ar      1 UNK         0.0000 
     25 C25         5.1582   54.0733   23.2799 C.ar      1 UNK         0.0000 
     26 C26         6.3366   54.8026   23.1393 C.ar      1 UNK         0.0000 
     27 C27         6.7037   55.2980   21.8904 C.ar      1 UNK         0.0000 
     28 C28         5.9041   55.0684   20.7696 C.ar      1 UNK         0.0000 
     29 C29         4.7294   54.3090   20.9159 C.ar      1 UNK         0.0000 
     30 O30         6.3440   55.6125   19.5796 O.3       1 UNK         0.0000 
     31 C31         5.5713   55.4165   18.3995 C.3       1 UNK         0.0000 
     32 C32        -2.9648   51.5184   26.3520 C.3       1 UNK         0.0000 
     33 C33        -3.9560   50.3601   26.5503 C.3       1 UNK         0.0000 
     34 C34        -4.8300   50.5129   27.7973 C.3       1 UNK         0.0000 
     35 S35        -3.8086   50.4966   29.2830 S.3       1 UNK         0.0000 
     36 C36         0.2112   52.5525   31.0169 C.3       1 UNK         0.0000 
     37 H37         5.0396   55.2954   29.1201 H         1 UNK         0.0000 
     38 H38         3.7581   54.6253   30.1237 H         1 UNK         0.0000 
     39 H39         4.8744   53.5599   29.2588 H         1 UNK         0.0000 
     40 H40         3.9453   54.3471   27.0725 H         1 UNK         0.0000 
     41 H41         2.9231   55.4856   27.8878 H         1 UNK         0.0000 
     42 H42         2.0945   51.5388   27.2536 H         1 UNK         0.0000 
     43 H43         3.7281   52.1330   27.2917 H         1 UNK         0.0000 
     44 H44         2.7041   50.2912   28.8821 H         1 UNK         0.0000 
     45 H45         4.0654   51.3054   29.4344 H         1 UNK         0.0000 
     46 H46         2.4342   51.6611   29.9779 H         1 UNK         0.0000 
     47 H47        -0.5260   49.7251   26.2462 H         1 UNK         0.0000 
     48 H48         0.6768   48.8950   24.2751 H         1 UNK         0.0000 
     49 H49         2.0131   50.4042   22.8925 H         1 UNK         0.0000 
     50 H50         0.8776   53.6969   25.4104 H         1 UNK         0.0000 
     51 H51         2.6794   53.8819   24.0133 H         1 UNK         0.0000 
     52 H52         4.9089   53.6858   24.2578 H         1 UNK         0.0000 
     53 H53         6.9720   54.9817   23.9942 H         1 UNK         0.0000 
     54 H54         7.6214   55.8601   21.7906 H         1 UNK         0.0000 
     55 H55         4.1053   54.1007   20.0588 H         1 UNK         0.0000 
     56 H56         6.0558   55.9201   17.5633 H         1 UNK         0.0000 
     57 H57         5.4910   54.3584   18.1454 H         1 UNK         0.0000 
     58 H58         4.5697   55.8386   18.5014 H         1 UNK         0.0000 
     59 H59        -3.4854   52.4757   26.3139 H         1 UNK         0.0000 
     60 H60        -2.4415   51.3972   25.4035 H         1 UNK         0.0000 
     61 H61        -4.6006   50.2909   25.6728 H         1 UNK         0.0000 
     62 H62        -3.4122   49.4122   26.5923 H         1 UNK         0.0000 
     63 H63        -5.3806   51.4542   27.7858 H         1 UNK         0.0000 
     64 H64        -5.5548   49.7015   27.8809 H         1 UNK         0.0000 
     65 H65        -0.5688   53.0324   31.6045 H         1 UNK         0.0000 
     66 H66         0.5496   51.6972   31.5972 H         1 UNK         0.0000 
     67 H67         1.0361   53.2601   30.9757 H         1 UNK         0.0000 
     68 H68        -1.6238   50.8433   30.5617 H         1 UNK         0.0000 
@<TRIPOS>BOND
     1    1    2 1    
     2    1   37 1    
     3    1   38 1    
     4    1   39 1    
     5    2    3 1    
     6    2   40 1    
     7    2   41 1    
     8    3    4 1    
     9    3    6 am   BACKBONE|DICT|INTERRES
    10    4    5 1    
    11    4   42 1    
    12    4   43 1    
    13    5   44 1    
    14    5   45 1    
    15    5   46 1    
    16    6    7 2    
    17    6    8 1    
    18    8   13 1    
    19    8    9 2    
    20    9   10 1    
    21    9   36 1    
    22   10   11 2    
    23   10   68 1    
    24   11   35 1    
    25   11   12 1    
    26   12   13 1    
    27   12   32 1    
    28   13   14 1    
    29   13   15 1    
    30   15   20 ar   
    31   15   16 ar   
    32   16   17 ar   
    33   16   47 1    
    34   17   18 ar   
    35   17   48 1    
    36   18   19 ar   
    37   18   49 1    
    38   19   20 ar   
    39   19   21 1    
    40   20   50 1    
    41   21   22 am   BACKBONE|DICT|INTERRES
    42   21   51 1    
    43   22   23 2    
    44   22   24 1    
    45   24   29 ar   
    46   24   25 ar   
    47   25   26 ar   
    48   25   52 1    
    49   26   27 ar   
    50   26   53 1    
    51   27   28 ar   
    52   27   54 1    
    53   28   29 ar   
    54   28   30 1    
    55   29   55 1    
    56   30   31 1    
    57   31   56 1    
    58   31   57 1    
    59   31   58 1    
    60   32   33 1    
    61   32   59 1    
    62   32   60 1    
    63   33   34 1    
    64   33   61 1    
    65   33   62 1    
    66   34   35 1    
    67   34   63 1    
    68   34   64 1    
    69   36   65 1    
    70   36   66 1    
    71   36   67 1    
@<TRIPOS>SUBSTRUCTURE
     1 UNK         1 GROUP             0       ****    0 ROOT    
