@<TRIPOS>MOLECULE
ZINC09171853_4161
63   66    1
SMALL
USER_CHARGES


@<TRIPOS>ATOM
      1 C1          0.1476   51.7403   28.4143 C.3       1 UNK         0.0000 
      2 C2          1.3125   52.5587   27.8853 C.ar      1 UNK         0.0000 
      3 C3          2.3201   52.9946   28.7459 C.ar      1 UNK         0.0000 
      4 C4          3.3919   53.7513   28.2605 C.ar      1 UNK         0.0000 
      5 C5          3.4572   54.0739   26.8943 C.ar      1 UNK         0.0000 
      6 C6          2.4302   53.6554   26.0308 C.ar      1 UNK         0.0000 
      7 C7          1.3695   52.8961   26.5326 C.ar      1 UNK         0.0000 
      8 C8          2.4235   54.0325   24.5568 C.3       1 UNK         0.0000 
      9 O9          4.5233   54.8020   26.4127 O.3       1 UNK         0.0000 
     10 C10         5.5884   54.0222   25.8616 C.3       1 UNK         0.0000 
     11 C11         6.0342   54.6649   24.5413 C.2       1 UNK         0.0000 
     12 O12         6.7045   55.6965   24.5912 O.2       1 UNK         0.0000 
     13 N13         5.6186   54.0484   23.4075 N.am      1 UNK         0.0000 
     14 C14         5.7898   54.4472   22.0771 C.2       1 UNK         0.0000 
     15 C15         5.1009   53.9298   20.9554 C.2       1 UNK         0.0000 
     16 C16         5.4493   54.6092   19.7541 C.2       1 UNK         0.0000 
     17 C17         6.4171   55.6030   19.9652 C.2       1 UNK         0.0000 
     18 S18         6.9129   55.6962   21.6137 S.3       1 UNK         0.0000 
     19 C19         7.0678   56.4546   18.8837 C.3       1 UNK         0.0000 
     20 C20         6.2470   56.3466   17.5831 C.3       1 UNK         0.0000 
     21 C21         5.8698   54.8893   17.2673 C.3       1 UNK         0.0000 
     22 C22         4.9406   54.2834   18.3417 C.3       1 UNK         0.0000 
     23 C23         4.2153   52.7822   21.0162 C.2       1 UNK         0.0000 
     24 O24         4.5041   51.7905   21.6817 O.2       1 UNK         0.0000 
     25 N25         3.0714   52.8967   20.3189 N.am      1 UNK         0.0000 
     26 C26         2.0133   51.8898   20.2564 C.3       1 UNK         0.0000 
     27 H27         2.4060   50.8687   20.2382 H         1 UNK         0.0000 
     28 C28         1.0835   52.0210   21.4894 C.3       1 UNK         0.0000 
     29 C29        -0.1744   51.1770   21.2552 C.3       1 UNK         0.0000 
     30 S30        -0.5638   51.4225   19.4431 S.o2      1 UNK         0.0000 
     31 O31        -0.7618   50.1083   18.8265 O.2       1 UNK         0.0000 
     32 O32        -1.5726   52.4772   19.2838 O.2       1 UNK         0.0000 
     33 C33         1.1348   52.1008   19.0081 C.3       1 UNK         0.0000 
     34 C34         4.4757   54.2096   29.2210 C.3       1 UNK         0.0000 
     35 H35         0.2209   50.7069   28.0721 H         1 UNK         0.0000 
     36 H36        -0.7956   52.1397   28.0431 H         1 UNK         0.0000 
     37 H37         0.0992   51.7533   29.5056 H         1 UNK         0.0000 
     38 H38         2.2652   52.7415   29.7949 H         1 UNK         0.0000 
     39 H39         0.5847   52.5656   25.8688 H         1 UNK         0.0000 
     40 H40         2.8362   53.2265   23.9544 H         1 UNK         0.0000 
     41 H41         1.4074   54.2303   24.2131 H         1 UNK         0.0000 
     42 H42         2.9861   54.9475   24.3727 H         1 UNK         0.0000 
     43 H43         6.4295   54.0169   26.5569 H         1 UNK         0.0000 
     44 H44         5.3129   52.9800   25.7119 H         1 UNK         0.0000 
     45 H45         5.0233   53.2412   23.5250 H         1 UNK         0.0000 
     46 H46         7.1499   57.4991   19.1881 H         1 UNK         0.0000 
     47 H47         8.0819   56.0986   18.6975 H         1 UNK         0.0000 
     48 H48         5.3412   56.9521   17.6665 H         1 UNK         0.0000 
     49 H49         6.8144   56.7726   16.7545 H         1 UNK         0.0000 
     50 H50         5.3828   54.8343   16.2927 H         1 UNK         0.0000 
     51 H51         6.7757   54.2864   17.1790 H         1 UNK         0.0000 
     52 H52         4.8601   53.2059   18.1835 H         1 UNK         0.0000 
     53 H53         3.9329   54.6801   18.2175 H         1 UNK         0.0000 
     54 H54         2.8305   53.8087   19.9521 H         1 UNK         0.0000 
     55 H55         1.6016   51.7188   22.4008 H         1 UNK         0.0000 
     56 H56         0.8085   53.0674   21.6419 H         1 UNK         0.0000 
     57 H57         0.1064   50.1295   21.3756 H         1 UNK         0.0000 
     58 H58        -1.0507   51.3666   21.8732 H         1 UNK         0.0000 
     59 H59         0.9457   53.1706   18.9114 H         1 UNK         0.0000 
     60 H60         1.5074   51.7467   18.0474 H         1 UNK         0.0000 
     61 H61         5.4518   53.8552   28.8853 H         1 UNK         0.0000 
     62 H62         4.5170   55.2966   29.2544 H         1 UNK         0.0000 
     63 H63         4.3046   53.8403   30.2333 H         1 UNK         0.0000 
@<TRIPOS>BOND
     1    1    2 1    
     2    1   35 1    
     3    1   36 1    
     4    1   37 1    
     5    2    7 ar   
     6    2    3 ar   
     7    3    4 ar   
     8    3   38 1    
     9    4    5 ar   
    10    4   34 1    
    11    5    6 ar   
    12    5    9 1    
    13    6    7 ar   
    14    6    8 1    
    15    7   39 1    
    16    8   40 1    
    17    8   41 1    
    18    8   42 1    
    19    9   10 1    
    20   10   11 1    
    21   10   43 1    
    22   10   44 1    
    23   11   12 2    
    24   11   13 am   BACKBONE|DICT|INTERRES
    25   13   14 am   BACKBONE|DICT|INTERRES
    26   13   45 1    
    27   14   18 1    
    28   14   15 2    
    29   15   16 1    
    30   15   23 1    
    31   16   22 1    
    32   16   17 2    
    33   17   18 1    
    34   17   19 1    
    35   19   20 1    
    36   19   46 1    
    37   19   47 1    
    38   20   21 1    
    39   20   48 1    
    40   20   49 1    
    41   21   22 1    
    42   21   50 1    
    43   21   51 1    
    44   22   52 1    
    45   22   53 1    
    46   23   24 2    
    47   23   25 am   BACKBONE|DICT|INTERRES
    48   25   26 1    
    49   25   54 1    
    50   26   27 1    
    51   26   33 1    
    52   26   28 1    
    53   28   29 1    
    54   28   55 1    
    55   28   56 1    
    56   29   30 1    
    57   29   57 1    
    58   29   58 1    
    59   30   31 2    
    60   30   32 2    
    61   30   33 1    
    62   33   59 1    
    63   33   60 1    
    64   34   61 1    
    65   34   62 1    
    66   34   63 1    
@<TRIPOS>SUBSTRUCTURE
     1 UNK         1 GROUP             0       ****    0 ROOT    
