ZINC29235924_119
                    3D
 Schrodinger Suite 2024-2.
 60 62  0  0  1  0            999 V2000
    0.5654   49.2434    9.8120 C   0  0  0  0  0  0
    0.9205   49.5446   11.2564 C   0  0  0  0  0  0
    0.1791   50.4759   11.9812 C   0  0  0  0  0  0
    0.4914   50.7375   13.3141 C   0  0  0  0  0  0
    1.5498   50.0647   13.9519 C   0  0  0  0  0  0
    2.3078   49.1366   13.2101 C   0  0  0  0  0  0
    1.9807   48.8798   11.8734 C   0  0  0  0  0  0
    3.4929   48.3943   13.8186 C   0  0  0  0  0  0
    1.9044   50.2815   15.3046 N   0  0  0  0  0  0
    1.2141   50.9013   16.2868 C   0  0  0  0  0  0
    0.0870   51.3853   16.1643 O   0  0  0  0  0  0
    1.9377   50.8971   17.4274 N   0  0  0  0  0  0
    1.6339   51.4866   18.6086 C   0  0  0  0  0  0
    0.6227   52.1622   18.8276 O   0  0  0  0  0  0
    2.6597   51.2463   19.7424 C   0  0  2  0  0  0
    3.6483   51.2960   19.2825 H   0  0  0  0  0  0
    2.4483   49.8493   20.3430 C   0  0  0  0  0  0
    2.6551   52.4577   20.7266 N   0  3  0  0  0  0
    1.5921   52.3497   21.8443 C   0  0  0  0  0  0
    1.6552   53.6237   22.7049 C   0  0  0  0  0  0
    2.9644   53.8264   23.3442 N   0  0  0  0  0  0
    4.0482   53.8378   22.3409 C   0  0  0  0  0  0
    4.0443   52.6263   21.3819 C   0  0  0  0  0  0
    3.1712   53.8738   24.7249 C   0  0  0  0  0  0
    4.3120   54.4877   25.2675 C   0  0  0  0  0  0
    4.5430   54.4984   26.6416 C   0  0  0  0  0  0
    3.6269   53.9098   27.5077 C   0  0  0  0  0  0
    2.4727   53.3026   27.0074 C   0  0  0  0  0  0
    2.2558   53.2966   25.6221 C   0  0  0  0  0  0
    1.4873   52.6380   27.9701 C   0  0  0  0  0  0
    0.6138   51.8528   27.3354 F   0  0  0  0  0  0
    2.1431   51.8936   28.8636 F   0  0  0  0  0  0
    0.8074   53.5861   28.6167 F   0  0  0  0  0  0
   -0.5075   49.3437    9.6460 H   0  0  0  0  0  0
    0.8272   48.2180    9.5486 H   0  0  0  0  0  0
    1.0880   49.9246    9.1409 H   0  0  0  0  0  0
   -0.6411   51.0045   11.5159 H   0  0  0  0  0  0
   -0.1024   51.4810   13.8228 H   0  0  0  0  0  0
    2.5565   48.1611   11.3084 H   0  0  0  0  0  0
    4.2800   49.1020   14.0823 H   0  0  0  0  0  0
    3.1936   47.8758   14.7303 H   0  0  0  0  0  0
    3.9170   47.6569   13.1380 H   0  0  0  0  0  0
    2.7842   49.8524   15.5794 H   0  0  0  0  0  0
    2.8242   50.4034   17.3842 H   0  0  0  0  0  0
    2.6803   49.0790   19.6031 H   0  0  0  0  0  0
    3.1052   49.6985   21.1989 H   0  0  0  0  0  0
    1.4166   49.7154   20.6770 H   0  0  0  0  0  0
    0.6222   52.2882   21.3501 H   0  0  0  0  0  0
    1.7735   51.4436   22.4246 H   0  0  0  0  0  0
    1.4895   54.4976   22.0817 H   0  0  0  0  0  0
    0.8358   53.6264   23.4242 H   0  0  0  0  0  0
    5.0339   53.9073   22.8014 H   0  0  0  0  0  0
    3.9011   54.7622   21.7771 H   0  0  0  0  0  0
    4.2881   51.6880   21.8797 H   0  0  0  0  0  0
    4.7402   52.8056   20.5615 H   0  0  0  0  0  0
    5.0384   54.9677   24.6292 H   0  0  0  0  0  0
    5.4330   54.9702   27.0352 H   0  0  0  0  0  0
    3.8206   53.9234   28.5718 H   0  0  0  0  0  0
    1.3742   52.8007   25.2507 H   0  0  0  0  0  0
    2.4556   53.2988   20.1928 H   0  0  0  0  0  0
  1  2  1  0  0  0
  1 34  1  0  0  0
  1 35  1  0  0  0
  1 36  1  0  0  0
  2  7  2  0  0  0
  2  3  1  0  0  0
  3  4  2  0  0  0
  3 37  1  0  0  0
  4  5  1  0  0  0
  4 38  1  0  0  0
  5  6  2  0  0  0
  5  9  1  0  0  0
  6  7  1  0  0  0
  6  8  1  0  0  0
  7 39  1  0  0  0
  8 40  1  0  0  0
  8 41  1  0  0  0
  8 42  1  0  0  0
  9 10  1  0  0  0
  9 43  1  0  0  0
 10 11  2  0  0  0
 10 12  1  0  0  0
 12 13  1  0  0  0
 12 44  1  0  0  0
 13 14  2  0  0  0
 13 15  1  0  0  0
 15 16  1  0  0  0
 15 17  1  0  0  0
 15 18  1  0  0  0
 17 45  1  0  0  0
 17 46  1  0  0  0
 17 47  1  0  0  0
 18 23  1  0  0  0
 18 19  1  0  0  0
 18 60  1  0  0  0
 19 20  1  0  0  0
 19 48  1  0  0  0
 19 49  1  0  0  0
 20 21  1  0  0  0
 20 50  1  0  0  0
 20 51  1  0  0  0
 21 22  1  0  0  0
 21 24  1  0  0  0
 22 23  1  0  0  0
 22 52  1  0  0  0
 22 53  1  0  0  0
 23 54  1  0  0  0
 23 55  1  0  0  0
 24 29  2  0  0  0
 24 25  1  0  0  0
 25 26  2  0  0  0
 25 56  1  0  0  0
 26 27  1  0  0  0
 26 57  1  0  0  0
 27 28  2  0  0  0
 27 58  1  0  0  0
 28 29  1  0  0  0
 28 30  1  0  0  0
 29 59  1  0  0  0
 30 31  1  0  0  0
 30 32  1  0  0  0
 30 33  1  0  0  0
M  CHG  1  18   1
M  END
> <i_i_glide_confnum>
1

> <i_i_glide_lignum>
120

> <i_i_glide_posenum>
145

> <i_i_glide_rotatable_bonds>
8

> <i_m_Source_File_Index>
2802

> <b_m_subgroup_collapsed>
0

> <r_i_docking_score>
-5.39739

> <r_i_glide_ecoul>
-6.20565

> <r_i_glide_eff_state_penalty>
0

> <r_i_glide_einternal>
0.620594

> <r_i_glide_emodel>
-48.8229

> <r_i_glide_energy>
-33.8075

> <r_i_glide_erotb>
0.694362

> <r_i_glide_esite>
-0.274776

> <r_i_glide_evdw>
-27.6019

> <r_i_glide_gscore>
-5.39739

> <r_i_glide_hbond>
-0.304

> <r_i_glide_ligand_efficiency>
-0.168669

> <r_i_glide_ligand_efficiency_ln>
-1.20862

> <r_i_glide_ligand_efficiency_sa>
-0.535489

> <r_i_glide_lipo>
-1.89019

> <r_i_glide_metal>
0

> <r_i_glide_rewards>
-1.31185

> <s_i_glide_gridfile>
wee1_glide-grid

> <s_m_Source_File>
wee1_decoys_glide_SP.sdf

> <s_m_Source_Path>
/Users/zhangxujun/Desktop

> <s_m_entry_id>
3077

> <s_m_entry_name>
wee1_decoys_glide_SP.2802

> <s_m_subgroup_title>
wee1_decoys_glide_SP

> <s_m_subgroupid>
wee1_decoys_glide_SP


$$$$
