@<TRIPOS>MOLECULE
ZINC39836223_948
53   56    1
SMALL
USER_CHARGES


@<TRIPOS>ATOM
      1 C1          7.1334   55.9708   16.4309 C.3       1 UNK         0.0000 
      2 C2          6.6387   55.1136   17.6098 C.3       1 UNK         0.0000 
      3 H3          7.1505   54.1512   17.5295 H         1 UNK         0.0000 
      4 C4          5.1113   54.9181   17.5601 C.3       1 UNK         0.0000 
      5 C5          4.6491   53.8632   18.5816 C.3       1 UNK         0.0000 
      6 C6          5.2529   54.1596   19.9646 C.2       1 UNK         0.0000 
      7 C7          6.3412   55.0407   20.0918 C.2       1 UNK         0.0000 
      8 S8          6.7848   55.3099   21.7284 S.3       1 UNK         0.0000 
      9 C9          5.4904   54.2939   22.3016 C.2       1 UNK         0.0000 
     10 C10         4.7888   53.6834   21.2315 C.2       1 UNK         0.0000 
     11 C11         3.6448   52.7991   21.4311 C.2       1 UNK         0.0000 
     12 O12         3.0058   52.8125   22.4828 O.2       1 UNK         0.0000 
     13 N13         3.3270   51.9715   20.4155 N.am      1 UNK         0.0000 
     14 C14         2.1516   51.1004   20.4061 C.3       1 UNK         0.0000 
     15 H15         2.1406   50.6014   21.3796 H         1 UNK         0.0000 
     16 C16         2.2327   50.0179   19.3103 C.3       1 UNK         0.0000 
     17 C17         1.9042   50.6690   17.9597 C.3       1 UNK         0.0000 
     18 S18         0.5886   51.9461   18.3460 S.o2      1 UNK         0.0000 
     19 O19        -0.7437   51.4071   18.0531 O.2       1 UNK         0.0000 
     20 O20         1.0046   53.2387   17.7958 O.2       1 UNK         0.0000 
     21 C21         0.8465   51.8926   20.2039 C.3       1 UNK         0.0000 
     22 N22         5.2260   54.1265   23.6681 N.am      1 UNK         0.0000 
     23 C23         5.7444   54.7892   24.7304 C.2       1 UNK         0.0000 
     24 O24         6.6037   55.6724   24.6623 O.2       1 UNK         0.0000 
     25 C25         5.2239   54.3863   26.0944 C.ar      1 UNK         0.0000 
     26 C26         6.1369   54.3858   27.1604 C.ar      1 UNK         0.0000 
     27 C27         5.7384   54.0747   28.4546 C.ar      1 UNK         0.0000 
     28 C28         4.4115   53.7484   28.7157 C.ar      1 UNK         0.0000 
     29 C29         3.4854   53.7535   27.6786 C.ar      1 UNK         0.0000 
     30 C30         3.8716   54.0779   26.3759 C.ar      1 UNK         0.0000 
     31 Cl31        2.6075   54.0964   25.1956 Cl        1 UNK         0.0000 
     32 Cl32        3.9043   53.3448   30.3157 Cl        1 UNK         0.0000 
     33 C33         7.0366   55.7749   18.9494 C.3       1 UNK         0.0000 
     34 H34         6.6716   56.9601   16.4297 H         1 UNK         0.0000 
     35 H35         8.2145   56.1096   16.4678 H         1 UNK         0.0000 
     36 H36         6.8998   55.4979   15.4759 H         1 UNK         0.0000 
     37 H37         4.5962   55.8710   17.6894 H         1 UNK         0.0000 
     38 H38         4.8209   54.5838   16.5643 H         1 UNK         0.0000 
     39 H39         4.9502   52.8692   18.2450 H         1 UNK         0.0000 
     40 H40         3.5580   53.8657   18.6114 H         1 UNK         0.0000 
     41 H41         3.9551   51.8977   19.6307 H         1 UNK         0.0000 
     42 H42         1.5153   49.2247   19.5302 H         1 UNK         0.0000 
     43 H43         3.2071   49.5306   19.2884 H         1 UNK         0.0000 
     44 H44         1.6143   50.0222   17.1328 H         1 UNK         0.0000 
     45 H45         2.7983   51.2092   17.6406 H         1 UNK         0.0000 
     46 H46         0.7783   52.8930   20.6294 H         1 UNK         0.0000 
     47 H47         0.0258   51.2929   20.5989 H         1 UNK         0.0000 
     48 H48         4.4613   53.4916   23.8657 H         1 UNK         0.0000 
     49 H49         7.1747   54.6338   26.9977 H         1 UNK         0.0000 
     50 H50         6.4759   54.0950   29.2362 H         1 UNK         0.0000 
     51 H51         2.4521   53.5123   27.8842 H         1 UNK         0.0000 
     52 H52         6.7279   56.8219   18.9561 H         1 UNK         0.0000 
     53 H53         8.1222   55.7541   19.0736 H         1 UNK         0.0000 
@<TRIPOS>BOND
     1    1    2 1    
     2    1   34 1    
     3    1   35 1    
     4    1   36 1    
     5    2    3 1    
     6    2   33 1    
     7    2    4 1    
     8    4    5 1    
     9    4   37 1    
    10    4   38 1    
    11    5    6 1    
    12    5   39 1    
    13    5   40 1    
    14    6   10 1    
    15    6    7 2    
    16    7    8 1    
    17    7   33 1    
    18    8    9 1    
    19    9   10 2    
    20    9   22 am   BACKBONE|DICT|INTERRES
    21   10   11 1    
    22   11   12 2    
    23   11   13 am   BACKBONE|DICT|INTERRES
    24   13   14 1    
    25   13   41 1    
    26   14   15 1    
    27   14   21 1    
    28   14   16 1    
    29   16   17 1    
    30   16   42 1    
    31   16   43 1    
    32   17   18 1    
    33   17   44 1    
    34   17   45 1    
    35   18   19 2    
    36   18   20 2    
    37   18   21 1    
    38   21   46 1    
    39   21   47 1    
    40   22   23 am   BACKBONE|DICT|INTERRES
    41   22   48 1    
    42   23   24 2    
    43   23   25 1    
    44   25   30 ar   
    45   25   26 ar   
    46   26   27 ar   
    47   26   49 1    
    48   27   28 ar   
    49   27   50 1    
    50   28   29 ar   
    51   28   32 1    
    52   29   30 ar   
    53   29   51 1    
    54   30   31 1    
    55   33   52 1    
    56   33   53 1    
@<TRIPOS>SUBSTRUCTURE
     1 UNK         1 GROUP             0       ****    0 ROOT    
