@<TRIPOS>MOLECULE
ZINC14855608_698
66   71    1
SMALL
USER_CHARGES


@<TRIPOS>ATOM
      1 C1          3.7686   53.6907   30.0817 C.3       1 UNK         0.0000 
      2 C2          3.7907   54.1084   28.6055 C.3       1 UNK         0.0000 
      3 C3          3.1288   53.0360   27.7279 C.3       1 UNK         0.0000 
      4 C4          2.9830   53.4935   26.2640 C.3       1 UNK         0.0000 
      5 C5          4.2981   54.0955   25.7527 C.2       1 UNK         0.0000 
      6 C6          5.2936   54.4995   26.6461 C.2       1 UNK         0.0000 
      7 S7          6.7045   55.1563   25.8854 S.3       1 UNK         0.0000 
      8 C8          6.0227   54.8600   24.3172 C.ar      1 UNK         0.0000 
      9 C9          4.7145   54.2874   24.3777 C.ar      1 UNK         0.0000 
     10 C10         4.1516   53.9915   23.1001 C.ar      1 UNK         0.0000 
     11 N11         4.8335   54.2705   21.9547 N.ar      1 UNK         0.0000 
     12 C12         6.0457   54.8737   22.0477 C.ar      1 UNK         0.0000 
     13 N13         6.6954   55.1581   23.2049 N.ar      1 UNK         0.0000 
     14 C14         6.7057   55.2973   20.7691 C.ar      1 UNK         0.0000 
     15 C15         6.0147   55.3042   19.5432 C.ar      1 UNK         0.0000 
     16 C16         6.6566   55.6920   18.3662 C.ar      1 UNK         0.0000 
     17 C17         7.9961   56.0698   18.4356 C.ar      1 UNK         0.0000 
     18 N18         8.6969   56.0769   19.5946 N.ar      1 UNK         0.0000 
     19 C19         8.0535   55.6967   20.7266 C.ar      1 UNK         0.0000 
     20 N20         2.9002   53.4040   22.9365 N.pl3     1 UNK         0.0000 
     21 C21         1.6955   54.0893   23.4108 C.3       1 UNK         0.0000 
     22 C22         0.5587   53.0964   23.7313 C.3       1 UNK         0.0000 
     23 N23         0.1360   52.3788   22.5232 N.3       1 UNK         0.0000 
     24 C24         1.3038   51.6935   21.9361 C.3       1 UNK         0.0000 
     25 C25         2.5408   52.6075   21.7458 C.3       1 UNK         0.0000 
     26 C26        -0.9921   51.4239   22.7220 C.3       1 UNK         0.0000 
     27 C27        -1.9492   51.7610   23.8817 C.ar      1 UNK         0.0000 
     28 C28        -2.9014   52.7788   23.7593 C.ar      1 UNK         0.0000 
     29 C29        -3.7429   53.0876   24.8229 C.ar      1 UNK         0.0000 
     30 C30        -3.6259   52.3855   26.0190 C.ar      1 UNK         0.0000 
     31 C31        -2.6737   51.3796   26.1618 C.ar      1 UNK         0.0000 
     32 C32        -1.8361   51.0694   25.0946 C.ar      1 UNK         0.0000 
     33 C33        -1.7457   51.1792   21.3826 C.2       1 UNK         0.0000 
     34 O34        -2.0215   52.0956   20.6077 O.2       1 UNK         0.0000 
     35 N35        -2.1384   49.9344   21.1109 N.am      1 UNK         0.0000 
     36 C36         5.2505   54.3272   28.1577 C.3       1 UNK         0.0000 
     37 H37         4.2567   52.7266   30.2340 H         1 UNK         0.0000 
     38 H38         4.2969   54.4238   30.6903 H         1 UNK         0.0000 
     39 H39         2.7474   53.6067   30.4544 H         1 UNK         0.0000 
     40 H40         3.2540   55.0563   28.5269 H         1 UNK         0.0000 
     41 H41         3.6862   52.1038   27.8049 H         1 UNK         0.0000 
     42 H42         2.1413   52.7898   28.1222 H         1 UNK         0.0000 
     43 H43         2.1735   54.2192   26.2212 H         1 UNK         0.0000 
     44 H44         2.6953   52.6309   25.6638 H         1 UNK         0.0000 
     45 H45         4.9762   55.0097   19.4922 H         1 UNK         0.0000 
     46 H46         6.1263   55.6983   17.4241 H         1 UNK         0.0000 
     47 H47         8.5310   56.3752   17.5478 H         1 UNK         0.0000 
     48 H48         8.6631   55.7065   21.6188 H         1 UNK         0.0000 
     49 H49         1.9110   54.7483   24.2451 H         1 UNK         0.0000 
     50 H50         1.3624   54.7681   22.6242 H         1 UNK         0.0000 
     51 H51        -0.2768   53.6977   24.0888 H         1 UNK         0.0000 
     52 H52         0.8689   52.4091   24.5191 H         1 UNK         0.0000 
     53 H53         1.6222   50.9050   22.6207 H         1 UNK         0.0000 
     54 H54         1.0509   51.2448   20.9742 H         1 UNK         0.0000 
     55 H55         3.3913   52.0037   21.4265 H         1 UNK         0.0000 
     56 H56         2.3102   53.2970   20.9345 H         1 UNK         0.0000 
     57 H57        -0.5607   50.4531   22.9786 H         1 UNK         0.0000 
     58 H58        -2.9823   53.3378   22.8423 H         1 UNK         0.0000 
     59 H59        -4.4783   53.8704   24.7200 H         1 UNK         0.0000 
     60 H60        -4.2773   52.6239   26.8455 H         1 UNK         0.0000 
     61 H61        -2.5835   50.8367   27.0930 H         1 UNK         0.0000 
     62 H62        -1.0983   50.2909   25.2203 H         1 UNK         0.0000 
     63 H63        -1.9575   49.1778   21.7531 H         1 UNK         0.0000 
     64 H64        -2.6385   49.7617   20.2535 H         1 UNK         0.0000 
     65 H65         5.8608   53.4641   28.4276 H         1 UNK         0.0000 
     66 H66         5.6818   55.1917   28.6649 H         1 UNK         0.0000 
@<TRIPOS>BOND
     1    1    2 1    
     2    1   37 1    
     3    1   38 1    
     4    1   39 1    
     5    2   36 1    
     6    2    3 1    
     7    2   40 1    
     8    3    4 1    
     9    3   41 1    
    10    3   42 1    
    11    4    5 1    
    12    4   43 1    
    13    4   44 1    
    14    5    9 1    
    15    5    6 2    
    16    6    7 1    
    17    6   36 1    
    18    7    8 1    
    19    8   13 ar   
    20    8    9 ar   
    21    9   10 ar   
    22   10   11 ar   
    23   10   20 1    
    24   11   12 ar   
    25   12   13 ar   
    26   12   14 1    
    27   14   19 ar   
    28   14   15 ar   
    29   15   16 ar   
    30   15   45 1    
    31   16   17 ar   
    32   16   46 1    
    33   17   18 ar   
    34   17   47 1    
    35   18   19 ar   
    36   19   48 1    
    37   20   25 1    
    38   20   21 1    
    39   21   22 1    
    40   21   49 1    
    41   21   50 1    
    42   22   23 1    
    43   22   51 1    
    44   22   52 1    
    45   23   24 1    
    46   23   26 1    
    47   24   25 1    
    48   24   53 1    
    49   24   54 1    
    50   25   55 1    
    51   25   56 1    
    52   26   27 1    
    53   26   33 1    
    54   26   57 1    
    55   27   32 ar   
    56   27   28 ar   
    57   28   29 ar   
    58   28   58 1    
    59   29   30 ar   
    60   29   59 1    
    61   30   31 ar   
    62   30   60 1    
    63   31   32 ar   
    64   31   61 1    
    65   32   62 1    
    66   33   34 2    
    67   33   35 am   BACKBONE|DICT|INTERRES
    68   35   63 1    
    69   35   64 1    
    70   36   65 1    
    71   36   66 1    
@<TRIPOS>SUBSTRUCTURE
     1 UNK         1 GROUP             0       ****    0 ROOT    
