@<TRIPOS>MOLECULE
ZINC49458987_2565
40   40    1
SMALL
USER_CHARGES


@<TRIPOS>ATOM
      1 C1          8.4523   51.3678   15.5852 C.3       1 UNK         0.0000 
      2 C2          9.1658   51.7889   16.8834 C.3       1 UNK         0.0000 
      3 C3          8.9169   53.2484   17.3275 C.3       1 UNK         0.0000 
      4 H4          9.5015   53.3830   18.2421 H         1 UNK         0.0000 
      5 C5          9.4536   54.2707   16.3000 C.3       1 UNK         0.0000 
      6 N6          7.5124   53.4793   17.6799 N.am      1 UNK         0.0000 
      7 C7          7.0522   54.5586   18.3402 C.2       1 UNK         0.0000 
      8 O8          7.7790   55.4762   18.7273 O.2       1 UNK         0.0000 
      9 C9          5.5289   54.6082   18.5939 C.3       1 UNK         0.0000 
     10 H10         5.0482   53.9310   17.8856 H         1 UNK         0.0000 
     11 C11         4.9306   56.0142   18.3692 C.3       1 UNK         0.0000 
     12 N12         5.1539   54.0867   19.9179 N.am      1 UNK         0.0000 
     13 C13         5.5036   54.5675   21.1234 C.2       1 UNK         0.0000 
     14 O14         6.2206   55.5565   21.2956 O.2       1 UNK         0.0000 
     15 N15         4.9670   53.8356   22.1151 N.am      1 UNK         0.0000 
     16 C16         5.1148   54.0968   23.4844 C.ar      1 UNK         0.0000 
     17 C17         6.3883   54.2026   24.0595 C.ar      1 UNK         0.0000 
     18 C18         6.5225   54.4418   25.4267 C.ar      1 UNK         0.0000 
     19 C19         5.3907   54.5850   26.2253 C.ar      1 UNK         0.0000 
     20 C20         4.1207   54.4917   25.6565 C.ar      1 UNK         0.0000 
     21 C21         3.9742   54.2419   24.2908 C.ar      1 UNK         0.0000 
     22 I22         2.0322   54.0967   23.5056 I         1 UNK         0.0000 
     23 H23         8.7046   50.3389   15.3258 H         1 UNK         0.0000 
     24 H24         8.7474   51.9945   14.7428 H         1 UNK         0.0000 
     25 H25         7.3686   51.4279   15.6856 H         1 UNK         0.0000 
     26 H26         8.8636   51.1096   17.6817 H         1 UNK         0.0000 
     27 H27        10.2398   51.6294   16.7674 H         1 UNK         0.0000 
     28 H28        10.4573   53.9946   15.9709 H         1 UNK         0.0000 
     29 H29         8.8263   54.3216   15.4110 H         1 UNK         0.0000 
     30 H30         9.5377   55.2680   16.7308 H         1 UNK         0.0000 
     31 H31         6.8601   52.7505   17.4230 H         1 UNK         0.0000 
     32 H32         5.1531   56.3733   17.3630 H         1 UNK         0.0000 
     33 H33         3.8459   56.0062   18.4818 H         1 UNK         0.0000 
     34 H34         5.3341   56.7470   19.0678 H         1 UNK         0.0000 
     35 H35         4.6012   53.2437   19.8832 H         1 UNK         0.0000 
     36 H36         4.2993   53.1205   21.8687 H         1 UNK         0.0000 
     37 H37         7.2770   54.0971   23.4493 H         1 UNK         0.0000 
     38 H38         7.5051   54.4971   25.8687 H         1 UNK         0.0000 
     39 H39         5.4963   54.7692   27.2844 H         1 UNK         0.0000 
     40 H40         3.2462   54.6035   26.2804 H         1 UNK         0.0000 
@<TRIPOS>BOND
     1    1    2 1    
     2    1   23 1    
     3    1   24 1    
     4    1   25 1    
     5    2    3 1    
     6    2   26 1    
     7    2   27 1    
     8    3    4 1    
     9    3    5 1    
    10    3    6 1    
    11    5   28 1    
    12    5   29 1    
    13    5   30 1    
    14    6    7 am   BACKBONE|DICT|INTERRES
    15    6   31 1    
    16    7    8 2    
    17    7    9 1    
    18    9   10 1    
    19    9   11 1    
    20    9   12 1    
    21   11   32 1    
    22   11   33 1    
    23   11   34 1    
    24   12   13 am   BACKBONE|DICT|INTERRES
    25   12   35 1    
    26   13   14 2    
    27   13   15 am   BACKBONE|DICT|INTERRES
    28   15   16 1    
    29   15   36 1    
    30   16   21 ar   
    31   16   17 ar   
    32   17   18 ar   
    33   17   37 1    
    34   18   19 ar   
    35   18   38 1    
    36   19   20 ar   
    37   19   39 1    
    38   20   21 ar   
    39   20   40 1    
    40   21   22 1    
@<TRIPOS>SUBSTRUCTURE
     1 UNK         1 GROUP             0       ****    0 ROOT    
