@<TRIPOS>MOLECULE
ZINC16321175_5037
49   51    1
SMALL
USER_CHARGES


@<TRIPOS>ATOM
      1 C1         -3.3233   46.0970   26.9229 C.3       1 UNK         0.0000 
      2 C2         -2.7873   46.6054   25.5908 C.2       1 UNK         0.0000 
      3 O3         -3.1882   46.0967   24.5450 O.2       1 UNK         0.0000 
      4 N4         -1.8747   47.5888   25.6818 N.am      1 UNK         0.0000 
      5 C5         -1.1683   48.2580   24.6676 C.ar      1 UNK         0.0000 
      6 C6         -1.4837   48.2063   23.3019 C.ar      1 UNK         0.0000 
      7 C7         -0.7195   48.9213   22.3813 C.ar      1 UNK         0.0000 
      8 C8          0.3626   49.7045   22.8051 C.ar      1 UNK         0.0000 
      9 C9          0.6688   49.7438   24.1737 C.ar      1 UNK         0.0000 
     10 C10        -0.0921   49.0328   25.0952 C.ar      1 UNK         0.0000 
     11 C11         1.1845   50.4727   21.7896 C.2       1 UNK         0.0000 
     12 O12         1.1584   50.1563   20.5968 O.2       1 UNK         0.0000 
     13 N13         1.9065   51.5036   22.2823 N.am      1 UNK         0.0000 
     14 N14         2.8426   52.1671   21.5722 N.2       1 UNK         0.0000 
     15 C15         3.4417   53.0505   22.2670 C.2       1 UNK         0.0000 
     16 C16         4.5892   53.8421   21.7849 C.ar      1 UNK         0.0000 
     17 C17         4.7075   54.1341   20.4171 C.ar      1 UNK         0.0000 
     18 C18         5.7851   54.8662   19.9273 C.ar      1 UNK         0.0000 
     19 C19         6.7813   55.2971   20.7950 C.ar      1 UNK         0.0000 
     20 C20         6.6919   55.0061   22.1534 C.ar      1 UNK         0.0000 
     21 C21         5.5853   54.3073   22.6774 C.ar      1 UNK         0.0000 
     22 O22         5.4372   54.0115   24.0302 O.3       1 UNK         0.0000 
     23 C23         5.8698   54.7970   25.0662 C.2       1 UNK         0.0000 
     24 O24         6.7043   55.6969   24.9762 O.2       1 UNK         0.0000 
     25 C25         5.2757   54.3994   26.3795 C.ar      1 UNK         0.0000 
     26 C26         5.9229   54.7896   27.5563 C.ar      1 UNK         0.0000 
     27 C27         5.3725   54.4966   28.7971 C.ar      1 UNK         0.0000 
     28 C28         4.1720   53.7966   28.8730 C.ar      1 UNK         0.0000 
     29 C29         3.5154   53.3939   27.7129 C.ar      1 UNK         0.0000 
     30 C30         4.0642   53.6967   26.4685 C.ar      1 UNK         0.0000 
     31 Br31        5.9067   55.2584   18.0689 Br        1 UNK         0.0000 
     32 H32        -2.5118   45.6963   27.5319 H         1 UNK         0.0000 
     33 H33        -4.0659   45.3126   26.7794 H         1 UNK         0.0000 
     34 H34        -3.7887   46.9109   27.4784 H         1 UNK         0.0000 
     35 H35        -1.6309   47.8620   26.6351 H         1 UNK         0.0000 
     36 H36        -2.3194   47.6326   22.9339 H         1 UNK         0.0000 
     37 H37        -0.9823   48.8648   21.3329 H         1 UNK         0.0000 
     38 H38         1.5040   50.3150   24.5412 H         1 UNK         0.0000 
     39 H39         0.1672   49.0759   26.1446 H         1 UNK         0.0000 
     40 H40         1.8302   51.7667   23.2527 H         1 UNK         0.0000 
     41 H41         3.1516   53.2788   23.2929 H         1 UNK         0.0000 
     42 H42         3.9544   53.7964   19.7176 H         1 UNK         0.0000 
     43 H43         7.6332   55.8397   20.4119 H         1 UNK         0.0000 
     44 H44         7.5043   55.3292   22.7853 H         1 UNK         0.0000 
     45 H45         6.8529   55.3392   27.5298 H         1 UNK         0.0000 
     46 H46         5.8934   54.8315   29.6818 H         1 UNK         0.0000 
     47 H47         3.7478   53.5628   29.8375 H         1 UNK         0.0000 
     48 H48         2.5843   52.8488   27.7771 H         1 UNK         0.0000 
     49 H49         3.5338   53.3854   25.5816 H         1 UNK         0.0000 
@<TRIPOS>BOND
     1    1    2 1    
     2    1   32 1    
     3    1   33 1    
     4    1   34 1    
     5    2    3 2    
     6    2    4 am   BACKBONE|DICT|INTERRES
     7    4    5 1    
     8    4   35 1    
     9    5   10 ar   
    10    5    6 ar   
    11    6    7 ar   
    12    6   36 1    
    13    7    8 ar   
    14    7   37 1    
    15    8    9 ar   
    16    8   11 1    
    17    9   10 ar   
    18    9   38 1    
    19   10   39 1    
    20   11   12 2    
    21   11   13 am   BACKBONE|DICT|INTERRES
    22   13   14 1    
    23   13   40 1    
    24   14   15 2    
    25   15   16 1    
    26   15   41 1    
    27   16   21 ar   
    28   16   17 ar   
    29   17   18 ar   
    30   17   42 1    
    31   18   19 ar   
    32   18   31 1    
    33   19   20 ar   
    34   19   43 1    
    35   20   21 ar   
    36   20   44 1    
    37   21   22 1    
    38   22   23 1    
    39   23   24 2    
    40   23   25 1    
    41   25   30 ar   
    42   25   26 ar   
    43   26   27 ar   
    44   26   45 1    
    45   27   28 ar   
    46   27   46 1    
    47   28   29 ar   
    48   28   47 1    
    49   29   30 ar   
    50   29   48 1    
    51   30   49 1    
@<TRIPOS>SUBSTRUCTURE
     1 UNK         1 GROUP             0       ****    0 ROOT    
