ZINC12679102_721
                    3D
 Schrodinger Suite 2024-2.
 58 62  0  0  1  0            999 V2000
    0.1502   53.6334   16.5518 C   0  0  0  0  0  0
    1.2438   54.1049   17.2813 C   0  0  0  0  0  0
    2.2777   53.1794   17.4456 C   0  0  0  0  0  0
    1.8539   51.6961   16.6291 S   0  0  0  0  0  0
    0.3259   52.3290   16.1276 C   0  0  0  0  0  0
    3.6220   53.3159   18.1542 C   0  0  1  0  0  0
    4.2737   52.4982   17.8346 H   0  0  0  0  0  0
    4.3429   54.6567   17.9367 C   0  0  0  0  0  0
    4.2167   55.5033   16.8219 C   0  0  0  0  0  0
    4.9926   56.6509   16.9072 C   0  0  0  0  0  0
    5.9185   56.7020   18.3663 S   0  0  0  0  0  0
    5.2558   55.1770   18.8655 C   0  0  0  0  0  0
    5.5557   54.5551   20.2187 C   0  0  0  0  0  0
    4.9469   53.1392   20.2952 C   0  0  0  0  0  0
    2.7526   51.8567   20.1276 C   0  0  0  0  0  0
    2.3499   51.8084   21.6204 C   0  0  0  0  0  0
    1.9197   50.7421   22.0535 O   0  0  0  0  0  0
    2.5214   52.9140   22.3835 N   0  0  0  0  0  0
    2.3327   53.0481   23.7716 C   0  0  0  0  0  0
    3.1706   53.9504   24.4299 C   0  0  0  0  0  0
    3.0924   54.0980   25.8131 C   0  0  0  0  0  0
    2.1515   53.3707   26.5444 C   0  0  0  0  0  0
    1.2837   52.4967   25.8822 C   0  0  0  0  0  0
    1.3764   52.3294   24.5008 C   0  0  0  0  0  0
    1.9662   53.6147   28.3209 S   0  0  0  0  0  0
    1.3672   54.9436   28.4906 O   0  0  0  0  0  0
    1.2869   52.4253   28.8457 O   0  0  0  0  0  0
    3.5801   53.6610   29.0607 N   0  0  0  0  0  0
    4.4478   52.4703   29.0111 C   0  0  0  0  0  0
    5.5042   52.8964   27.9948 C   0  0  0  0  0  0
    5.7098   54.3723   28.2510 C   0  0  0  0  0  0
    4.4317   54.8676   28.9374 C   0  0  0  0  0  0
   -0.7275   54.2258   16.3371 H   0  0  0  0  0  0
    1.2898   55.1069   17.6820 H   0  0  0  0  0  0
   -0.3496   51.7209   15.5444 H   0  0  0  0  0  0
    3.5750   55.2854   15.9796 H   0  0  0  0  0  0
    5.0648   57.4581   16.1927 H   0  0  0  0  0  0
    6.6282   54.5014   20.4066 H   0  0  0  0  0  0
    5.1133   55.1743   20.9996 H   0  0  0  0  0  0
    5.5079   52.3978   19.7192 H   0  0  0  0  0  0
    4.9234   52.8076   21.3327 H   0  0  0  0  0  0
    1.8393   51.7953   19.5388 H   0  0  0  0  0  0
    3.3895   51.0158   19.8429 H   0  0  0  0  0  0
    2.9794   53.6963   21.9489 H   0  0  0  0  0  0
    3.9050   54.5222   23.8812 H   0  0  0  0  0  0
    3.7429   54.8055   26.3028 H   0  0  0  0  0  0
    0.5374   51.9402   26.4330 H   0  0  0  0  0  0
    0.6990   51.6433   24.0142 H   0  0  0  0  0  0
    4.8873   52.3105   29.9954 H   0  0  0  0  0  0
    3.8883   51.5516   28.8500 H   0  0  0  0  0  0
    6.4345   52.3373   28.0815 H   0  0  0  0  0  0
    5.1392   52.7238   26.9815 H   0  0  0  0  0  0
    5.9217   54.9191   27.3306 H   0  0  0  0  0  0
    6.5700   54.4967   28.9090 H   0  0  0  0  0  0
    3.8992   55.6967   28.4808 H   0  0  0  0  0  0
    4.7266   55.1885   29.9362 H   0  0  0  0  0  0
    3.5045   53.1594   19.7055 N   0  3  2  0  0  0
    2.9643   53.9402   20.0643 H   0  0  0  0  0  0
  1  5  2  0  0  0
  1  2  1  0  0  0
  1 33  1  0  0  0
  2  3  2  0  0  0
  2 34  1  0  0  0
  3  4  1  0  0  0
  3  6  1  0  0  0
  4  5  1  0  0  0
  5 35  1  0  0  0
  6  7  1  0  0  0
  6  8  1  0  0  0
  6 57  1  0  0  0
  8 12  2  0  0  0
  8  9  1  0  0  0
  9 10  2  0  0  0
  9 36  1  0  0  0
 10 11  1  0  0  0
 10 37  1  0  0  0
 11 12  1  0  0  0
 12 13  1  0  0  0
 13 14  1  0  0  0
 13 38  1  0  0  0
 13 39  1  0  0  0
 14 40  1  0  0  0
 14 41  1  0  0  0
 14 57  1  0  0  0
 15 16  1  0  0  0
 15 42  1  0  0  0
 15 43  1  0  0  0
 15 57  1  0  0  0
 16 17  2  0  0  0
 16 18  1  0  0  0
 18 19  1  0  0  0
 18 44  1  0  0  0
 19 24  2  0  0  0
 19 20  1  0  0  0
 20 21  2  0  0  0
 20 45  1  0  0  0
 21 22  1  0  0  0
 21 46  1  0  0  0
 22 23  2  0  0  0
 22 25  1  0  0  0
 23 24  1  0  0  0
 23 47  1  0  0  0
 24 48  1  0  0  0
 25 26  2  0  0  0
 25 27  2  0  0  0
 25 28  1  0  0  0
 28 32  1  0  0  0
 28 29  1  0  0  0
 29 30  1  0  0  0
 29 49  1  0  0  0
 29 50  1  0  0  0
 30 31  1  0  0  0
 30 51  1  0  0  0
 30 52  1  0  0  0
 31 32  1  0  0  0
 31 53  1  0  0  0
 31 54  1  0  0  0
 32 55  1  0  0  0
 32 56  1  0  0  0
 57 58  1  0  0  0
M  CHG  1  57   1
M  END
> <i_i_glide_confnum>
65

> <i_i_glide_lignum>
722

> <i_i_glide_posenum>
135

> <i_i_glide_rotatable_bonds>
7

> <i_m_Source_File_Index>
5873

> <b_m_subgroup_collapsed>
0

> <r_i_docking_score>
-4.06161

> <r_i_glide_ecoul>
-2.38726

> <r_i_glide_eff_state_penalty>
0

> <r_i_glide_einternal>
9.52825

> <r_i_glide_emodel>
-46.9385

> <r_i_glide_energy>
-41.5135

> <r_i_glide_erotb>
0.596181

> <r_i_glide_esite>
-0.00869005

> <r_i_glide_evdw>
-39.1263

> <r_i_glide_gscore>
-4.06161

> <r_i_glide_hbond>
0

> <r_i_glide_ligand_efficiency>
-0.126925

> <r_i_glide_ligand_efficiency_ln>
-0.909505

> <r_i_glide_ligand_efficiency_sa>
-0.402963

> <r_i_glide_lipo>
-2.31001

> <r_i_glide_metal>
0

> <r_i_glide_rewards>
-0.0246895

> <s_i_glide_gridfile>
wee1_glide-grid

> <s_m_Source_File>
wee1_decoys_glide_SP.sdf

> <s_m_Source_Path>
/Users/zhangxujun/Desktop

> <s_m_entry_id>
6148

> <s_m_entry_name>
wee1_decoys_glide_SP.5873

> <s_m_subgroup_title>
wee1_decoys_glide_SP

> <s_m_subgroupid>
wee1_decoys_glide_SP


$$$$
