@<TRIPOS>MOLECULE
ZINC35136177_5595
67   70    1
SMALL
USER_CHARGES


@<TRIPOS>ATOM
      1 C1          1.8254   47.8297   19.7071 C.3       1 UNK         0.0000 
      2 C2          0.9501   49.0875   19.6231 C.3       1 UNK         0.0000 
      3 C3          0.4053   49.5278   20.9954 C.3       1 UNK         0.0000 
      4 N4         -0.3044   50.8198   20.9462 N.am      1 UNK         0.0000 
      5 C5          0.4967   52.0002   21.3091 C.3       1 UNK         0.0000 
      6 C6          0.4917   52.2690   22.8229 C.2       1 UNK         0.0000 
      7 O7         -0.5739   52.4262   23.4211 O.2       1 UNK         0.0000 
      8 N8          1.7082   52.4591   23.3625 N.am      1 UNK         0.0000 
      9 C9          1.9667   52.9760   24.6192 C.ar      1 UNK         0.0000 
     10 C10         1.2483   52.8866   25.8002 C.ar      1 UNK         0.0000 
     11 C11         1.9973   53.5449   26.7838 C.ar      1 UNK         0.0000 
     12 N12         3.0937   54.0420   26.2444 N.2       1 UNK         0.0000 
     13 N13         3.1135   53.6885   24.9398 N.pl3     1 UNK         0.0000 
     14 C14         4.2129   54.0964   24.1136 C.ar      1 UNK         0.0000 
     15 C15         4.1096   54.1274   22.7109 C.ar      1 UNK         0.0000 
     16 C16         5.1947   54.4967   21.9254 C.ar      1 UNK         0.0000 
     17 C17         6.3865   54.8943   22.5270 C.ar      1 UNK         0.0000 
     18 C18         6.5118   54.8673   23.9151 C.ar      1 UNK         0.0000 
     19 C19         5.4371   54.4650   24.7027 C.ar      1 UNK         0.0000 
     20 C20         7.5378   55.3927   21.6754 C.3       1 UNK         0.0000 
     21 C21         1.7059   53.7196   28.2833 C.3       1 UNK         0.0000 
     22 C22         1.6941   55.2205   28.6547 C.3       1 UNK         0.0000 
     23 C23         2.7955   52.9960   29.1094 C.3       1 UNK         0.0000 
     24 C24         0.3276   53.1206   28.6546 C.3       1 UNK         0.0000 
     25 C25        -1.5932   50.9841   20.5195 C.2       1 UNK         0.0000 
     26 O26        -2.0951   52.0948   20.3128 O.2       1 UNK         0.0000 
     27 C27        -2.4489   49.7657   20.2660 C.ar      1 UNK         0.0000 
     28 C28        -3.0857   49.6141   19.0153 C.ar      1 UNK         0.0000 
     29 C29        -3.9061   48.5097   18.7475 C.ar      1 UNK         0.0000 
     30 C30        -4.0720   47.5724   19.7601 C.ar      1 UNK         0.0000 
     31 C31        -3.4795   47.7179   20.9807 C.ar      1 UNK         0.0000 
     32 C32        -2.6723   48.8103   21.2787 C.ar      1 UNK         0.0000 
     33 O33        -3.8420   46.6834   21.7852 O.3       1 UNK         0.0000 
     34 C34        -4.5428   45.7870   20.9636 C.3       1 UNK         0.0000 
     35 O35        -4.8286   46.4441   19.7566 O.3       1 UNK         0.0000 
     36 H36         2.2393   47.5829   18.7283 H         1 UNK         0.0000 
     37 H37         2.6665   47.9723   20.3888 H         1 UNK         0.0000 
     38 H38         1.2508   46.9692   20.0510 H         1 UNK         0.0000 
     39 H39         0.1255   48.8998   18.9343 H         1 UNK         0.0000 
     40 H40         1.5434   49.8940   19.1871 H         1 UNK         0.0000 
     41 H41         1.2582   49.6265   21.6690 H         1 UNK         0.0000 
     42 H42        -0.1881   48.7317   21.4398 H         1 UNK         0.0000 
     43 H43         0.2070   52.9013   20.7709 H         1 UNK         0.0000 
     44 H44         1.5226   51.8441   20.9713 H         1 UNK         0.0000 
     45 H45         2.5058   52.3524   22.7552 H         1 UNK         0.0000 
     46 H46         0.3033   52.3805   25.9358 H         1 UNK         0.0000 
     47 H47         3.1928   53.9268   22.1836 H         1 UNK         0.0000 
     48 H48         5.0851   54.5301   20.8502 H         1 UNK         0.0000 
     49 H49         7.4404   55.1636   24.3828 H         1 UNK         0.0000 
     50 H50         5.5679   54.4437   25.7756 H         1 UNK         0.0000 
     51 H51         7.9281   56.3253   22.0816 H         1 UNK         0.0000 
     52 H52         7.2377   55.5852   20.6442 H         1 UNK         0.0000 
     53 H53         8.3524   54.6741   21.6811 H         1 UNK         0.0000 
     54 H54         0.9384   55.7592   28.0826 H         1 UNK         0.0000 
     55 H55         1.4736   55.3759   29.7112 H         1 UNK         0.0000 
     56 H56         2.6529   55.6965   28.4479 H         1 UNK         0.0000 
     57 H57         2.8469   51.9359   28.8545 H         1 UNK         0.0000 
     58 H58         3.7862   53.4132   28.9239 H         1 UNK         0.0000 
     59 H59         2.6041   53.0660   30.1802 H         1 UNK         0.0000 
     60 H60         0.2806   52.0523   28.4367 H         1 UNK         0.0000 
     61 H61         0.1036   53.2447   29.7147 H         1 UNK         0.0000 
     62 H62        -0.4789   53.5958   28.0944 H         1 UNK         0.0000 
     63 H63        -2.9450   50.3551   18.2402 H         1 UNK         0.0000 
     64 H64        -4.3911   48.4006   17.7888 H         1 UNK         0.0000 
     65 H65        -2.2416   48.9231   22.2637 H         1 UNK         0.0000 
     66 H66        -5.4688   45.4729   21.4484 H         1 UNK         0.0000 
     67 H67        -3.9120   44.9212   20.7540 H         1 UNK         0.0000 
@<TRIPOS>BOND
     1    1    2 1    
     2    1   36 1    
     3    1   37 1    
     4    1   38 1    
     5    2    3 1    
     6    2   39 1    
     7    2   40 1    
     8    3    4 1    
     9    3   41 1    
    10    3   42 1    
    11    4    5 1    
    12    4   25 am   BACKBONE|DICT|INTERRES
    13    5    6 1    
    14    5   43 1    
    15    5   44 1    
    16    6    7 2    
    17    6    8 am   BACKBONE|DICT|INTERRES
    18    8    9 1    
    19    8   45 1    
    20    9   13 ar   
    21    9   10 ar   
    22   10   11 ar   
    23   10   46 1    
    24   11   12 ar   
    25   11   21 1    
    26   12   13 ar   
    27   13   14 1    
    28   14   19 ar   
    29   14   15 ar   
    30   15   16 ar   
    31   15   47 1    
    32   16   17 ar   
    33   16   48 1    
    34   17   18 ar   
    35   17   20 1    
    36   18   19 ar   
    37   18   49 1    
    38   19   50 1    
    39   20   51 1    
    40   20   52 1    
    41   20   53 1    
    42   21   22 1    
    43   21   23 1    
    44   21   24 1    
    45   22   54 1    
    46   22   55 1    
    47   22   56 1    
    48   23   57 1    
    49   23   58 1    
    50   23   59 1    
    51   24   60 1    
    52   24   61 1    
    53   24   62 1    
    54   25   26 2    
    55   25   27 1    
    56   27   32 ar   
    57   27   28 ar   
    58   28   29 ar   
    59   28   63 1    
    60   29   30 ar   
    61   29   64 1    
    62   30   35 1    
    63   30   31 ar   
    64   31   32 ar   
    65   31   33 1    
    66   32   65 1    
    67   33   34 1    
    68   34   35 1    
    69   34   66 1    
    70   34   67 1    
@<TRIPOS>SUBSTRUCTURE
     1 UNK         1 GROUP             0       ****    0 ROOT    
