@<TRIPOS>MOLECULE
ZINC63260491_1394
53   55    1
SMALL
USER_CHARGES


@<TRIPOS>ATOM
      1 C1         -4.4916   50.3164   29.9745 C.3       1 UNK         0.0000 
      2 N2         -3.2959   50.4967   29.1625 N.am      1 UNK         0.0000 
      3 C3         -3.2348   51.2024   28.0229 C.2       1 UNK         0.0000 
      4 O4         -4.2410   51.7012   27.5137 O.2       1 UNK         0.0000 
      5 C5         -1.8591   51.2809   27.3062 C.3       1 UNK         0.0000 
      6 C6         -0.7324   51.6364   28.3157 C.3       1 UNK         0.0000 
      7 C7          0.6388   51.6807   27.6031 C.3       1 UNK         0.0000 
      8 C8          0.6654   52.7089   26.4487 C.3       1 UNK         0.0000 
      9 C9         -0.5102   52.4319   25.4629 C.3       1 UNK         0.0000 
     10 C10        -1.8921   52.2941   26.1348 C.3       1 UNK         0.0000 
     11 N11         1.9900   52.8969   25.8547 N.am      1 UNK         0.0000 
     12 C12         2.3269   53.6976   24.8278 C.2       1 UNK         0.0000 
     13 O13         1.5057   54.2313   24.0825 O.2       1 UNK         0.0000 
     14 C14         3.8045   53.9499   24.6122 C.ar      1 UNK         0.0000 
     15 C15         4.2337   54.1468   23.2902 C.ar      1 UNK         0.0000 
     16 C16         5.5550   54.4966   22.9848 C.ar      1 UNK         0.0000 
     17 C17         6.4759   54.5962   24.0299 C.ar      1 UNK         0.0000 
     18 C18         6.0782   54.3835   25.3444 C.ar      1 UNK         0.0000 
     19 C19         4.7480   54.0953   25.6622 C.ar      1 UNK         0.0000 
     20 N20         4.4519   53.9369   27.0238 N.pl3     1 UNK         0.0000 
     21 C21         4.5562   52.6853   27.7579 C.3       1 UNK         0.0000 
     22 C22         4.5233   52.9807   29.2450 C.3       1 UNK         0.0000 
     23 C23         5.1033   54.3697   29.2814 C.3       1 UNK         0.0000 
     24 C24         4.5458   54.9965   28.0109 C.3       1 UNK         0.0000 
     25 N25         5.9525   54.8081   21.5909 N.pl3     1 UNK         0.0000 
     26 O26         7.0550   55.3135   21.3988 O.co2     1 UNK         0.0000 
     27 O27         5.1615   54.5586   20.6874 O.co2     1 UNK         0.0000 
     28 H28        -4.2024   50.0915   31.0018 H         1 UNK         0.0000 
     29 H29        -5.1156   51.2111   29.9820 H         1 UNK         0.0000 
     30 H30        -5.0824   49.4819   29.5964 H         1 UNK         0.0000 
     31 H31        -2.5089   49.8981   29.4052 H         1 UNK         0.0000 
     32 H32        -1.6830   50.2591   26.9626 H         1 UNK         0.0000 
     33 H33        -0.6389   50.8965   29.1108 H         1 UNK         0.0000 
     34 H34        -0.8948   52.6314   28.7355 H         1 UNK         0.0000 
     35 H35         0.8702   50.6863   27.2151 H         1 UNK         0.0000 
     36 H36         1.4134   51.9140   28.3347 H         1 UNK         0.0000 
     37 H37         0.5040   53.6517   26.9713 H         1 UNK         0.0000 
     38 H38        -0.5982   53.2211   24.7182 H         1 UNK         0.0000 
     39 H39        -0.2944   51.5163   24.9126 H         1 UNK         0.0000 
     40 H40        -2.1466   53.2951   26.4881 H         1 UNK         0.0000 
     41 H41        -2.5860   51.9692   25.3563 H         1 UNK         0.0000 
     42 H42         2.7623   52.6473   26.4525 H         1 UNK         0.0000 
     43 H43         3.5156   54.0743   22.4823 H         1 UNK         0.0000 
     44 H44         7.5043   54.8555   23.8262 H         1 UNK         0.0000 
     45 H45         6.8116   54.4658   26.1327 H         1 UNK         0.0000 
     46 H46         3.6723   52.0967   27.5519 H         1 UNK         0.0000 
     47 H47         5.4811   52.1621   27.5180 H         1 UNK         0.0000 
     48 H48         3.5006   52.9551   29.6253 H         1 UNK         0.0000 
     49 H49         5.1026   52.2533   29.8137 H         1 UNK         0.0000 
     50 H50         6.1952   54.3726   29.2719 H         1 UNK         0.0000 
     51 H51         4.7888   54.8968   30.1744 H         1 UNK         0.0000 
     52 H52         5.3094   55.6964   27.6803 H         1 UNK         0.0000 
     53 H53         3.5744   55.4382   28.2340 H         1 UNK         0.0000 
@<TRIPOS>BOND
     1    1    2 1    
     2    1   28 1    
     3    1   29 1    
     4    1   30 1    
     5    2    3 am   BACKBONE|DICT|INTERRES
     6    2   31 1    
     7    3    4 2    
     8    3    5 1    
     9    5   10 1    
    10    5    6 1    
    11    5   32 1    
    12    6    7 1    
    13    6   33 1    
    14    6   34 1    
    15    7    8 1    
    16    7   35 1    
    17    7   36 1    
    18    8    9 1    
    19    8   11 1    
    20    8   37 1    
    21    9   10 1    
    22    9   38 1    
    23    9   39 1    
    24   10   40 1    
    25   10   41 1    
    26   11   12 am   BACKBONE|DICT|INTERRES
    27   11   42 1    
    28   12   13 2    
    29   12   14 1    
    30   14   19 ar   
    31   14   15 ar   
    32   15   16 ar   
    33   15   43 1    
    34   16   17 ar   
    35   16   25 1    
    36   17   18 ar   
    37   17   44 1    
    38   18   19 ar   
    39   18   45 1    
    40   19   20 1    
    41   20   24 1    
    42   20   21 1    
    43   21   22 1    
    44   21   46 1    
    45   21   47 1    
    46   22   23 1    
    47   22   48 1    
    48   22   49 1    
    49   23   24 1    
    50   23   50 1    
    51   23   51 1    
    52   24   52 1    
    53   24   53 1    
    54   25   26 2    
    55   25   27 1    
@<TRIPOS>SUBSTRUCTURE
     1 UNK         1 GROUP             0       ****    0 ROOT    
