@<TRIPOS>MOLECULE
ZINC01056560_2803
47   50    1
SMALL
USER_CHARGES


@<TRIPOS>ATOM
      1 C1          7.2245   53.6849   17.8678 C.ar      1 UNK         0.0000 
      2 C2          8.4737   53.4924   17.2823 C.ar      1 UNK         0.0000 
      3 C3          9.3938   54.5458   17.2097 C.ar      1 UNK         0.0000 
      4 C4          9.0194   55.8070   17.6938 C.ar      1 UNK         0.0000 
      5 C5          7.7634   56.0006   18.2632 C.ar      1 UNK         0.0000 
      6 C6          6.8676   54.9349   18.3808 C.ar      1 UNK         0.0000 
      7 C7          5.5207   55.1145   19.1075 C.3       1 UNK         0.0000 
      8 H8          5.3573   56.1952   19.1104 H         1 UNK         0.0000 
      9 C9          4.3513   54.4827   18.3468 C.2       1 UNK         0.0000 
     10 C10         3.5853   53.5023   18.8707 C.2       1 UNK         0.0000 
     11 N11         3.7602   53.0529   20.1881 N.pl3     1 UNK         0.0000 
     12 C12         4.7524   53.6020   21.0193 C.2       1 UNK         0.0000 
     13 C13         5.5615   54.6122   20.5770 C.2       1 UNK         0.0000 
     14 C14         6.5184   55.2981   21.4871 C.2       1 UNK         0.0000 
     15 O15         7.1002   56.3327   21.1682 O.2       1 UNK         0.0000 
     16 C16         6.7043   54.7394   22.9036 C.3       1 UNK         0.0000 
     17 C17         5.4138   54.1258   23.4387 C.3       1 UNK         0.0000 
     18 C18         4.8648   53.0781   22.4679 C.3       1 UNK         0.0000 
     19 C19         2.8683   52.0900   20.7203 C.ar      1 UNK         0.0000 
     20 C20         1.7699   52.4941   21.4891 C.ar      1 UNK         0.0000 
     21 C21         0.9026   51.5457   22.0226 C.ar      1 UNK         0.0000 
     22 C22         1.1233   50.1922   21.7771 C.ar      1 UNK         0.0000 
     23 C23         2.2093   49.7833   21.0058 C.ar      1 UNK         0.0000 
     24 C24         3.0777   50.7324   20.4738 C.ar      1 UNK         0.0000 
     25 Br25       -0.0820   48.8999   22.4824 Br        1 UNK         0.0000 
     26 N26         2.5981   52.8849   18.1295 N.pl3     1 UNK         0.0000 
     27 C27         4.1358   54.9303   17.0051 C.1       1 UNK         0.0000 
     28 N28         3.9420   55.2820   15.9193 N.1       1 UNK         0.0000 
     29 N29        10.7483   54.3287   16.6443 N.pl3     1 UNK         0.0000 
     30 O30        11.0768   53.1895   16.3339 O.co2     1 UNK         0.0000 
     31 O31        11.4891   55.2963   16.5100 O.co2     1 UNK         0.0000 
     32 H32         6.5452   52.8447   17.9461 H         1 UNK         0.0000 
     33 H33         8.7305   52.5080   16.9157 H         1 UNK         0.0000 
     34 H34         9.7053   56.6402   17.6486 H         1 UNK         0.0000 
     35 H35         7.5053   56.9788   18.6437 H         1 UNK         0.0000 
     36 H36         7.1007   55.5189   23.5523 H         1 UNK         0.0000 
     37 H37         7.4684   53.9665   22.8486 H         1 UNK         0.0000 
     38 H38         4.6610   54.8979   23.6028 H         1 UNK         0.0000 
     39 H39         5.5939   53.6740   24.4165 H         1 UNK         0.0000 
     40 H40         3.8828   52.8946   22.8957 H         1 UNK         0.0000 
     41 H41         5.4037   52.1288   22.4815 H         1 UNK         0.0000 
     42 H42         1.6047   53.5454   21.6803 H         1 UNK         0.0000 
     43 H43         0.0631   51.8590   22.6249 H         1 UNK         0.0000 
     44 H44         2.3738   48.7338   20.8107 H         1 UNK         0.0000 
     45 H45         3.9048   50.4214   19.8512 H         1 UNK         0.0000 
     46 H46         2.4315   53.1645   17.1730 H         1 UNK         0.0000 
     47 H47         2.2679   51.9673   18.3990 H         1 UNK         0.0000 
@<TRIPOS>BOND
     1    1    6 ar   
     2    1    2 ar   
     3    1   32 1    
     4    2    3 ar   
     5    2   33 1    
     6    3    4 ar   
     7    3   29 1    
     8    4    5 ar   
     9    4   34 1    
    10    5    6 ar   
    11    5   35 1    
    12    6    7 1    
    13    7    8 1    
    14    7   13 1    
    15    7    9 1    
    16    9   10 2    
    17    9   27 1    
    18   10   11 1    
    19   10   26 1    
    20   11   12 1    
    21   11   19 1    
    22   12   18 1    
    23   12   13 2    
    24   13   14 1    
    25   14   15 2    
    26   14   16 1    
    27   16   17 1    
    28   16   36 1    
    29   16   37 1    
    30   17   18 1    
    31   17   38 1    
    32   17   39 1    
    33   18   40 1    
    34   18   41 1    
    35   19   24 ar   
    36   19   20 ar   
    37   20   21 ar   
    38   20   42 1    
    39   21   22 ar   
    40   21   43 1    
    41   22   23 ar   
    42   22   25 1    
    43   23   24 ar   
    44   23   44 1    
    45   24   45 1    
    46   26   46 1    
    47   26   47 1    
    48   27   28 3    
    49   29   30 2    
    50   29   31 1    
@<TRIPOS>SUBSTRUCTURE
     1 UNK         1 GROUP             0       ****    0 ROOT    
