@<TRIPOS>MOLECULE
ZINC20814955_3655
54   55    1
SMALL
USER_CHARGES


@<TRIPOS>ATOM
      1 C1          2.2124   52.5754   17.9742 C.3       1 UNK         0.0000 
      2 C2          3.5535   53.2043   17.5620 C.3       1 UNK         0.0000 
      3 N3          4.6873   52.8968   18.5796 N.4       1 UNK         0.0000 
      4 C4          6.0909   53.2122   17.9817 C.3       1 UNK         0.0000 
      5 C5          6.6387   54.5858   18.3257 C.2       1 UNK         0.0000 
      6 C6          7.8780   54.8999   18.8853 C.2       1 UNK         0.0000 
      7 C7          8.0783   56.2599   19.1208 C.2       1 UNK         0.0000 
      8 C8          6.9924   57.0211   18.7334 C.2       1 UNK         0.0000 
      9 S9          5.7446   56.0545   18.0317 S.3       1 UNK         0.0000 
     10 Br10        6.7639   58.8976   18.8822 Br        1 UNK         0.0000 
     11 C11         4.4376   53.4878   19.9499 C.3       1 UNK         0.0000 
     12 C12         3.7331   52.4555   20.8375 C.2       1 UNK         0.0000 
     13 O13         4.1429   51.2961   20.8821 O.2       1 UNK         0.0000 
     14 N14         2.6787   52.8966   21.5396 N.am      1 UNK         0.0000 
     15 C15         1.8970   52.0867   22.4749 C.3       1 UNK         0.0000 
     16 C16         1.6331   52.8947   23.7560 C.2       1 UNK         0.0000 
     17 O17         1.5039   54.1208   23.7099 O.2       1 UNK         0.0000 
     18 N18         1.5041   52.1637   24.8815 N.am      1 UNK         0.0000 
     19 C19         1.3122   52.6415   26.1950 C.ar      1 UNK         0.0000 
     20 C20         0.2525   52.0946   26.9472 C.ar      1 UNK         0.0000 
     21 C21         0.0260   52.5384   28.2531 C.ar      1 UNK         0.0000 
     22 C22         0.8462   53.5063   28.8303 C.ar      1 UNK         0.0000 
     23 C23         1.9214   54.0167   28.1039 C.ar      1 UNK         0.0000 
     24 C24         2.1805   53.5810   26.8005 C.ar      1 UNK         0.0000 
     25 C25         3.4516   54.0886   26.1257 C.3       1 UNK         0.0000 
     26 C26         0.5682   53.9929   30.2414 C.3       1 UNK         0.0000 
     27 C27        -0.6654   51.0159   26.3798 C.3       1 UNK         0.0000 
     28 H28         1.4829   52.6701   17.1696 H         1 UNK         0.0000 
     29 H29         2.3222   51.5108   18.1902 H         1 UNK         0.0000 
     30 H30         1.7827   53.0640   18.8483 H         1 UNK         0.0000 
     31 H31         3.5010   54.2882   17.4490 H         1 UNK         0.0000 
     32 H32         3.8824   52.7618   16.6194 H         1 UNK         0.0000 
     33 H33         6.7045   52.4179   18.4079 H         1 UNK         0.0000 
     34 H34         6.0541   53.0097   16.9105 H         1 UNK         0.0000 
     35 H35         8.6214   54.1538   19.1282 H         1 UNK         0.0000 
     36 H36         8.9792   56.6669   19.5592 H         1 UNK         0.0000 
     37 H37         3.9160   54.4404   19.8405 H         1 UNK         0.0000 
     38 H38         5.4111   53.6680   20.4057 H         1 UNK         0.0000 
     39 H39         2.3831   53.8611   21.4436 H         1 UNK         0.0000 
     40 H40         2.4049   51.1501   22.7134 H         1 UNK         0.0000 
     41 H41         0.9432   51.8321   22.0132 H         1 UNK         0.0000 
     42 H42         1.4977   51.1601   24.7839 H         1 UNK         0.0000 
     43 H43        -0.7915   52.1242   28.8269 H         1 UNK         0.0000 
     44 H44         2.5753   54.7438   28.5634 H         1 UNK         0.0000 
     45 H45         3.2397   54.9316   25.4700 H         1 UNK         0.0000 
     46 H46         4.1979   54.3960   26.8591 H         1 UNK         0.0000 
     47 H47         3.9200   53.2998   25.5371 H         1 UNK         0.0000 
     48 H48         0.8332   53.2270   30.9713 H         1 UNK         0.0000 
     49 H49        -0.4940   54.2055   30.3594 H         1 UNK         0.0000 
     50 H50         1.1057   54.9137   30.4715 H         1 UNK         0.0000 
     51 H51        -1.2056   51.3942   25.5118 H         1 UNK         0.0000 
     52 H52        -0.0813   50.1535   26.0567 H         1 UNK         0.0000 
     53 H53        -1.3917   50.6578   27.1116 H         1 UNK         0.0000 
     54 H54         4.7343   51.8741   18.6525 H         1 UNK         0.0000 
@<TRIPOS>BOND
     1    1    2 1    
     2    1   28 1    
     3    1   29 1    
     4    1   30 1    
     5    2    3 1    
     6    2   31 1    
     7    2   32 1    
     8    3    4 1    
     9    3   11 1    
    10    3   54 1    
    11    4    5 1    
    12    4   33 1    
    13    4   34 1    
    14    5    9 1    
    15    5    6 2    
    16    6    7 1    
    17    6   35 1    
    18    7    8 2    
    19    7   36 1    
    20    8    9 1    
    21    8   10 1    
    22   11   12 1    
    23   11   37 1    
    24   11   38 1    
    25   12   13 2    
    26   12   14 am   BACKBONE|DICT|INTERRES
    27   14   15 1    
    28   14   39 1    
    29   15   16 1    
    30   15   40 1    
    31   15   41 1    
    32   16   17 2    
    33   16   18 am   BACKBONE|DICT|INTERRES
    34   18   19 1    
    35   18   42 1    
    36   19   24 ar   
    37   19   20 ar   
    38   20   21 ar   
    39   20   27 1    
    40   21   22 ar   
    41   21   43 1    
    42   22   23 ar   
    43   22   26 1    
    44   23   24 ar   
    45   23   44 1    
    46   24   25 1    
    47   25   45 1    
    48   25   46 1    
    49   25   47 1    
    50   26   48 1    
    51   26   49 1    
    52   26   50 1    
    53   27   51 1    
    54   27   52 1    
    55   27   53 1    
@<TRIPOS>SUBSTRUCTURE
     1 UNK         1 GROUP             0       ****    0 ROOT    
