ZINC36019607_5400
                    3D
 Schrodinger Suite 2024-2.
 77 81  0  0  1  0            999 V2000
    4.1934   58.3288   13.0215 C   0  0  0  0  0  0
    4.1776   57.2242   12.1761 C   0  0  0  0  0  0
    4.2757   55.9417   12.7097 C   0  0  0  0  0  0
    4.3927   55.7556   14.0870 C   0  0  0  0  0  0
    4.4155   56.8658   14.9585 C   0  0  0  0  0  0
    4.3105   58.1517   14.3984 C   0  0  0  0  0  0
    4.5456   56.7332   16.4626 C   0  0  0  0  0  0
    4.2881   57.6962   17.1897 O   0  0  0  0  0  0
    4.9521   55.5381   16.9479 N   0  0  0  0  0  0
    5.1419   55.2324   18.3022 C   0  0  0  0  0  0
    5.8096   56.0971   19.1683 C   0  0  0  0  0  0
    5.9173   55.7812   20.5155 C   0  0  0  0  0  0
    5.3604   54.6124   21.0517 C   0  0  0  0  0  0
    4.7188   53.7030   20.1548 C   0  0  0  0  0  0
    4.6643   54.0186   18.7850 C   0  0  0  0  0  0
    4.3065   52.3056   20.5817 C   0  0  0  0  0  0
    5.1040   51.6840   21.2828 O   0  0  0  0  0  0
    3.0981   51.7784   20.2217 N   0  0  0  0  0  0
    2.0513   52.4966   19.4706 C   0  0  0  0  0  0
    1.7218   51.6678   18.2118 C   0  0  0  0  0  0
    1.2677   50.2458   18.5736 C   0  0  0  0  0  0
    2.3045   49.5715   19.4853 C   0  0  0  0  0  0
    2.6934   50.4383   20.7069 C   0  0  0  0  0  0
    5.4523   54.4408   22.4426 N   0  0  0  0  0  0
    6.5309   55.0044   23.2736 C   0  0  0  0  0  0
    6.6990   54.3331   24.6508 C   0  0  0  0  0  0
    5.4357   54.4226   25.4116 N   0  0  0  0  0  0
    4.1413   54.3339   24.6976 C   0  0  0  0  0  0
    4.3115   53.9403   23.2207 C   0  0  0  0  0  0
    5.4991   54.4324   26.7764 C   0  0  0  0  0  0
    6.5663   54.4121   27.3957 O   0  0  0  0  0  0
    4.3106   54.4985   27.4180 N   0  0  0  0  0  0
    4.0873   54.4783   28.8692 C   0  0  0  0  0  0
    2.7453   55.1679   29.2408 C   0  0  0  0  0  0
    1.5109   54.4107   28.7008 C   0  0  0  0  0  0
    1.4980   52.9395   29.1644 C   0  0  0  0  0  0
    2.8335   52.2294   28.8732 C   0  0  0  0  0  0
    4.0345   53.0297   29.4233 C   0  0  0  0  0  0
    4.4742   54.4836   14.5451 F   0  0  0  0  0  0
    4.1148   59.3249   12.6108 H   0  0  0  0  0  0
    4.0886   57.3644   11.1085 H   0  0  0  0  0  0
    4.2602   55.0838   12.0541 H   0  0  0  0  0  0
    4.3224   59.0329   15.0299 H   0  0  0  0  0  0
    5.0197   54.7736   16.2902 H   0  0  0  0  0  0
    6.2215   57.0282   18.8066 H   0  0  0  0  0  0
    6.4086   56.4963   21.1555 H   0  0  0  0  0  0
    4.2380   53.3157   18.0824 H   0  0  0  0  0  0
    1.1697   52.5528   20.1114 H   0  0  0  0  0  0
    2.3046   53.5244   19.2221 H   0  0  0  0  0  0
    0.9387   52.1646   17.6386 H   0  0  0  0  0  0
    2.5934   51.6255   17.5547 H   0  0  0  0  0  0
    1.1245   49.6546   17.6680 H   0  0  0  0  0  0
    0.3005   50.2853   19.0769 H   0  0  0  0  0  0
    3.1984   49.3405   18.9039 H   0  0  0  0  0  0
    1.9294   48.6068   19.8283 H   0  0  0  0  0  0
    3.4678   49.9407   21.2910 H   0  0  0  0  0  0
    1.8251   50.5686   21.3539 H   0  0  0  0  0  0
    7.4791   54.9606   22.7346 H   0  0  0  0  0  0
    6.3044   56.0537   23.4623 H   0  0  0  0  0  0
    6.9838   53.2966   24.4871 H   0  0  0  0  0  0
    7.5041   54.8725   25.1515 H   0  0  0  0  0  0
    3.6541   55.2971   24.7356 H   0  0  0  0  0  0
    3.4809   53.5971   25.1574 H   0  0  0  0  0  0
    3.3716   54.0486   22.6763 H   0  0  0  0  0  0
    4.5470   52.8966   23.2797 H   0  0  0  0  0  0
    3.4825   54.3884   26.8544 H   0  0  0  0  0  0
    4.9032   55.0276   29.3451 H   0  0  0  0  0  0
    2.6643   55.2566   30.3237 H   0  0  0  0  0  0
    2.7281   56.1947   28.8749 H   0  0  0  0  0  0
    0.5953   54.8987   29.0325 H   0  0  0  0  0  0
    1.4983   54.4546   27.6104 H   0  0  0  0  0  0
    1.2973   52.8987   30.2365 H   0  0  0  0  0  0
    0.6795   52.4005   28.6853 H   0  0  0  0  0  0
    2.8224   51.2236   29.2911 H   0  0  0  0  0  0
    2.9453   52.0994   27.7956 H   0  0  0  0  0  0
    4.9629   52.5074   29.1824 H   0  0  0  0  0  0
    3.9855   53.0548   30.5132 H   0  0  0  0  0  0
  1  6  2  0  0  0
  1  2  1  0  0  0
  1 40  1  0  0  0
  2  3  2  0  0  0
  2 41  1  0  0  0
  3  4  1  0  0  0
  3 42  1  0  0  0
  4  5  2  0  0  0
  4 39  1  0  0  0
  5  6  1  0  0  0
  5  7  1  0  0  0
  6 43  1  0  0  0
  7  8  2  0  0  0
  7  9  1  0  0  0
  9 10  1  0  0  0
  9 44  1  0  0  0
 10 15  2  0  0  0
 10 11  1  0  0  0
 11 12  2  0  0  0
 11 45  1  0  0  0
 12 13  1  0  0  0
 12 46  1  0  0  0
 13 14  2  0  0  0
 13 24  1  0  0  0
 14 15  1  0  0  0
 14 16  1  0  0  0
 15 47  1  0  0  0
 16 17  2  0  0  0
 16 18  1  0  0  0
 18 23  1  0  0  0
 18 19  1  0  0  0
 19 20  1  0  0  0
 19 48  1  0  0  0
 19 49  1  0  0  0
 20 21  1  0  0  0
 20 50  1  0  0  0
 20 51  1  0  0  0
 21 22  1  0  0  0
 21 52  1  0  0  0
 21 53  1  0  0  0
 22 23  1  0  0  0
 22 54  1  0  0  0
 22 55  1  0  0  0
 23 56  1  0  0  0
 23 57  1  0  0  0
 24 29  1  0  0  0
 24 25  1  0  0  0
 25 26  1  0  0  0
 25 58  1  0  0  0
 25 59  1  0  0  0
 26 27  1  0  0  0
 26 60  1  0  0  0
 26 61  1  0  0  0
 27 28  1  0  0  0
 27 30  1  0  0  0
 28 29  1  0  0  0
 28 62  1  0  0  0
 28 63  1  0  0  0
 29 64  1  0  0  0
 29 65  1  0  0  0
 30 31  2  0  0  0
 30 32  1  0  0  0
 32 33  1  0  0  0
 32 66  1  0  0  0
 33 38  1  0  0  0
 33 34  1  0  0  0
 33 67  1  0  0  0
 34 35  1  0  0  0
 34 68  1  0  0  0
 34 69  1  0  0  0
 35 36  1  0  0  0
 35 70  1  0  0  0
 35 71  1  0  0  0
 36 37  1  0  0  0
 36 72  1  0  0  0
 36 73  1  0  0  0
 37 38  1  0  0  0
 37 74  1  0  0  0
 37 75  1  0  0  0
 38 76  1  0  0  0
 38 77  1  0  0  0
M  END
> <i_i_glide_confnum>
143

> <i_i_glide_lignum>
5401

> <i_i_glide_posenum>
84

> <i_i_glide_rotatable_bonds>
9

> <i_m_Source_File_Index>
375

> <b_m_subgroup_collapsed>
0

> <r_i_docking_score>
-5.91125

> <r_i_glide_ecoul>
-2.21608

> <r_i_glide_eff_state_penalty>
0

> <r_i_glide_einternal>
2.53763

> <r_i_glide_emodel>
-72.1441

> <r_i_glide_energy>
-54.2398

> <r_i_glide_erotb>
0.647598

> <r_i_glide_esite>
-0.054062

> <r_i_glide_evdw>
-52.0237

> <r_i_glide_gscore>
-5.91125

> <r_i_glide_hbond>
-0.000539972

> <r_i_glide_ligand_efficiency>
-0.15157

> <r_i_glide_ligand_efficiency_ln>
-1.26754

> <r_i_glide_ligand_efficiency_sa>
-0.514007

> <r_i_glide_lipo>
-2.73986

> <r_i_glide_metal>
0

> <r_i_glide_rewards>
-0.830783

> <s_i_glide_gridfile>
wee1_glide-grid

> <s_m_Source_File>
wee1_decoys_glide_SP.sdf

> <s_m_Source_Path>
/Users/zhangxujun/Desktop

> <s_m_entry_id>
650

> <s_m_entry_name>
wee1_decoys_glide_SP.375

> <s_m_subgroup_title>
wee1_decoys_glide_SP

> <s_m_subgroupid>
wee1_decoys_glide_SP


$$$$
