@<TRIPOS>MOLECULE
ZINC65752271_246
47   48    1
SMALL
USER_CHARGES


@<TRIPOS>ATOM
      1 C1         -2.4934   52.6225   23.3275 C.3       1 UNK         0.0000 
      2 C2         -1.8440   52.3043   24.6691 C.ar      1 UNK         0.0000 
      3 C3         -2.6495   51.8121   25.6976 C.ar      1 UNK         0.0000 
      4 C4         -2.1067   51.5140   26.9405 C.ar      1 UNK         0.0000 
      5 C5         -0.7486   51.6993   27.1695 C.ar      1 UNK         0.0000 
      6 C6          0.0927   52.2004   26.1609 C.ar      1 UNK         0.0000 
      7 C7         -0.4651   52.4842   24.8919 C.ar      1 UNK         0.0000 
      8 N8          0.3104   53.0198   23.8432 N.am      1 UNK         0.0000 
      9 C9          1.4180   52.4672   23.3224 C.2       1 UNK         0.0000 
     10 O10         1.9041   51.3954   23.6820 O.2       1 UNK         0.0000 
     11 N11         1.9648   53.2419   22.3717 N.am      1 UNK         0.0000 
     12 C12         3.3059   53.0527   21.8094 C.3       1 UNK         0.0000 
     13 C13         4.1844   54.3332   21.8712 C.3       1 UNK         0.0000 
     14 C14         5.1039   54.4989   20.6653 C.2       1 UNK         0.0000 
     15 C15         5.3722   53.7452   19.5265 C.2       1 UNK         0.0000 
     16 C16         6.3373   54.4311   18.7925 C.2       1 UNK         0.0000 
     17 C17         6.6233   55.5817   19.5075 C.2       1 UNK         0.0000 
     18 O18         5.8797   55.6220   20.6421 O.3       1 UNK         0.0000 
     19 N19         5.0360   54.3951   23.1753 N.4       1 UNK         0.0000 
     20 C20         4.2187   54.2685   24.4817 C.3       1 UNK         0.0000 
     21 C21         6.2911   53.4948   23.1900 C.3       1 UNK         0.0000 
     22 O22         1.4283   52.4967   26.3764 O.3       1 UNK         0.0000 
     23 C23         2.0139   52.2237   27.6455 C.3       1 UNK         0.0000 
     24 Br24       -3.2352   50.8972   28.3443 Br        1 UNK         0.0000 
     25 H25        -1.9507   52.1364   22.5171 H         1 UNK         0.0000 
     26 H26        -3.5287   52.2827   23.2800 H         1 UNK         0.0000 
     27 H27        -2.4692   53.6951   23.1463 H         1 UNK         0.0000 
     28 H28        -3.7094   51.6636   25.5396 H         1 UNK         0.0000 
     29 H29        -0.3740   51.4692   28.1539 H         1 UNK         0.0000 
     30 H30        -0.0933   53.7986   23.3546 H         1 UNK         0.0000 
     31 H31         1.3861   53.9175   21.8917 H         1 UNK         0.0000 
     32 H32         3.8257   52.2132   22.2684 H         1 UNK         0.0000 
     33 H33         3.1510   52.7320   20.7761 H         1 UNK         0.0000 
     34 H34         3.5439   55.2108   21.9918 H         1 UNK         0.0000 
     35 H35         4.9279   52.7961   19.2538 H         1 UNK         0.0000 
     36 H36         6.7695   54.1257   17.8497 H         1 UNK         0.0000 
     37 H37         7.2960   56.4139   19.3400 H         1 UNK         0.0000 
     38 H38         3.8962   53.2316   24.5895 H         1 UNK         0.0000 
     39 H39         4.8664   54.5571   25.3104 H         1 UNK         0.0000 
     40 H40         3.3598   54.9385   24.4069 H         1 UNK         0.0000 
     41 H41         5.9876   52.4973   22.8826 H         1 UNK         0.0000 
     42 H42         6.9974   53.9321   22.4830 H         1 UNK         0.0000 
     43 H43         6.7180   53.5079   24.1942 H         1 UNK         0.0000 
     44 H44         3.0708   52.4912   27.6177 H         1 UNK         0.0000 
     45 H45         1.5478   52.8139   28.4362 H         1 UNK         0.0000 
     46 H46         1.9422   51.1626   27.8978 H         1 UNK         0.0000 
     47 H47         5.4048   55.3378   23.1800 H         1 UNK         0.0000 
@<TRIPOS>BOND
     1    1    2 1    
     2    1   25 1    
     3    1   26 1    
     4    1   27 1    
     5    2    7 ar   
     6    2    3 ar   
     7    3    4 ar   
     8    3   28 1    
     9    4    5 ar   
    10    4   24 1    
    11    5    6 ar   
    12    5   29 1    
    13    6    7 ar   
    14    6   22 1    
    15    7    8 1    
    16    8    9 am   BACKBONE|DICT|INTERRES
    17    8   30 1    
    18    9   10 2    
    19    9   11 am   BACKBONE|DICT|INTERRES
    20   11   12 1    
    21   11   31 1    
    22   12   13 1    
    23   12   32 1    
    24   12   33 1    
    25   13   14 1    
    26   13   19 1    
    27   13   34 1    
    28   14   18 1    
    29   14   15 2    
    30   15   16 1    
    31   15   35 1    
    32   16   17 2    
    33   16   36 1    
    34   17   18 1    
    35   17   37 1    
    36   19   20 1    
    37   19   21 1    
    38   19   47 1    
    39   20   38 1    
    40   20   39 1    
    41   20   40 1    
    42   21   41 1    
    43   21   42 1    
    44   21   43 1    
    45   22   23 1    
    46   23   44 1    
    47   23   45 1    
    48   23   46 1    
@<TRIPOS>SUBSTRUCTURE
     1 UNK         1 GROUP             0       ****    0 ROOT    
