ZINC58890022_2990
                    3D
 Schrodinger Suite 2024-2.
 60 62  0  0  1  0            999 V2000
   -2.2476   51.1945   19.4769 C   0  0  0  0  0  0
   -0.7630   50.9009   19.3479 C   0  0  0  0  0  0
   -0.2684   50.2704   18.2014 C   0  0  0  0  0  0
    1.0985   50.0236   18.0711 C   0  0  0  0  0  0
    1.9777   50.4053   19.0829 C   0  0  0  0  0  0
    1.4921   51.0364   20.2336 C   0  0  0  0  0  0
    0.1216   51.2829   20.3598 C   0  0  0  0  0  0
    2.4410   51.4775   21.3313 C   0  0  0  0  0  0
    2.4044   52.8970   21.4137 O   0  0  0  0  0  0
    3.3893   53.4609   22.1845 C   0  0  0  0  0  0
    4.7177   53.5209   21.7327 C   0  0  0  0  0  0
    5.7028   54.0527   22.5642 C   0  0  0  0  0  0
    5.4011   54.4965   23.8534 C   0  0  0  0  0  0
    4.0598   54.4888   24.2653 C   0  0  0  0  0  0
    3.0602   53.9900   23.4326 C   0  0  0  0  0  0
    1.2462   54.0561   24.0052 Br  0  0  0  0  0  0
    6.4990   55.0069   24.6975 C   0  0  0  0  0  0
    6.7124   54.8234   25.9452 N   0  0  0  0  0  0
    5.8577   53.9983   26.5796 N   0  0  0  0  0  0
    6.0340   53.5679   27.8386 C   0  0  0  0  0  0
    7.0774   53.6968   28.4815 O   0  0  0  0  0  0
    4.8191   52.8718   28.4628 C   0  0  0  0  0  0
    3.8776   53.8633   29.1850 C   0  0  0  0  0  0
    2.6754   53.2255   29.9303 C   0  0  1  0  0  0
    2.2295   54.0306   30.5118 H   0  0  0  0  0  0
    1.5022   52.6934   29.0991 C   0  0  0  0  0  0
    1.4924   52.7015   27.6964 C   0  0  0  0  0  0
    0.4025   52.1794   26.9989 C   0  0  0  0  0  0
   -0.6923   51.6795   27.6974 C   0  0  0  0  0  0
   -0.7113   51.6967   29.0890 C   0  0  0  0  0  0
    0.3847   52.1967   29.7840 C   0  0  0  0  0  0
    3.1578   52.2563   30.8497 O   0  0  0  0  0  0
    5.1045   53.0172   20.5144 O   0  0  0  0  0  0
    4.6041   53.7138   19.3787 C   0  0  0  0  0  0
   -2.6605   51.5020   18.5147 H   0  0  0  0  0  0
   -2.7854   50.3065   19.8105 H   0  0  0  0  0  0
   -2.4334   52.0102   20.1767 H   0  0  0  0  0  0
   -0.9398   49.9783   17.4073 H   0  0  0  0  0  0
    1.4862   49.5447   17.1831 H   0  0  0  0  0  0
    3.0377   50.2219   18.9557 H   0  0  0  0  0  0
   -0.2497   51.7806   21.2446 H   0  0  0  0  0  0
    3.4467   51.1021   21.1279 H   0  0  0  0  0  0
    2.1277   51.0412   22.2811 H   0  0  0  0  0  0
    6.7184   54.0958   22.2025 H   0  0  0  0  0  0
    3.7731   54.8936   25.2262 H   0  0  0  0  0  0
    7.2207   55.5933   24.1351 H   0  0  0  0  0  0
    5.0554   53.7161   26.0394 H   0  0  0  0  0  0
    5.1701   52.1013   29.1465 H   0  0  0  0  0  0
    4.2758   52.3476   27.6818 H   0  0  0  0  0  0
    3.5019   54.6106   28.4832 H   0  0  0  0  0  0
    4.4601   54.4285   29.9153 H   0  0  0  0  0  0
    2.3173   53.0989   27.1253 H   0  0  0  0  0  0
    0.4051   52.1555   25.9213 H   0  0  0  0  0  0
   -1.5307   51.2576   27.1593 H   0  0  0  0  0  0
   -1.5583   51.2912   29.6258 H   0  0  0  0  0  0
    0.3668   52.1822   30.8654 H   0  0  0  0  0  0
    4.0464   52.4969   31.1232 H   0  0  0  0  0  0
    5.0492   53.2904   18.4784 H   0  0  0  0  0  0
    3.5224   53.6217   19.2787 H   0  0  0  0  0  0
    4.8572   54.7747   19.4096 H   0  0  0  0  0  0
  1  2  1  0  0  0
  1 35  1  0  0  0
  1 36  1  0  0  0
  1 37  1  0  0  0
  2  7  2  0  0  0
  2  3  1  0  0  0
  3  4  2  0  0  0
  3 38  1  0  0  0
  4  5  1  0  0  0
  4 39  1  0  0  0
  5  6  2  0  0  0
  5 40  1  0  0  0
  6  7  1  0  0  0
  6  8  1  0  0  0
  7 41  1  0  0  0
  8  9  1  0  0  0
  8 42  1  0  0  0
  8 43  1  0  0  0
  9 10  1  0  0  0
 10 15  2  0  0  0
 10 11  1  0  0  0
 11 12  2  0  0  0
 11 33  1  0  0  0
 12 13  1  0  0  0
 12 44  1  0  0  0
 13 14  2  0  0  0
 13 17  1  0  0  0
 14 15  1  0  0  0
 14 45  1  0  0  0
 15 16  1  0  0  0
 17 18  2  0  0  0
 17 46  1  0  0  0
 18 19  1  0  0  0
 19 20  1  0  0  0
 19 47  1  0  0  0
 20 21  2  0  0  0
 20 22  1  0  0  0
 22 23  1  0  0  0
 22 48  1  0  0  0
 22 49  1  0  0  0
 23 24  1  0  0  0
 23 50  1  0  0  0
 23 51  1  0  0  0
 24 25  1  0  0  0
 24 26  1  0  0  0
 24 32  1  0  0  0
 26 31  2  0  0  0
 26 27  1  0  0  0
 27 28  2  0  0  0
 27 52  1  0  0  0
 28 29  1  0  0  0
 28 53  1  0  0  0
 29 30  2  0  0  0
 29 54  1  0  0  0
 30 31  1  0  0  0
 30 55  1  0  0  0
 31 56  1  0  0  0
 32 57  1  0  0  0
 33 34  1  0  0  0
 34 58  1  0  0  0
 34 59  1  0  0  0
 34 60  1  0  0  0
M  END
> <i_i_glide_confnum>
318

> <i_i_glide_lignum>
2991

> <i_i_glide_posenum>
251

> <i_i_glide_rotatable_bonds>
12

> <i_m_Source_File_Index>
1347

> <b_m_subgroup_collapsed>
0

> <r_i_docking_score>
-5.95841

> <r_i_glide_ecoul>
-3.24256

> <r_i_glide_eff_state_penalty>
0

> <r_i_glide_einternal>
15.58

> <r_i_glide_emodel>
-64.1596

> <r_i_glide_energy>
-52.8687

> <r_i_glide_erotb>
0.705197

> <r_i_glide_esite>
0

> <r_i_glide_evdw>
-49.6261

> <r_i_glide_gscore>
-5.95841

> <r_i_glide_hbond>
-0.502128

> <r_i_glide_ligand_efficiency>
-0.180558

> <r_i_glide_ligand_efficiency_ln>
-1.32512

> <r_i_glide_ligand_efficiency_sa>
-0.579145

> <r_i_glide_lipo>
-2.29379

> <r_i_glide_metal>
0

> <r_i_glide_rewards>
-0.9

> <s_i_glide_gridfile>
wee1_glide-grid

> <s_m_Source_File>
wee1_decoys_glide_SP.sdf

> <s_m_Source_Path>
/Users/zhangxujun/Desktop

> <s_m_entry_id>
1622

> <s_m_entry_name>
wee1_decoys_glide_SP.1347

> <s_m_subgroup_title>
wee1_decoys_glide_SP

> <s_m_subgroupid>
wee1_decoys_glide_SP


$$$$
