@<TRIPOS>MOLECULE
ZINC39326705_4244
66   69    1
SMALL
USER_CHARGES


@<TRIPOS>ATOM
      1 C1         -4.0526   53.5283   26.4300 C.3       1 UNK         0.0000 
      2 C2         -4.0124   52.8509   25.0631 C.2       1 UNK         0.0000 
      3 O3         -5.0891   52.7151   24.4827 O.2       1 UNK         0.0000 
      4 N4         -2.8180   52.5214   24.4993 N.am      1 UNK         0.0000 
      5 C5         -1.5652   52.5029   25.2848 C.3       1 UNK         0.0000 
      6 C6         -1.2517   51.0496   25.6666 C.2       1 UNK         0.0000 
      7 C7         -0.6193   50.7468   26.8262 C.2       1 UNK         0.0000 
      8 C8         -0.0723   51.7316   27.7826 C.ar      1 UNK         0.0000 
      9 C9         -0.5102   51.7016   29.1106 C.ar      1 UNK         0.0000 
     10 C10        -0.0971   52.6857   30.0098 C.ar      1 UNK         0.0000 
     11 C11         0.7403   53.7220   29.5974 C.ar      1 UNK         0.0000 
     12 C12         1.2469   53.6978   28.2890 C.ar      1 UNK         0.0000 
     13 C13         0.8671   52.6978   27.3795 C.ar      1 UNK         0.0000 
     14 O14         1.3634   52.6192   26.0872 O.3       1 UNK         0.0000 
     15 C15         2.5093   53.3826   25.7273 C.3       1 UNK         0.0000 
     16 O16         1.0155   54.7131   30.5155 O.3       1 UNK         0.0000 
     17 C17         1.6637   55.9066   30.0833 C.3       1 UNK         0.0000 
     18 C18        -1.6495   50.0130   24.7181 C.2       1 UNK         0.0000 
     19 C19        -2.2791   50.3067   23.5498 C.2       1 UNK         0.0000 
     20 C20        -2.8287   51.7113   23.2600 C.3       1 UNK         0.0000 
     21 C21        -2.4567   49.2266   22.4629 C.3       1 UNK         0.0000 
     22 H22        -3.5098   49.2346   22.1743 H         1 UNK         0.0000 
     23 C23        -2.1829   47.8382   23.0468 C.2       1 UNK         0.0000 
     24 C24        -1.5978   47.7117   24.2525 C.2       1 UNK         0.0000 
     25 O25        -1.2433   48.7523   25.0334 O.3       1 UNK         0.0000 
     26 N26        -1.2965   46.5555   24.9054 N.pl3     1 UNK         0.0000 
     27 C27        -2.5209   46.6708   22.3026 C.1       1 UNK         0.0000 
     28 N28        -2.7688   45.6751   21.7675 N.1       1 UNK         0.0000 
     29 C29        -1.6207   49.5340   21.2138 C.ar      1 UNK         0.0000 
     30 C30        -2.2717   49.7342   19.9913 C.ar      1 UNK         0.0000 
     31 C31        -1.5453   50.0457   18.8459 C.ar      1 UNK         0.0000 
     32 C32        -0.1576   50.1545   18.8893 C.ar      1 UNK         0.0000 
     33 C33         0.4954   49.9518   20.1162 C.ar      1 UNK         0.0000 
     34 C34        -0.2194   49.6519   21.2839 C.ar      1 UNK         0.0000 
     35 O35         0.3954   49.4674   22.5111 O.3       1 UNK         0.0000 
     36 C36         1.7895   49.7208   22.6647 C.3       1 UNK         0.0000 
     37 O37         0.4825   50.4551   17.7043 O.3       1 UNK         0.0000 
     38 C38         1.9079   50.4619   17.6832 C.3       1 UNK         0.0000 
     39 H39        -5.0664   53.8539   26.6643 H         1 UNK         0.0000 
     40 H40        -3.7508   52.8167   27.1987 H         1 UNK         0.0000 
     41 H41        -3.4072   54.4014   26.4815 H         1 UNK         0.0000 
     42 H42        -0.7606   52.9470   24.6954 H         1 UNK         0.0000 
     43 H43        -1.6438   53.0991   26.1941 H         1 UNK         0.0000 
     44 H44        -0.4514   49.7111   27.0855 H         1 UNK         0.0000 
     45 H45        -1.2028   50.9394   29.4405 H         1 UNK         0.0000 
     46 H46        -0.4756   52.6691   31.0217 H         1 UNK         0.0000 
     47 H47         1.9267   54.4685   27.9744 H         1 UNK         0.0000 
     48 H48         3.3427   53.1988   26.4056 H         1 UNK         0.0000 
     49 H49         2.8333   53.0926   24.7288 H         1 UNK         0.0000 
     50 H50         2.2983   54.4524   25.7035 H         1 UNK         0.0000 
     51 H51         1.1044   56.4085   29.2922 H         1 UNK         0.0000 
     52 H52         1.7323   56.6019   30.9217 H         1 UNK         0.0000 
     53 H53         2.6786   55.7152   29.7346 H         1 UNK         0.0000 
     54 H54        -3.8282   51.5939   22.8448 H         1 UNK         0.0000 
     55 H55        -2.2613   52.1947   22.4647 H         1 UNK         0.0000 
     56 H56        -1.4119   45.6780   24.4261 H         1 UNK         0.0000 
     57 H57        -0.7023   46.5758   25.7298 H         1 UNK         0.0000 
     58 H58        -3.3466   49.6544   19.9211 H         1 UNK         0.0000 
     59 H59        -2.0632   50.2005   17.9105 H         1 UNK         0.0000 
     60 H60         1.5693   50.0370   20.1611 H         1 UNK         0.0000 
     61 H61         2.0415   49.6906   23.7245 H         1 UNK         0.0000 
     62 H62         2.3876   48.9673   22.1525 H         1 UNK         0.0000 
     63 H63         2.0637   50.7108   22.3019 H         1 UNK         0.0000 
     64 H64         2.3128   51.2581   18.3095 H         1 UNK         0.0000 
     65 H65         2.3049   49.5054   18.0273 H         1 UNK         0.0000 
     66 H66         2.2743   50.6192   16.6695 H         1 UNK         0.0000 
@<TRIPOS>BOND
     1    1    2 1    
     2    1   39 1    
     3    1   40 1    
     4    1   41 1    
     5    2    3 2    
     6    2    4 am   BACKBONE|DICT|INTERRES
     7    4   20 1    
     8    4    5 1    
     9    5    6 1    
    10    5   42 1    
    11    5   43 1    
    12    6    7 2    
    13    6   18 1    
    14    7    8 1    
    15    7   44 1    
    16    8   13 ar   
    17    8    9 ar   
    18    9   10 ar   
    19    9   45 1    
    20   10   11 ar   
    21   10   46 1    
    22   11   12 ar   
    23   11   16 1    
    24   12   13 ar   
    25   12   47 1    
    26   13   14 1    
    27   14   15 1    
    28   15   48 1    
    29   15   49 1    
    30   15   50 1    
    31   16   17 1    
    32   17   51 1    
    33   17   52 1    
    34   17   53 1    
    35   18   25 1    
    36   18   19 2    
    37   19   20 1    
    38   19   21 1    
    39   20   54 1    
    40   20   55 1    
    41   21   22 1    
    42   21   23 1    
    43   21   29 1    
    44   23   24 2    
    45   23   27 1    
    46   24   25 1    
    47   24   26 1    
    48   26   56 1    
    49   26   57 1    
    50   27   28 3    
    51   29   34 ar   
    52   29   30 ar   
    53   30   31 ar   
    54   30   58 1    
    55   31   32 ar   
    56   31   59 1    
    57   32   33 ar   
    58   32   37 1    
    59   33   34 ar   
    60   33   60 1    
    61   34   35 1    
    62   35   36 1    
    63   36   61 1    
    64   36   62 1    
    65   36   63 1    
    66   37   38 1    
    67   38   64 1    
    68   38   65 1    
    69   38   66 1    
@<TRIPOS>SUBSTRUCTURE
     1 UNK         1 GROUP             0       ****    0 ROOT    
