@<TRIPOS>MOLECULE
ZINC45471253_3283
62   65    1
SMALL
USER_CHARGES


@<TRIPOS>ATOM
      1 C1         -3.3583   49.7726   23.8139 C.3       1 UNK         0.0000 
      2 C2         -3.4408   49.9420   22.2881 C.3       1 UNK         0.0000 
      3 O3         -2.1473   49.9293   21.6896 O.3       1 UNK         0.0000 
      4 C4         -1.3577   51.0296   21.6850 C.2       1 UNK         0.0000 
      5 O5         -1.6947   52.1219   22.1484 O.2       1 UNK         0.0000 
      6 C6         -0.0361   50.7795   21.0755 C.2       1 UNK         0.0000 
      7 C7          0.3104   49.7394   20.1608 C.2       1 UNK         0.0000 
      8 C8          1.6486   49.8142   19.7282 C.2       1 UNK         0.0000 
      9 S9          2.5187   51.1091   20.4599 S.3       1 UNK         0.0000 
     10 C10         1.1046   51.5673   21.3359 C.2       1 UNK         0.0000 
     11 N11         1.2366   52.6345   22.2037 N.am      1 UNK         0.0000 
     12 C12         1.3808   52.4476   23.5307 C.2       1 UNK         0.0000 
     13 O13         1.5044   51.3385   24.0575 O.2       1 UNK         0.0000 
     14 C14         1.3149   53.7092   24.4055 C.3       1 UNK         0.0000 
     15 N15         2.3429   53.6876   25.4611 N.pl3     1 UNK         0.0000 
     16 C16         1.7808   53.5204   26.8088 C.3       1 UNK         0.0000 
     17 C17         2.8557   53.1440   27.8612 C.3       1 UNK         0.0000 
     18 H18         3.1401   52.0976   27.7368 H         1 UNK         0.0000 
     19 O19         3.9984   54.0042   27.7568 O.3       1 UNK         0.0000 
     20 C20         4.5050   54.0970   26.4757 C.ar      1 UNK         0.0000 
     21 C21         3.7082   53.9560   25.3199 C.ar      1 UNK         0.0000 
     22 C22         4.3190   54.0987   24.0657 C.ar      1 UNK         0.0000 
     23 C23         5.6816   54.3826   23.9658 C.ar      1 UNK         0.0000 
     24 C24         6.4523   54.5311   25.1170 C.ar      1 UNK         0.0000 
     25 C25         5.8648   54.3943   26.3742 C.ar      1 UNK         0.0000 
     26 C26         2.2807   53.2828   29.2922 C.2       1 UNK         0.0000 
     27 O27         2.7400   54.1116   30.0816 O.2       1 UNK         0.0000 
     28 N28         1.2696   52.4617   29.6272 N.am      1 UNK         0.0000 
     29 C29         0.5844   52.4939   30.9169 C.3       1 UNK         0.0000 
     30 C30         2.2800   48.9351   18.6584 C.3       1 UNK         0.0000 
     31 C31         1.4301   47.6595   18.4789 C.3       1 UNK         0.0000 
     32 H32         1.5572   47.0216   19.3555 H         1 UNK         0.0000 
     33 C33        -0.0478   48.0552   18.2996 C.3       1 UNK         0.0000 
     34 C34        -0.6382   48.6733   19.5846 C.3       1 UNK         0.0000 
     35 C35         1.9442   46.8619   17.2652 C.3       1 UNK         0.0000 
     36 H36        -4.3539   49.7329   24.2551 H         1 UNK         0.0000 
     37 H37        -2.8384   48.8523   24.0815 H         1 UNK         0.0000 
     38 H38        -2.8246   50.6029   24.2779 H         1 UNK         0.0000 
     39 H39        -3.9796   50.8561   22.0297 H         1 UNK         0.0000 
     40 H40        -4.0122   49.1149   21.8670 H         1 UNK         0.0000 
     41 H41         1.1668   53.5673   21.8217 H         1 UNK         0.0000 
     42 H42         1.3937   54.6291   23.8237 H         1 UNK         0.0000 
     43 H43         0.3042   53.6965   24.8136 H         1 UNK         0.0000 
     44 H44         1.5095   54.5317   27.1105 H         1 UNK         0.0000 
     45 H45         0.8300   52.9884   26.8671 H         1 UNK         0.0000 
     46 H46         3.7483   53.9948   23.1556 H         1 UNK         0.0000 
     47 H47         6.1375   54.4908   22.9921 H         1 UNK         0.0000 
     48 H48         7.5045   54.7539   25.0256 H         1 UNK         0.0000 
     49 H49         6.4567   54.5148   27.2699 H         1 UNK         0.0000 
     50 H50         0.9370   51.7852   28.9550 H         1 UNK         0.0000 
     51 H51        -0.3248   51.8931   30.8766 H         1 UNK         0.0000 
     52 H52         1.2221   52.0928   31.7059 H         1 UNK         0.0000 
     53 H53         0.2997   53.5113   31.1892 H         1 UNK         0.0000 
     54 H54         3.3142   48.6830   18.8964 H         1 UNK         0.0000 
     55 H55         2.3028   49.4993   17.7242 H         1 UNK         0.0000 
     56 H56        -0.6322   47.1725   18.0336 H         1 UNK         0.0000 
     57 H57        -0.1604   48.7199   17.4400 H         1 UNK         0.0000 
     58 H58        -1.6176   49.0935   19.3537 H         1 UNK         0.0000 
     59 H59        -0.8097   47.8933   20.3278 H         1 UNK         0.0000 
     60 H60         1.8307   47.4292   16.3398 H         1 UNK         0.0000 
     61 H61         3.0039   46.6246   17.3678 H         1 UNK         0.0000 
     62 H62         1.4063   45.9207   17.1497 H         1 UNK         0.0000 
@<TRIPOS>BOND
     1    1    2 1    
     2    1   36 1    
     3    1   37 1    
     4    1   38 1    
     5    2    3 1    
     6    2   39 1    
     7    2   40 1    
     8    3    4 1    
     9    4    5 2    
    10    4    6 1    
    11    6   10 2    
    12    6    7 1    
    13    7   34 1    
    14    7    8 2    
    15    8    9 1    
    16    8   30 1    
    17    9   10 1    
    18   10   11 am   BACKBONE|DICT|INTERRES
    19   11   12 am   BACKBONE|DICT|INTERRES
    20   11   41 1    
    21   12   13 2    
    22   12   14 1    
    23   14   15 1    
    24   14   42 1    
    25   14   43 1    
    26   15   21 1    
    27   15   16 1    
    28   16   17 1    
    29   16   44 1    
    30   16   45 1    
    31   17   18 1    
    32   17   19 1    
    33   17   26 1    
    34   19   20 1    
    35   20   25 ar   
    36   20   21 ar   
    37   21   22 ar   
    38   22   23 ar   
    39   22   46 1    
    40   23   24 ar   
    41   23   47 1    
    42   24   25 ar   
    43   24   48 1    
    44   25   49 1    
    45   26   27 2    
    46   26   28 am   BACKBONE|DICT|INTERRES
    47   28   29 1    
    48   28   50 1    
    49   29   51 1    
    50   29   52 1    
    51   29   53 1    
    52   30   31 1    
    53   30   54 1    
    54   30   55 1    
    55   31   32 1    
    56   31   33 1    
    57   31   35 1    
    58   33   34 1    
    59   33   56 1    
    60   33   57 1    
    61   34   58 1    
    62   34   59 1    
    63   35   60 1    
    64   35   61 1    
    65   35   62 1    
@<TRIPOS>SUBSTRUCTURE
     1 UNK         1 GROUP             0       ****    0 ROOT    
