@<TRIPOS>MOLECULE
ZINC20682281_2496
55   58    1
SMALL
USER_CHARGES


@<TRIPOS>ATOM
      1 C1          6.1867   53.7543   27.8452 C.3       1 UNK         0.0000 
      2 C2          4.8699   54.2490   28.4694 C.3       1 UNK         0.0000 
      3 C3          3.7864   53.1582   28.6337 C.3       1 UNK         0.0000 
      4 H4          3.6554   52.6752   27.6642 H         1 UNK         0.0000 
      5 C5          4.1729   52.0972   29.6773 C.3       1 UNK         0.0000 
      6 N6          2.5024   53.8048   28.9872 N.pl3     1 UNK         0.0000 
      7 S7          0.9827   52.9078   28.8999 S.o2      1 UNK         0.0000 
      8 O8          1.0809   51.7292   29.7616 O.2       1 UNK         0.0000 
      9 O9         -0.0954   53.8839   29.0752 O.2       1 UNK         0.0000 
     10 C10         0.8645   52.3081   27.2232 C.ar      1 UNK         0.0000 
     11 C11         0.3228   51.0521   26.9481 C.ar      1 UNK         0.0000 
     12 C12         0.3044   50.5812   25.6371 C.ar      1 UNK         0.0000 
     13 C13         0.8343   51.3573   24.6017 C.ar      1 UNK         0.0000 
     14 C14         1.2905   52.6662   24.8542 C.ar      1 UNK         0.0000 
     15 C15         1.3197   53.1069   26.1795 C.ar      1 UNK         0.0000 
     16 C16         1.7331   53.6022   23.7334 C.3       1 UNK         0.0000 
     17 H17         1.0153   54.4230   23.7207 H         1 UNK         0.0000 
     18 C18         3.1430   54.1401   23.8944 C.2       1 UNK         0.0000 
     19 C19         3.9675   53.6965   22.9316 C.2       1 UNK         0.0000 
     20 C20         3.2542   52.7704   21.9730 C.3       1 UNK         0.0000 
     21 C21         1.7745   52.9371   22.3553 C.3       1 UNK         0.0000 
     22 H22         1.3907   53.6966   21.6814 H         1 UNK         0.0000 
     23 C23         0.8187   51.7236   22.1566 C.3       1 UNK         0.0000 
     24 H24        -0.1986   52.1180   22.1534 H         1 UNK         0.0000 
     25 N25         0.8322   50.8200   23.3057 N.pl3     1 UNK         0.0000 
     26 C26         0.9960   51.0599   20.7818 C.ar      1 UNK         0.0000 
     27 C27         0.2353   51.5547   19.7124 C.ar      1 UNK         0.0000 
     28 C28         0.3832   51.0302   18.4292 C.ar      1 UNK         0.0000 
     29 C29         1.3130   50.0216   18.1949 C.ar      1 UNK         0.0000 
     30 C30         2.0743   49.5160   19.2446 C.ar      1 UNK         0.0000 
     31 C31         1.9166   50.0185   20.5329 C.ar      1 UNK         0.0000 
     32 O32         2.7018   49.4774   21.5159 O.3       1 UNK         0.0000 
     33 O33         1.5047   49.5432   16.9293 O.3       1 UNK         0.0000 
     34 H34         6.8744   54.5854   27.6843 H         1 UNK         0.0000 
     35 H35         6.0123   53.2797   26.8782 H         1 UNK         0.0000 
     36 H36         6.6984   53.0345   28.4817 H         1 UNK         0.0000 
     37 H37         5.0749   54.7266   29.4297 H         1 UNK         0.0000 
     38 H38         4.4819   55.0403   27.8267 H         1 UNK         0.0000 
     39 H39         5.1044   51.6163   29.4044 H         1 UNK         0.0000 
     40 H40         4.2808   52.5194   30.6773 H         1 UNK         0.0000 
     41 H41         3.4427   51.2957   29.7224 H         1 UNK         0.0000 
     42 H42         2.4198   54.7703   28.6638 H         1 UNK         0.0000 
     43 H43        -0.0739   50.4354   27.7426 H         1 UNK         0.0000 
     44 H44        -0.0905   49.5941   25.4411 H         1 UNK         0.0000 
     45 H45         1.6936   54.0965   26.3959 H         1 UNK         0.0000 
     46 H46         3.4143   54.8066   24.7000 H         1 UNK         0.0000 
     47 H47         5.0159   53.9355   22.8259 H         1 UNK         0.0000 
     48 H48         3.6108   51.7488   22.0821 H         1 UNK         0.0000 
     49 H49         3.4236   53.0639   20.9355 H         1 UNK         0.0000 
     50 H50         0.4538   49.9022   23.1245 H         1 UNK         0.0000 
     51 H51        -0.4624   52.3647   19.8685 H         1 UNK         0.0000 
     52 H52        -0.1996   51.4239   17.6087 H         1 UNK         0.0000 
     53 H53         2.8021   48.7416   19.0434 H         1 UNK         0.0000 
     54 H54         3.3385   48.8390   21.1765 H         1 UNK         0.0000 
     55 H55         2.4420   49.2966   16.8047 H         1 UNK         0.0000 
@<TRIPOS>BOND
     1    1    2 1    
     2    1   34 1    
     3    1   35 1    
     4    1   36 1    
     5    2    3 1    
     6    2   37 1    
     7    2   38 1    
     8    3    4 1    
     9    3    5 1    
    10    3    6 1    
    11    5   39 1    
    12    5   40 1    
    13    5   41 1    
    14    6    7 1    
    15    6   42 1    
    16    7    8 2    
    17    7    9 2    
    18    7   10 1    
    19   10   15 ar   
    20   10   11 ar   
    21   11   12 ar   
    22   11   43 1    
    23   12   13 ar   
    24   12   44 1    
    25   13   25 1    
    26   13   14 ar   
    27   14   15 ar   
    28   14   16 1    
    29   15   45 1    
    30   16   17 1    
    31   16   21 1    
    32   16   18 1    
    33   18   19 2    
    34   18   46 1    
    35   19   20 1    
    36   19   47 1    
    37   20   21 1    
    38   20   48 1    
    39   20   49 1    
    40   21   22 1    
    41   21   23 1    
    42   23   24 1    
    43   23   25 1    
    44   23   26 1    
    45   25   50 1    
    46   26   31 ar   
    47   26   27 ar   
    48   27   28 ar   
    49   27   51 1    
    50   28   29 ar   
    51   28   52 1    
    52   29   30 ar   
    53   29   33 1    
    54   30   31 ar   
    55   30   53 1    
    56   31   32 1    
    57   32   54 1    
    58   33   55 1    
@<TRIPOS>SUBSTRUCTURE
     1 UNK         1 GROUP             0       ****    0 ROOT    
