ZINC48289567_748
                    3D
 Schrodinger Suite 2024-2.
 55 59  0  0  1  0            999 V2000
    5.6068   54.4930   23.7514 C   0  0  0  0  0  0
    4.4581   54.0623   24.4157 C   0  0  0  0  0  0
    4.3254   54.2213   25.8089 C   0  0  0  0  0  0
    5.3755   54.8952   26.4561 C   0  0  0  0  0  0
    6.5061   55.3121   25.8309 N   0  0  0  0  0  0
    6.6085   55.1076   24.4963 C   0  0  0  0  0  0
    3.1047   53.7040   26.4985 C   0  0  0  0  0  0
    2.0735   53.3447   25.8714 N   0  0  0  0  0  0
    1.1598   53.0463   26.7768 N   0  0  0  0  0  0
    1.6069   53.2181   28.0487 C   0  0  0  0  0  0
    0.7472   53.0430   29.4791 S   0  0  0  0  0  0
    2.9252   53.5364   27.8436 N   0  0  0  0  0  0
    3.9280   53.6520   28.9182 C   0  0  0  0  0  0
    4.1931   52.4519   29.8168 C   0  0  0  0  0  0
    5.2401   52.8963   28.8314 C   0  0  0  0  0  0
   -0.1859   52.7288   26.3042 C   0  0  0  0  0  0
   -0.3319   51.2169   26.0379 N   0  3  0  0  0  0
   -0.8920   50.7406   24.6772 C   0  0  0  0  0  0
   -2.1570   51.5697   24.2755 C   0  0  0  0  0  0
   -3.3760   51.3648   25.1963 C   0  0  0  0  0  0
   -3.6730   49.9779   25.3101 O   0  0  0  0  0  0
   -2.6168   49.2041   25.8685 C   0  0  0  0  0  0
   -1.3601   49.2826   24.9658 C   0  0  0  0  0  0
    0.2668   50.8601   23.6560 C   0  0  0  0  0  0
    1.0932   49.7617   23.3677 C   0  0  0  0  0  0
    2.1597   49.8845   22.4818 C   0  0  0  0  0  0
    2.4237   51.1110   21.8824 C   0  0  0  0  0  0
    1.6058   52.2077   22.1336 C   0  0  0  0  0  0
    0.5332   52.0815   23.0119 C   0  0  0  0  0  0
    3.9389   51.2975   20.7470 Br  0  0  0  0  0  0
    5.7139   54.3529   22.6857 H   0  0  0  0  0  0
    3.6864   53.5748   23.8375 H   0  0  0  0  0  0
    5.3504   55.1459   27.5035 H   0  0  0  0  0  0
    7.5089   55.4637   24.0172 H   0  0  0  0  0  0
    3.9382   54.6409   29.3798 H   0  0  0  0  0  0
    4.3059   52.6396   30.8848 H   0  0  0  0  0  0
    3.6565   51.5224   29.6230 H   0  0  0  0  0  0
    5.4342   52.2951   27.9436 H   0  0  0  0  0  0
    6.1373   53.4195   29.1624 H   0  0  0  0  0  0
   -0.3765   53.2884   25.3849 H   0  0  0  0  0  0
   -0.9631   52.9665   27.0313 H   0  0  0  0  0  0
   -0.8892   50.8051   26.7747 H   0  0  0  0  0  0
   -1.9676   52.6366   24.1886 H   0  0  0  0  0  0
   -2.4544   51.2605   23.2719 H   0  0  0  0  0  0
   -3.1793   51.7881   26.1828 H   0  0  0  0  0  0
   -4.2491   51.8836   24.7988 H   0  0  0  0  0  0
   -2.4012   49.5916   26.8674 H   0  0  0  0  0  0
   -2.9484   48.1727   25.9960 H   0  0  0  0  0  0
   -1.5954   48.7881   24.0222 H   0  0  0  0  0  0
   -0.5726   48.6859   25.4307 H   0  0  0  0  0  0
    0.9410   48.7994   23.8331 H   0  0  0  0  0  0
    2.7950   49.0330   22.2843 H   0  0  0  0  0  0
    1.8127   53.1575   21.6603 H   0  0  0  0  0  0
   -0.0636   52.9605   23.1970 H   0  0  0  0  0  0
    0.5823   50.7950   26.1250 H   0  0  0  0  0  0
  1  6  2  0  0  0
  1  2  1  0  0  0
  1 31  1  0  0  0
  2  3  2  0  0  0
  2 32  1  0  0  0
  3  4  1  0  0  0
  3  7  1  0  0  0
  4  5  2  0  0  0
  4 33  1  0  0  0
  5  6  1  0  0  0
  6 34  1  0  0  0
  7 12  1  0  0  0
  7  8  2  0  0  0
  8  9  1  0  0  0
  9 10  1  0  0  0
  9 16  1  0  0  0
 10 11  2  0  0  0
 10 12  1  0  0  0
 12 13  1  0  0  0
 13 15  1  0  0  0
 13 14  1  0  0  0
 13 35  1  0  0  0
 14 15  1  0  0  0
 14 36  1  0  0  0
 14 37  1  0  0  0
 15 38  1  0  0  0
 15 39  1  0  0  0
 16 17  1  0  0  0
 16 40  1  0  0  0
 16 41  1  0  0  0
 17 18  1  0  0  0
 17 42  1  0  0  0
 17 55  1  0  0  0
 18 23  1  0  0  0
 18 19  1  0  0  0
 18 24  1  0  0  0
 19 20  1  0  0  0
 19 43  1  0  0  0
 19 44  1  0  0  0
 20 21  1  0  0  0
 20 45  1  0  0  0
 20 46  1  0  0  0
 21 22  1  0  0  0
 22 23  1  0  0  0
 22 47  1  0  0  0
 22 48  1  0  0  0
 23 49  1  0  0  0
 23 50  1  0  0  0
 24 29  2  0  0  0
 24 25  1  0  0  0
 25 26  2  0  0  0
 25 51  1  0  0  0
 26 27  1  0  0  0
 26 52  1  0  0  0
 27 28  2  0  0  0
 27 30  1  0  0  0
 28 29  1  0  0  0
 28 53  1  0  0  0
 29 54  1  0  0  0
M  CHG  1  17   1
M  END
> <i_i_glide_confnum>
93

> <i_i_glide_lignum>
749

> <i_i_glide_posenum>
196

> <i_i_glide_rotatable_bonds>
6

> <i_m_Source_File_Index>
315

> <b_m_subgroup_collapsed>
0

> <r_i_docking_score>
-6.77609

> <r_i_glide_ecoul>
-3.66579

> <r_i_glide_eff_state_penalty>
0

> <r_i_glide_einternal>
5.06363

> <r_i_glide_emodel>
-64.1405

> <r_i_glide_energy>
-45.315

> <r_i_glide_erotb>
0.513379

> <r_i_glide_esite>
-0.0268308

> <r_i_glide_evdw>
-41.6492

> <r_i_glide_gscore>
-6.77609

> <r_i_glide_hbond>
-0.188203

> <r_i_glide_ligand_efficiency>
-0.22587

> <r_i_glide_ligand_efficiency_ln>
-1.5396

> <r_i_glide_ligand_efficiency_sa>
-0.701829

> <r_i_glide_lipo>
-2.37434

> <r_i_glide_metal>
0

> <r_i_glide_rewards>
-2.06777

> <s_i_glide_gridfile>
wee1_glide-grid

> <s_m_Source_File>
wee1_decoys_glide_SP.sdf

> <s_m_Source_Path>
/Users/zhangxujun/Desktop

> <s_m_entry_id>
590

> <s_m_entry_name>
wee1_decoys_glide_SP.315

> <s_m_subgroup_title>
wee1_decoys_glide_SP

> <s_m_subgroupid>
wee1_decoys_glide_SP


$$$$
