@<TRIPOS>MOLECULE
ZINC03312834_2646
42   45    1
SMALL
USER_CHARGES


@<TRIPOS>ATOM
      1 C1          6.6607   54.7489   19.2366 C.ar      1 UNK         0.0000 
      2 C2          6.6161   54.8382   17.8479 C.ar      1 UNK         0.0000 
      3 C3          5.4127   54.6322   17.1802 C.ar      1 UNK         0.0000 
      4 C4          4.2555   54.3326   17.8922 C.ar      1 UNK         0.0000 
      5 C5          4.3047   54.2406   19.2800 C.ar      1 UNK         0.0000 
      6 C6          5.5038   54.4532   19.9718 C.ar      1 UNK         0.0000 
      7 C7          5.5047   54.3326   21.4746 C.ar      1 UNK         0.0000 
      8 N8          4.5982   53.6624   22.1490 N.2       1 UNK         0.0000 
      9 N9          4.8925   53.7842   23.5004 N.2       1 UNK         0.0000 
     10 C10         5.9795   54.5057   23.6080 C.ar      1 UNK         0.0000 
     11 N11         6.4148   54.8897   22.3573 N.pl3     1 UNK         0.0000 
     12 N12         7.5037   55.6966   22.0814 N.3       1 UNK         0.0000 
     13 S13         6.7038   55.0650   25.1279 S.3       1 UNK         0.0000 
     14 C14         5.9814   53.9329   26.3758 C.3       1 UNK         0.0000 
     15 C15         4.5366   54.3253   26.7596 C.2       1 UNK         0.0000 
     16 O16         3.9046   55.1176   26.0607 O.2       1 UNK         0.0000 
     17 C17         3.9378   53.6951   27.9813 C.ar      1 UNK         0.0000 
     18 C18         4.7000   52.8967   28.8501 C.ar      1 UNK         0.0000 
     19 C19         4.1369   52.3566   30.0050 C.ar      1 UNK         0.0000 
     20 C20         2.8097   52.6161   30.3129 C.ar      1 UNK         0.0000 
     21 C21         2.0166   53.3686   29.4371 C.ar      1 UNK         0.0000 
     22 C22         2.5829   53.9214   28.2882 C.ar      1 UNK         0.0000 
     23 O23         0.6853   53.6207   29.7017 O.3       1 UNK         0.0000 
     24 C24         0.0964   52.6481   30.5754 C.3       1 UNK         0.0000 
     25 C25         0.9879   52.4543   31.8240 C.3       1 UNK         0.0000 
     26 O26         2.3206   52.0653   31.4767 O.3       1 UNK         0.0000 
     27 Cl27        5.3562   54.7437   15.4590 Cl        1 UNK         0.0000 
     28 H28         7.6137   54.8905   19.7200 H         1 UNK         0.0000 
     29 H29         7.5143   55.0611   17.2916 H         1 UNK         0.0000 
     30 H30         3.3229   54.1685   17.3731 H         1 UNK         0.0000 
     31 H31         3.3973   54.0080   19.8182 H         1 UNK         0.0000 
     32 H32         7.3703   56.6177   22.4644 H         1 UNK         0.0000 
     33 H33         8.3642   55.2877   22.4328 H         1 UNK         0.0000 
     34 H34         6.6208   53.9933   27.2551 H         1 UNK         0.0000 
     35 H35         5.9961   52.8981   26.0360 H         1 UNK         0.0000 
     36 H36         5.7381   52.6778   28.6535 H         1 UNK         0.0000 
     37 H37         4.7313   51.7495   30.6703 H         1 UNK         0.0000 
     38 H38         1.9590   54.5240   27.6428 H         1 UNK         0.0000 
     39 H39        -0.8956   52.9737   30.8729 H         1 UNK         0.0000 
     40 H40        -0.0137   51.6963   30.0521 H         1 UNK         0.0000 
     41 H41         1.0129   53.3790   32.3976 H         1 UNK         0.0000 
     42 H42         0.5750   51.6873   32.4776 H         1 UNK         0.0000 
@<TRIPOS>BOND
     1    1    6 ar   
     2    1    2 ar   
     3    1   28 1    
     4    2    3 ar   
     5    2   29 1    
     6    3    4 ar   
     7    3   27 1    
     8    4    5 ar   
     9    4   30 1    
    10    5    6 ar   
    11    5   31 1    
    12    6    7 1    
    13    7   11 ar   
    14    7    8 ar   
    15    8    9 ar   
    16    9   10 ar   
    17   10   11 ar   
    18   10   13 1    
    19   11   12 1    
    20   12   32 1    
    21   12   33 1    
    22   13   14 1    
    23   14   15 1    
    24   14   34 1    
    25   14   35 1    
    26   15   16 2    
    27   15   17 1    
    28   17   22 ar   
    29   17   18 ar   
    30   18   19 ar   
    31   18   36 1    
    32   19   20 ar   
    33   19   37 1    
    34   20   26 1    
    35   20   21 ar   
    36   21   22 ar   
    37   21   23 1    
    38   22   38 1    
    39   23   24 1    
    40   24   25 1    
    41   24   39 1    
    42   24   40 1    
    43   25   26 1    
    44   25   41 1    
    45   25   42 1    
@<TRIPOS>SUBSTRUCTURE
     1 UNK         1 GROUP             0       ****    0 ROOT    
