@<TRIPOS>MOLECULE
ZINC37404712_1631
37   37    1
SMALL
USER_CHARGES


@<TRIPOS>ATOM
      1 C1          5.5061   54.7251   28.5580 C.3       1 UNK         0.0000 
      2 C2          4.3425   54.2509   27.7175 C.2       1 UNK         0.0000 
      3 C3          4.2567   54.4962   26.3408 C.2       1 UNK         0.0000 
      4 C4          3.1703   53.9113   25.7140 C.2       1 UNK         0.0000 
      5 S5          2.1333   53.1357   26.8784 S.3       1 UNK         0.0000 
      6 C6          3.2364   53.5113   28.1773 C.2       1 UNK         0.0000 
      7 C7          2.9157   53.0310   29.5294 C.2       1 UNK         0.0000 
      8 O8          3.5048   53.5882   30.4816 O.co2     1 UNK         0.0000 
      9 O9          2.0907   52.0974   29.6513 O.co2     1 UNK         0.0000 
     10 N10         2.9807   53.9007   24.3403 N.am      1 UNK         0.0000 
     11 C11         2.1003   53.1774   23.6185 C.2       1 UNK         0.0000 
     12 O12         1.1337   52.5767   24.0926 O.2       1 UNK         0.0000 
     13 C13         2.3552   53.1520   22.0768 C.3       1 UNK         0.0000 
     14 H14         2.3038   54.1918   21.7684 H         1 UNK         0.0000 
     15 C15         3.7899   52.6165   21.6838 C.3       1 UNK         0.0000 
     16 C16         3.9748   52.4842   20.1537 C.3       1 UNK         0.0000 
     17 C17         4.9809   53.4430   22.2215 C.3       1 UNK         0.0000 
     18 N18         1.2777   52.4966   21.3116 N.am      1 UNK         0.0000 
     19 C19         0.9771   51.1851   21.3021 C.2       1 UNK         0.0000 
     20 O20         1.5921   50.3318   21.9389 O.2       1 UNK         0.0000 
     21 C21        -0.1940   50.7699   20.4215 C.3       1 UNK         0.0000 
     22 H22         5.1754   55.2966   29.4242 H         1 UNK         0.0000 
     23 H23         6.0591   53.8798   28.9648 H         1 UNK         0.0000 
     24 H24         6.2126   55.3423   28.0044 H         1 UNK         0.0000 
     25 H25         5.0182   55.0396   25.8011 H         1 UNK         0.0000 
     26 H26         3.6985   54.3696   23.8091 H         1 UNK         0.0000 
     27 H27         3.9012   51.6054   22.0787 H         1 UNK         0.0000 
     28 H28         3.8141   53.4395   19.6544 H         1 UNK         0.0000 
     29 H29         4.9790   52.1442   19.8979 H         1 UNK         0.0000 
     30 H30         3.2905   51.7586   19.7158 H         1 UNK         0.0000 
     31 H31         4.8283   54.5112   22.0630 H         1 UNK         0.0000 
     32 H32         5.1748   53.2684   23.2789 H         1 UNK         0.0000 
     33 H33         5.9041   53.1778   21.7117 H         1 UNK         0.0000 
     34 H34         0.7450   53.1241   20.7288 H         1 UNK         0.0000 
     35 H35         0.0903   50.8232   19.3690 H         1 UNK         0.0000 
     36 H36        -1.0567   51.4169   20.5877 H         1 UNK         0.0000 
     37 H37        -0.4886   49.7422   20.6430 H         1 UNK         0.0000 
@<TRIPOS>BOND
     1    1    2 1    
     2    1   22 1    
     3    1   23 1    
     4    1   24 1    
     5    2    6 2    
     6    2    3 1    
     7    3    4 2    
     8    3   25 1    
     9    4    5 1    
    10    4   10 am   BACKBONE|DICT|INTERRES
    11    5    6 1    
    12    6    7 1    
    13    7    8 2    
    14    7    9 1    
    15   10   11 am   BACKBONE|DICT|INTERRES
    16   10   26 1    
    17   11   12 2    
    18   11   13 1    
    19   13   14 1    
    20   13   15 1    
    21   13   18 1    
    22   15   16 1    
    23   15   17 1    
    24   15   27 1    
    25   16   28 1    
    26   16   29 1    
    27   16   30 1    
    28   17   31 1    
    29   17   32 1    
    30   17   33 1    
    31   18   19 am   BACKBONE|DICT|INTERRES
    32   18   34 1    
    33   19   20 2    
    34   19   21 1    
    35   21   35 1    
    36   21   36 1    
    37   21   37 1    
@<TRIPOS>SUBSTRUCTURE
     1 UNK         1 GROUP             0       ****    0 ROOT    
