@<TRIPOS>MOLECULE
ZINC15053817_4300
49   53    1
SMALL
USER_CHARGES


@<TRIPOS>ATOM
      1 C1          0.8565   52.3907   31.1587 C.ar      1 UNK         0.0000 
      2 C2         -0.0956   52.4752   30.1547 C.ar      1 UNK         0.0000 
      3 C3          0.2756   52.7729   28.8484 C.ar      1 UNK         0.0000 
      4 C4          1.6397   53.0042   28.5059 C.ar      1 UNK         0.0000 
      5 C5          2.6028   52.9504   29.5580 C.ar      1 UNK         0.0000 
      6 C6          2.2001   52.5863   30.8678 C.ar      1 UNK         0.0000 
      7 C7          3.9396   53.2755   29.2739 C.ar      1 UNK         0.0000 
      8 C8          4.3733   53.6904   28.0028 C.ar      1 UNK         0.0000 
      9 C9          5.7176   54.0849   27.7825 C.ar      1 UNK         0.0000 
     10 C10         6.1340   54.4860   26.5184 C.ar      1 UNK         0.0000 
     11 C11         5.2430   54.4943   25.4545 C.ar      1 UNK         0.0000 
     12 C12         3.9207   54.0983   25.6374 C.ar      1 UNK         0.0000 
     13 C13         3.4402   53.6967   26.9222 C.ar      1 UNK         0.0000 
     14 C14         2.0859   53.2887   27.1726 C.ar      1 UNK         0.0000 
     15 C15         1.1705   53.1504   26.0087 C.2       1 UNK         0.0000 
     16 C16         0.4445   52.0589   25.6589 C.2       1 UNK         0.0000 
     17 C17        -0.3318   52.0458   24.4438 C.2       1 UNK         0.0000 
     18 O18        -0.4570   53.0138   23.6844 O.2       1 UNK         0.0000 
     19 N19        -0.8922   50.8200   24.2322 N.am      1 UNK         0.0000 
     20 C20        -0.7322   49.8530   25.1817 C.2       1 UNK         0.0000 
     21 N21        -1.1688   48.6703   25.2817 N.2       1 UNK         0.0000 
     22 S22         0.3044   50.4993   26.4631 S.3       1 UNK         0.0000 
     23 C23        -1.6596   50.5960   23.0574 C.ar      1 UNK         0.0000 
     24 C24        -3.0132   50.2420   23.1502 C.ar      1 UNK         0.0000 
     25 C25        -3.7827   50.1140   21.9969 C.ar      1 UNK         0.0000 
     26 C26        -3.2038   50.3583   20.7495 C.ar      1 UNK         0.0000 
     27 C27        -1.8482   50.6674   20.6444 C.ar      1 UNK         0.0000 
     28 C28        -1.0750   50.7744   21.7941 C.ar      1 UNK         0.0000 
     29 S29        -4.2012   50.3475   19.2695 S.o2      1 UNK         0.0000 
     30 O30        -5.4964   49.7466   19.6015 O.2       1 UNK         0.0000 
     31 O31        -4.1006   51.6956   18.7027 O.2       1 UNK         0.0000 
     32 N32        -3.3833   49.2644   18.1785 N.pl3     1 UNK         0.0000 
     33 H33         0.5465   52.1398   32.1640 H         1 UNK         0.0000 
     34 H34        -1.1312   52.2792   30.3915 H         1 UNK         0.0000 
     35 H35        -0.4918   52.8259   28.0913 H         1 UNK         0.0000 
     36 H36         2.9362   52.4988   31.6546 H         1 UNK         0.0000 
     37 H37         4.6607   53.2380   30.0750 H         1 UNK         0.0000 
     38 H38         6.4200   54.0778   28.6045 H         1 UNK         0.0000 
     39 H39         7.1581   54.7833   26.3602 H         1 UNK         0.0000 
     40 H40         5.5821   54.7985   24.4750 H         1 UNK         0.0000 
     41 H41         3.2613   54.1062   24.7830 H         1 UNK         0.0000 
     42 H42         1.1095   54.0322   25.3847 H         1 UNK         0.0000 
     43 H43        -0.8952   48.2421   26.1641 H         1 UNK         0.0000 
     44 H44        -3.4752   50.0914   24.1159 H         1 UNK         0.0000 
     45 H45        -4.8325   49.8704   22.0807 H         1 UNK         0.0000 
     46 H46        -1.3990   50.8487   19.6781 H         1 UNK         0.0000 
     47 H47        -0.0305   51.0385   21.7044 H         1 UNK         0.0000 
     48 H48        -3.8964   48.4034   17.9869 H         1 UNK         0.0000 
     49 H49        -2.9876   49.7126   17.3493 H         1 UNK         0.0000 
@<TRIPOS>BOND
     1    1    6 ar   
     2    1    2 ar   
     3    1   33 1    
     4    2    3 ar   
     5    2   34 1    
     6    3    4 ar   
     7    3   35 1    
     8    4   14 ar   
     9    4    5 ar   
    10    5    6 ar   
    11    5    7 ar   
    12    6   36 1    
    13    7    8 ar   
    14    7   37 1    
    15    8   13 ar   
    16    8    9 ar   
    17    9   10 ar   
    18    9   38 1    
    19   10   11 ar   
    20   10   39 1    
    21   11   12 ar   
    22   11   40 1    
    23   12   13 ar   
    24   12   41 1    
    25   13   14 ar   
    26   14   15 1    
    27   15   16 2    
    28   15   42 1    
    29   16   22 1    
    30   16   17 1    
    31   17   18 2    
    32   17   19 am   BACKBONE|DICT|INTERRES
    33   19   20 am   BACKBONE|DICT|INTERRES
    34   19   23 1    
    35   20   21 2    
    36   20   22 1    
    37   21   43 1    
    38   23   28 ar   
    39   23   24 ar   
    40   24   25 ar   
    41   24   44 1    
    42   25   26 ar   
    43   25   45 1    
    44   26   27 ar   
    45   26   29 1    
    46   27   28 ar   
    47   27   46 1    
    48   28   47 1    
    49   29   30 2    
    50   29   31 2    
    51   29   32 1    
    52   32   48 1    
    53   32   49 1    
@<TRIPOS>SUBSTRUCTURE
     1 UNK         1 GROUP             0       ****    0 ROOT    
