@<TRIPOS>MOLECULE
ZINC65601422_6220
59   60    1
SMALL
USER_CHARGES


@<TRIPOS>ATOM
      1 C1          0.6262   50.4369   16.1030 C.3       1 UNK         0.0000 
      2 C2          1.4831   51.6356   16.5523 C.3       1 UNK         0.0000 
      3 C3          1.9773   51.4479   17.9961 C.3       1 UNK         0.0000 
      4 C4          2.7497   52.6833   18.4767 C.3       1 UNK         0.0000 
      5 N5          3.9721   52.8966   17.5444 N.4       1 UNK         0.0000 
      6 C6          3.5580   53.0263   16.0546 C.3       1 UNK         0.0000 
      7 C7          2.7165   51.8043   15.6482 C.3       1 UNK         0.0000 
      8 C8          4.9214   54.0612   17.9635 C.3       1 UNK         0.0000 
      9 C9          4.1593   55.3864   18.2058 C.3       1 UNK         0.0000 
     10 C10         5.8440   53.6193   19.1271 C.3       1 UNK         0.0000 
     11 N11         5.1923   53.6224   20.4381 N.am      1 UNK         0.0000 
     12 C12         5.4638   54.4142   21.4927 C.2       1 UNK         0.0000 
     13 O13         6.3175   55.3049   21.4985 O.2       1 UNK         0.0000 
     14 C14         4.6194   54.0709   22.6678 C.2       1 UNK         0.0000 
     15 O15         3.5726   53.4207   22.5477 O.2       1 UNK         0.0000 
     16 N16         5.1437   54.4947   23.8435 N.am      1 UNK         0.0000 
     17 C17         4.6273   54.2591   25.1292 C.ar      1 UNK         0.0000 
     18 C18         3.2651   54.0457   25.3774 C.ar      1 UNK         0.0000 
     19 C19         2.8299   53.7390   26.6591 C.ar      1 UNK         0.0000 
     20 C20         3.7416   53.6619   27.7212 C.ar      1 UNK         0.0000 
     21 C21         5.0937   53.9414   27.4791 C.ar      1 UNK         0.0000 
     22 C22         5.5347   54.2379   26.1918 C.ar      1 UNK         0.0000 
     23 C23         3.2748   53.3176   29.1138 C.2       1 UNK         0.0000 
     24 O24         3.9044   53.6892   30.1044 O.2       1 UNK         0.0000 
     25 N25         2.1229   52.6240   29.1956 N.am      1 UNK         0.0000 
     26 C26         1.3415   52.4230   30.4147 C.3       1 UNK         0.0000 
     27 C27         0.6100   53.6459   30.9488 C.2       1 UNK         0.0000 
     28 C28         0.7034   54.9018   30.4811 C.2       1 UNK         0.0000 
     29 H29         1.1944   49.5047   16.1446 H         1 UNK         0.0000 
     30 H30        -0.2493   50.3155   16.7416 H         1 UNK         0.0000 
     31 H31         0.2696   50.5617   15.0793 H         1 UNK         0.0000 
     32 H32         0.8779   52.5411   16.5003 H         1 UNK         0.0000 
     33 H33         2.5923   50.5483   18.0795 H         1 UNK         0.0000 
     34 H34         1.1287   51.2601   18.6566 H         1 UNK         0.0000 
     35 H35         3.1215   52.4852   19.4789 H         1 UNK         0.0000 
     36 H36         2.1388   53.5876   18.4722 H         1 UNK         0.0000 
     37 H37         3.0269   53.9697   15.9225 H         1 UNK         0.0000 
     38 H38         4.4801   53.0351   15.4706 H         1 UNK         0.0000 
     39 H39         2.4063   51.8930   14.6052 H         1 UNK         0.0000 
     40 H40         3.3201   50.8987   15.6787 H         1 UNK         0.0000 
     41 H41         5.5698   54.1781   17.0929 H         1 UNK         0.0000 
     42 H42         4.8623   56.2018   18.3897 H         1 UNK         0.0000 
     43 H43         3.5518   55.6753   17.3505 H         1 UNK         0.0000 
     44 H44         3.5080   55.3277   19.0766 H         1 UNK         0.0000 
     45 H45         6.7191   54.2716   19.1466 H         1 UNK         0.0000 
     46 H46         6.2374   52.6170   18.9367 H         1 UNK         0.0000 
     47 H47         4.4856   52.9192   20.5926 H         1 UNK         0.0000 
     48 H48         6.0502   54.9402   23.7960 H         1 UNK         0.0000 
     49 H49         2.5269   54.1032   24.5926 H         1 UNK         0.0000 
     50 H50         1.7740   53.5712   26.8081 H         1 UNK         0.0000 
     51 H51         5.8132   53.9094   28.2855 H         1 UNK         0.0000 
     52 H52         6.5859   54.4096   26.0204 H         1 UNK         0.0000 
     53 H53         1.6937   52.3188   28.3350 H         1 UNK         0.0000 
     54 H54         1.9399   51.9632   31.2046 H         1 UNK         0.0000 
     55 H55         0.5637   51.6969   30.1804 H         1 UNK         0.0000 
     56 H56        -0.0403   53.4556   31.7918 H         1 UNK         0.0000 
     57 H57         1.3325   55.1703   29.6462 H         1 UNK         0.0000 
     58 H58         0.1390   55.6988   30.9362 H         1 UNK         0.0000 
     59 H59         4.5105   52.0289   17.6121 H         1 UNK         0.0000 
@<TRIPOS>BOND
     1    1    2 1    
     2    1   29 1    
     3    1   30 1    
     4    1   31 1    
     5    2    7 1    
     6    2    3 1    
     7    2   32 1    
     8    3    4 1    
     9    3   33 1    
    10    3   34 1    
    11    4    5 1    
    12    4   35 1    
    13    4   36 1    
    14    5    6 1    
    15    5    8 1    
    16    5   59 1    
    17    6    7 1    
    18    6   37 1    
    19    6   38 1    
    20    7   39 1    
    21    7   40 1    
    22    8    9 1    
    23    8   10 1    
    24    8   41 1    
    25    9   42 1    
    26    9   43 1    
    27    9   44 1    
    28   10   11 1    
    29   10   45 1    
    30   10   46 1    
    31   11   12 am   BACKBONE|DICT|INTERRES
    32   11   47 1    
    33   12   13 2    
    34   12   14 1    
    35   14   15 2    
    36   14   16 am   BACKBONE|DICT|INTERRES
    37   16   17 1    
    38   16   48 1    
    39   17   22 ar   
    40   17   18 ar   
    41   18   19 ar   
    42   18   49 1    
    43   19   20 ar   
    44   19   50 1    
    45   20   21 ar   
    46   20   23 1    
    47   21   22 ar   
    48   21   51 1    
    49   22   52 1    
    50   23   24 2    
    51   23   25 am   BACKBONE|DICT|INTERRES
    52   25   26 1    
    53   25   53 1    
    54   26   27 1    
    55   26   54 1    
    56   26   55 1    
    57   27   28 2    
    58   27   56 1    
    59   28   57 1    
    60   28   58 1    
@<TRIPOS>SUBSTRUCTURE
     1 UNK         1 GROUP             0       ****    0 ROOT    
