@<TRIPOS>MOLECULE
ZINC09866034_2748
59   62    1
SMALL
USER_CHARGES


@<TRIPOS>ATOM
      1 C1          1.0136   53.6133   28.8180 C.3       1 UNK         0.0000 
      2 C2          2.4767   53.8192   28.4917 C.2       1 UNK         0.0000 
      3 N3          2.9220   54.0889   27.2856 N.2       1 UNK         0.0000 
      4 C4          4.2393   54.2232   27.2231 C.2       1 UNK         0.0000 
      5 C5          4.8823   54.0736   28.4546 C.2       1 UNK         0.0000 
      6 S6          3.7262   53.7007   29.6832 S.3       1 UNK         0.0000 
      7 C7          4.9283   54.4893   25.9199 C.ar      1 UNK         0.0000 
      8 C8          6.1795   55.1091   25.9221 C.ar      1 UNK         0.0000 
      9 C9          6.8597   55.3148   24.7289 C.ar      1 UNK         0.0000 
     10 C10         6.3162   54.8964   23.5185 C.ar      1 UNK         0.0000 
     11 C11         5.0603   54.2727   23.5067 C.ar      1 UNK         0.0000 
     12 C12         4.3628   54.0956   24.7004 C.ar      1 UNK         0.0000 
     13 N13         7.1036   55.1362   22.3747 N.am      1 UNK         0.0000 
     14 C14         6.6845   55.2959   21.1025 C.2       1 UNK         0.0000 
     15 O15         5.5017   55.2743   20.7741 O.2       1 UNK         0.0000 
     16 C16         7.7867   55.5469   20.0445 C.3       1 UNK         0.0000 
     17 N17         7.2326   56.0474   18.7603 N.am      1 UNK         0.0000 
     18 C18         6.5573   55.2717   17.8804 C.2       1 UNK         0.0000 
     19 O19         6.4766   54.0414   17.8659 O.2       1 UNK         0.0000 
     20 C20         5.8116   56.2398   16.9568 C.3       1 UNK         0.0000 
     21 C21         6.1973   55.9286   15.4741 C.3       1 UNK         0.0000 
     22 C22         5.0332   55.3310   14.6505 C.3       1 UNK         0.0000 
     23 H23         4.7191   54.3912   15.1099 H         1 UNK         0.0000 
     24 C24         3.8499   56.3261   14.6759 C.3       1 UNK         0.0000 
     25 C25         3.3265   56.6810   16.1087 C.3       1 UNK         0.0000 
     26 C26         4.2736   56.1572   17.2380 C.3       1 UNK         0.0000 
     27 C27         3.2343   58.2211   16.2501 C.3       1 UNK         0.0000 
     28 C28         1.9544   55.9902   16.2901 C.3       1 UNK         0.0000 
     29 C29         5.4812   55.0577   13.2018 C.3       1 UNK         0.0000 
     30 N30         6.3448   57.4819   17.4322 N.am      1 UNK         0.0000 
     31 C31         7.1805   57.3697   18.4621 C.2       1 UNK         0.0000 
     32 O32         7.9012   58.2655   18.8817 O.2       1 UNK         0.0000 
     33 H33         0.8370   52.6133   29.2202 H         1 UNK         0.0000 
     34 H34         0.6647   54.3250   29.5687 H         1 UNK         0.0000 
     35 H35         0.3648   53.7150   27.9509 H         1 UNK         0.0000 
     36 H36         5.9365   54.1312   28.6878 H         1 UNK         0.0000 
     37 H37         6.6270   55.4387   26.8490 H         1 UNK         0.0000 
     38 H38         7.8126   55.8197   24.7368 H         1 UNK         0.0000 
     39 H39         4.6144   53.9198   22.5883 H         1 UNK         0.0000 
     40 H40         3.3996   53.6076   24.6761 H         1 UNK         0.0000 
     41 H41         8.0856   55.2914   22.5694 H         1 UNK         0.0000 
     42 H42         8.2955   54.6008   19.8545 H         1 UNK         0.0000 
     43 H43         8.5456   56.2286   20.4335 H         1 UNK         0.0000 
     44 H44         7.1018   55.3212   15.3755 H         1 UNK         0.0000 
     45 H45         6.4547   56.8622   14.9673 H         1 UNK         0.0000 
     46 H46         4.2617   57.2219   14.2052 H         1 UNK         0.0000 
     47 H47         3.0474   56.0314   13.9985 H         1 UNK         0.0000 
     48 H48         4.0001   56.5423   18.2235 H         1 UNK         0.0000 
     49 H49         4.0572   55.0906   17.3539 H         1 UNK         0.0000 
     50 H50         3.0008   58.5211   17.2717 H         1 UNK         0.0000 
     51 H51         4.1732   58.7119   15.9930 H         1 UNK         0.0000 
     52 H52         2.4642   58.6432   15.6026 H         1 UNK         0.0000 
     53 H53         1.5391   56.1760   17.2803 H         1 UNK         0.0000 
     54 H54         1.2256   56.3603   15.5667 H         1 UNK         0.0000 
     55 H55         2.0201   54.9076   16.1583 H         1 UNK         0.0000 
     56 H56         5.8096   55.9682   12.6988 H         1 UNK         0.0000 
     57 H57         4.6699   54.6283   12.6128 H         1 UNK         0.0000 
     58 H58         6.3093   54.3491   13.1765 H         1 UNK         0.0000 
     59 H59         5.8885   58.3541   17.2092 H         1 UNK         0.0000 
@<TRIPOS>BOND
     1    1    2 1    
     2    1   33 1    
     3    1   34 1    
     4    1   35 1    
     5    2    6 1    
     6    2    3 2    
     7    3    4 1    
     8    4    5 2    
     9    4    7 1    
    10    5    6 1    
    11    5   36 1    
    12    7   12 ar   
    13    7    8 ar   
    14    8    9 ar   
    15    8   37 1    
    16    9   10 ar   
    17    9   38 1    
    18   10   11 ar   
    19   10   13 1    
    20   11   12 ar   
    21   11   39 1    
    22   12   40 1    
    23   13   14 am   BACKBONE|DICT|INTERRES
    24   13   41 1    
    25   14   15 2    
    26   14   16 1    
    27   16   17 1    
    28   16   42 1    
    29   16   43 1    
    30   17   31 am   BACKBONE|DICT|INTERRES
    31   17   18 am   BACKBONE|DICT|INTERRES
    32   18   19 2    
    33   18   20 1    
    34   20   26 1    
    35   20   21 1    
    36   20   30 1    
    37   21   22 1    
    38   21   44 1    
    39   21   45 1    
    40   22   23 1    
    41   22   24 1    
    42   22   29 1    
    43   24   25 1    
    44   24   46 1    
    45   24   47 1    
    46   25   26 1    
    47   25   27 1    
    48   25   28 1    
    49   26   48 1    
    50   26   49 1    
    51   27   50 1    
    52   27   51 1    
    53   27   52 1    
    54   28   53 1    
    55   28   54 1    
    56   28   55 1    
    57   29   56 1    
    58   29   57 1    
    59   29   58 1    
    60   30   31 am   BACKBONE|DICT|INTERRES
    61   30   59 1    
    62   31   32 2    
@<TRIPOS>SUBSTRUCTURE
     1 UNK         1 GROUP             0       ****    0 ROOT    
