ZINC39724243_550
                    3D
 Schrodinger Suite 2024-2.
 52 55  0  0  1  0            999 V2000
   -1.9556   48.2501   22.8556 C   0  0  0  0  0  0
   -0.8665   48.7005   23.8386 C   0  0  0  0  0  0
   -0.4915   50.1716   23.7093 C   0  0  0  0  0  0
   -1.0489   51.1957   24.4040 C   0  0  0  0  0  0
   -0.2677   52.7795   24.0833 S   0  0  0  0  0  0
    0.4752   52.1171   22.5985 C   0  0  2  0  0  0
   -0.2874   52.2101   21.8197 H   0  0  0  0  0  0
    0.7530   50.6634   22.9866 C   0  0  2  0  0  0
    1.5848   50.5864   23.6924 H   0  0  0  0  0  0
    1.2852   49.9845   21.6963 C   0  0  0  0  0  0
    0.8845   48.8967   21.2842 O   0  0  0  0  0  0
    2.2354   50.7784   21.0833 N   0  0  0  0  0  0
    2.5524   52.0691   21.4923 C   0  0  0  0  0  0
    1.6878   52.7814   22.1384 N   0  0  0  0  0  0
    4.1938   52.7832   21.1744 S   0  0  0  0  0  0
    4.1355   54.3785   22.0686 C   0  0  0  0  0  0
    4.3425   54.2408   23.5765 C   0  0  0  0  0  0
    5.5956   54.4969   24.0985 N   0  0  0  0  0  0
    6.3515   54.7214   23.4712 H   0  0  0  0  0  0
    5.9623   54.5440   25.4165 C   0  0  0  0  0  0
    7.1041   54.8960   25.7040 O   0  0  0  0  0  0
    4.8399   54.1562   26.2946 C   0  0  0  0  0  0
    4.8005   54.0098   27.7037 C   0  0  0  0  0  0
    3.5125   53.6129   28.1425 C   0  0  0  0  0  0
    2.3840   53.4644   26.8162 S   0  0  0  0  0  0
    3.6041   53.9116   25.6906 C   0  0  0  0  0  0
    3.3507   53.9755   24.3544 N   0  0  0  0  0  0
    3.0039   53.3267   29.5010 C   0  0  0  0  0  0
    1.9027   52.7420   29.6092 O   0  0  0  0  0  0
    3.7011   53.6961   30.4730 O   0  5  0  0  0  0
    6.0011   54.1576   28.6178 C   0  0  0  0  0  0
    2.7717   50.2480   19.8113 C   0  0  0  0  0  0
    1.9785   50.7432   18.5873 C   0  0  0  0  0  0
   -2.2150   51.1346   25.3717 C   0  0  0  0  0  0
   -2.1740   47.1893   22.9782 H   0  0  0  0  0  0
   -2.8829   48.8007   23.0180 H   0  0  0  0  0  0
   -1.6539   48.4078   21.8204 H   0  0  0  0  0  0
   -1.1996   48.5020   24.8578 H   0  0  0  0  0  0
    0.0328   48.0960   23.7158 H   0  0  0  0  0  0
    4.9281   54.9996   21.6530 H   0  0  0  0  0  0
    3.2064   54.8988   21.8355 H   0  0  0  0  0  0
    5.9021   55.0205   29.2747 H   0  0  0  0  0  0
    6.0666   53.2970   29.2786 H   0  0  0  0  0  0
    6.9642   54.2107   28.1132 H   0  0  0  0  0  0
    3.8184   50.5309   19.6977 H   0  0  0  0  0  0
    2.7892   49.1560   19.8044 H   0  0  0  0  0  0
    2.0895   51.8194   18.4518 H   0  0  0  0  0  0
    2.3316   50.2641   17.6753 H   0  0  0  0  0  0
    0.9166   50.5133   18.6785 H   0  0  0  0  0  0
   -1.8819   51.4098   26.3731 H   0  0  0  0  0  0
   -2.9930   51.8336   25.0657 H   0  0  0  0  0  0
   -2.6594   50.1415   25.4260 H   0  0  0  0  0  0
  1  2  1  0  0  0
  1 35  1  0  0  0
  1 36  1  0  0  0
  1 37  1  0  0  0
  2  3  1  0  0  0
  2 38  1  0  0  0
  2 39  1  0  0  0
  3  8  1  0  0  0
  3  4  2  0  0  0
  4  5  1  0  0  0
  4 34  1  0  0  0
  5  6  1  0  0  0
  6  7  1  0  0  0
  6 14  1  0  0  0
  6  8  1  0  0  0
  8  9  1  0  0  0
  8 10  1  0  0  0
 10 11  2  0  0  0
 10 12  1  0  0  0
 12 13  1  0  0  0
 12 32  1  0  0  0
 13 14  2  0  0  0
 13 15  1  0  0  0
 15 16  1  0  0  0
 16 17  1  0  0  0
 16 40  1  0  0  0
 16 41  1  0  0  0
 17 27  2  0  0  0
 17 18  1  0  0  0
 18 19  1  0  0  0
 18 20  1  0  0  0
 20 21  2  0  0  0
 20 22  1  0  0  0
 22 26  2  0  0  0
 22 23  1  0  0  0
 23 24  2  0  0  0
 23 31  1  0  0  0
 24 25  1  0  0  0
 24 28  1  0  0  0
 25 26  1  0  0  0
 26 27  1  0  0  0
 28 29  2  0  0  0
 28 30  1  0  0  0
 31 42  1  0  0  0
 31 43  1  0  0  0
 31 44  1  0  0  0
 32 33  1  0  0  0
 32 45  1  0  0  0
 32 46  1  0  0  0
 33 47  1  0  0  0
 33 48  1  0  0  0
 33 49  1  0  0  0
 34 50  1  0  0  0
 34 51  1  0  0  0
 34 52  1  0  0  0
M  CHG  1  30  -1
M  END
> <i_i_glide_confnum>
2

> <i_i_glide_lignum>
551

> <i_i_glide_posenum>
385

> <i_i_glide_rotatable_bonds>
6

> <i_m_Source_File_Index>
4759

> <b_m_subgroup_collapsed>
0

> <r_i_docking_score>
-7.27704

> <r_i_glide_ecoul>
-9.80898

> <r_i_glide_eff_state_penalty>
0

> <r_i_glide_einternal>
0.712393

> <r_i_glide_emodel>
-82.4497

> <r_i_glide_energy>
-54.5801

> <r_i_glide_erotb>
0.266435

> <r_i_glide_esite>
0

> <r_i_glide_evdw>
-44.7711

> <r_i_glide_gscore>
-7.27704

> <r_i_glide_hbond>
-0.48

> <r_i_glide_ligand_efficiency>
-0.234743

> <r_i_glide_ligand_efficiency_ln>
-1.6412

> <r_i_glide_ligand_efficiency_sa>
-0.737418

> <r_i_glide_lipo>
-2.06811

> <r_i_glide_metal>
0

> <r_i_glide_rewards>
-1.28546

> <s_i_glide_gridfile>
wee1_glide-grid

> <s_m_Source_File>
wee1_decoys_glide_SP.sdf

> <s_m_Source_Path>
/Users/zhangxujun/Desktop

> <s_m_entry_id>
5034

> <s_m_entry_name>
wee1_decoys_glide_SP.4759

> <s_m_subgroup_title>
wee1_decoys_glide_SP

> <s_m_subgroupid>
wee1_decoys_glide_SP


$$$$
