@<TRIPOS>MOLECULE
ZINC00793190_2075
48   52    1
SMALL
USER_CHARGES


@<TRIPOS>ATOM
      1 C1          5.4046   54.1162   28.2439 C.ar      1 UNK         0.0000 
      2 C2          4.1495   53.6745   27.8259 C.ar      1 UNK         0.0000 
      3 C3          3.7470   53.8310   26.4954 C.ar      1 UNK         0.0000 
      4 C4          4.6206   54.4555   25.5881 C.ar      1 UNK         0.0000 
      5 C5          5.8761   54.8968   26.0097 C.ar      1 UNK         0.0000 
      6 C6          6.2707   54.7194   27.3347 C.ar      1 UNK         0.0000 
      7 Cl7         6.9396   55.6768   24.8964 Cl        1 UNK         0.0000 
      8 N8          2.4855   53.2987   26.1663 N.am      1 UNK         0.0000 
      9 C9          1.8167   53.3046   24.9916 C.2       1 UNK         0.0000 
     10 O10         2.1560   53.9283   23.9867 O.2       1 UNK         0.0000 
     11 C11         0.6138   52.4922   24.9981 C.ar      1 UNK         0.0000 
     12 C12         0.2566   51.5260   25.9642 C.ar      1 UNK         0.0000 
     13 C13        -0.9477   50.9975   25.5580 C.ar      1 UNK         0.0000 
     14 N14        -1.2138   51.5773   24.3325 N.pl3     1 UNK         0.0000 
     15 N15        -0.2904   52.5112   24.0365 N.2       1 UNK         0.0000 
     16 C16        -2.4222   51.3750   23.5154 C.3       1 UNK         0.0000 
     17 H17        -3.0391   52.2636   23.6436 H         1 UNK         0.0000 
     18 C18        -3.2048   50.1636   24.0891 C.3       1 UNK         0.0000 
     19 C19        -3.1566   50.0162   25.6266 C.3       1 UNK         0.0000 
     20 H20        -3.6445   50.8726   26.0976 H         1 UNK         0.0000 
     21 N21        -1.7632   50.0190   26.0816 N.pl3     1 UNK         0.0000 
     22 C22        -3.9423   48.7884   26.0869 C.ar      1 UNK         0.0000 
     23 C23        -5.1818   48.9529   26.7399 C.ar      1 UNK         0.0000 
     24 C24        -5.9289   47.8420   27.1608 C.ar      1 UNK         0.0000 
     25 C25        -5.4063   46.5788   26.9036 C.ar      1 UNK         0.0000 
     26 C26        -4.2134   46.4112   26.2611 C.ar      1 UNK         0.0000 
     27 C27        -3.4463   47.4933   25.8441 C.ar      1 UNK         0.0000 
     28 O28        -3.9816   45.0860   26.0812 O.3       1 UNK         0.0000 
     29 C29        -4.9680   44.4195   26.8209 C.3       1 UNK         0.0000 
     30 O30        -5.9460   45.3617   27.1753 O.3       1 UNK         0.0000 
     31 C31        -2.1355   51.2064   22.0013 C.3       1 UNK         0.0000 
     32 F32        -3.2505   50.8939   21.3362 F         1 UNK         0.0000 
     33 F33        -1.6554   52.3161   21.4484 F         1 UNK         0.0000 
     34 F34        -1.2611   50.2271   21.7707 F         1 UNK         0.0000 
     35 H35         5.7073   53.9970   29.2728 H         1 UNK         0.0000 
     36 H36         3.4993   53.1983   28.5458 H         1 UNK         0.0000 
     37 H37         4.3571   54.5947   24.5532 H         1 UNK         0.0000 
     38 H38         7.2353   55.0637   27.6802 H         1 UNK         0.0000 
     39 H39         2.0415   52.7853   26.9096 H         1 UNK         0.0000 
     40 H40         0.7914   51.2386   26.8567 H         1 UNK         0.0000 
     41 H41        -4.2407   50.1998   23.7468 H         1 UNK         0.0000 
     42 H42        -2.8059   49.2450   23.6515 H         1 UNK         0.0000 
     43 H43        -1.6952   49.7912   27.0716 H         1 UNK         0.0000 
     44 H44        -5.5712   49.9434   26.9232 H         1 UNK         0.0000 
     45 H45        -6.8778   47.9720   27.6573 H         1 UNK         0.0000 
     46 H46        -2.4990   47.3509   25.3449 H         1 UNK         0.0000 
     47 H47        -4.4990   44.0124   27.7152 H         1 UNK         0.0000 
     48 H48        -5.4122   43.6108   26.2378 H         1 UNK         0.0000 
@<TRIPOS>BOND
     1    1    6 ar   
     2    1    2 ar   
     3    1   35 1    
     4    2    3 ar   
     5    2   36 1    
     6    3    4 ar   
     7    3    8 1    
     8    4    5 ar   
     9    4   37 1    
    10    5    6 ar   
    11    5    7 1    
    12    6   38 1    
    13    8    9 am   BACKBONE|DICT|INTERRES
    14    8   39 1    
    15    9   10 2    
    16    9   11 1    
    17   11   15 ar   
    18   11   12 ar   
    19   12   13 ar   
    20   12   40 1    
    21   13   21 1    
    22   13   14 ar   
    23   14   15 ar   
    24   14   16 1    
    25   16   17 1    
    26   16   18 1    
    27   16   31 1    
    28   18   19 1    
    29   18   41 1    
    30   18   42 1    
    31   19   20 1    
    32   19   21 1    
    33   19   22 1    
    34   21   43 1    
    35   22   27 ar   
    36   22   23 ar   
    37   23   24 ar   
    38   23   44 1    
    39   24   25 ar   
    40   24   45 1    
    41   25   30 1    
    42   25   26 ar   
    43   26   27 ar   
    44   26   28 1    
    45   27   46 1    
    46   28   29 1    
    47   29   30 1    
    48   29   47 1    
    49   29   48 1    
    50   31   32 1    
    51   31   33 1    
    52   31   34 1    
@<TRIPOS>SUBSTRUCTURE
     1 UNK         1 GROUP             0       ****    0 ROOT    
