@<TRIPOS>MOLECULE
ZINC35394266_696
75   79    1
SMALL
USER_CHARGES


@<TRIPOS>ATOM
      1 C1          3.9981   54.4450   24.5703 C.3       1 UNK         0.0000 
      2 C2          5.5141   54.6834   24.4761 C.3       1 UNK         0.0000 
      3 C3          6.2133   53.9748   23.2997 C.3       1 UNK         0.0000 
      4 N4          5.9043   54.4962   21.9552 N.am      1 UNK         0.0000 
      5 C5          4.6178   54.3469   21.2057 C.3       1 UNK         0.0000 
      6 H6          3.8853   55.0638   21.5708 H         1 UNK         0.0000 
      7 C7          5.0918   54.6689   19.7784 C.3       1 UNK         0.0000 
      8 C8          5.5917   53.5228   18.8806 C.2       1 UNK         0.0000 
      9 C9          5.7633   54.0586   17.6666 C.2       1 UNK         0.0000 
     10 C10         5.4709   55.5301   17.8626 C.3       1 UNK         0.0000 
     11 H11         5.1735   56.0709   16.9628 H         1 UNK         0.0000 
     12 O12         4.3930   55.4257   18.8164 O.3       1 UNK         0.0000 
     13 C13         6.5828   56.2295   18.7341 C.3       1 UNK         0.0000 
     14 H14         6.5291   57.3128   18.6223 H         1 UNK         0.0000 
     15 C15         6.0204   55.8136   20.1126 C.3       1 UNK         0.0000 
     16 H16         5.5057   56.7018   20.4856 H         1 UNK         0.0000 
     17 C17         6.7842   55.3319   21.3359 C.2       1 UNK         0.0000 
     18 O18         7.9041   55.6966   21.6817 O.2       1 UNK         0.0000 
     19 C19         8.0456   55.7928   18.4294 C.2       1 UNK         0.0000 
     20 O20         8.4752   54.7307   18.8780 O.2       1 UNK         0.0000 
     21 N21         8.7822   56.6476   17.6874 N.am      1 UNK         0.0000 
     22 C22        10.1167   56.5102   17.2517 C.ar      1 UNK         0.0000 
     23 C23        10.7479   57.6714   16.7967 C.ar      1 UNK         0.0000 
     24 C24        12.0677   57.6305   16.3471 C.ar      1 UNK         0.0000 
     25 C25        12.7819   56.4271   16.3437 C.ar      1 UNK         0.0000 
     26 C26        12.1530   55.2512   16.7835 C.ar      1 UNK         0.0000 
     27 C27        10.8258   55.2967   17.2247 C.ar      1 UNK         0.0000 
     28 C28        12.8923   53.9180   16.8049 C.3       1 UNK         0.0000 
     29 C29        14.2225   56.4198   15.8518 C.3       1 UNK         0.0000 
     30 C30         3.9616   52.9519   21.2972 C.2       1 UNK         0.0000 
     31 O31         4.5925   51.9649   21.6812 O.2       1 UNK         0.0000 
     32 N32         2.6780   52.8857   20.9142 N.am      1 UNK         0.0000 
     33 C33         1.8436   51.6837   21.0040 C.3       1 UNK         0.0000 
     34 H34         2.4231   50.8675   20.5613 H         1 UNK         0.0000 
     35 C35         0.6039   51.7582   20.0764 C.3       1 UNK         0.0000 
     36 C36        -0.2796   50.4912   20.1235 C.3       1 UNK         0.0000 
     37 C37        -0.6261   50.0832   21.5669 C.3       1 UNK         0.0000 
     38 C38         0.6511   49.8976   22.4106 C.3       1 UNK         0.0000 
     39 H39         1.2749   49.1514   21.9150 H         1 UNK         0.0000 
     40 C40         1.4692   51.2209   22.4505 C.3       1 UNK         0.0000 
     41 H41         2.4104   50.9454   22.9302 H         1 UNK         0.0000 
     42 C42         0.8429   52.3562   23.2940 C.3       1 UNK         0.0000 
     43 C43         0.3259   49.3537   23.8163 C.3       1 UNK         0.0000 
     44 H44         3.5948   54.8687   25.4897 H         1 UNK         0.0000 
     45 H45         3.4608   54.8955   23.7412 H         1 UNK         0.0000 
     46 H46         3.7693   53.3771   24.5752 H         1 UNK         0.0000 
     47 H47         5.9576   54.2983   25.3957 H         1 UNK         0.0000 
     48 H48         5.7430   55.7504   24.4767 H         1 UNK         0.0000 
     49 H49         5.9532   52.9206   23.3295 H         1 UNK         0.0000 
     50 H50         7.2911   53.9961   23.4698 H         1 UNK         0.0000 
     51 H51         5.7535   52.4973   19.1845 H         1 UNK         0.0000 
     52 H52         6.1124   53.5947   16.7552 H         1 UNK         0.0000 
     53 H53         8.3424   57.5196   17.4405 H         1 UNK         0.0000 
     54 H54        10.2257   58.6178   16.7963 H         1 UNK         0.0000 
     55 H55        12.5369   58.5429   16.0058 H         1 UNK         0.0000 
     56 H56        10.3668   54.3743   17.5423 H         1 UNK         0.0000 
     57 H57        13.1645   53.6194   15.7912 H         1 UNK         0.0000 
     58 H58        13.8140   54.0079   17.3830 H         1 UNK         0.0000 
     59 H59        12.2949   53.1225   17.2543 H         1 UNK         0.0000 
     60 H60        14.8924   56.1124   16.6552 H         1 UNK         0.0000 
     61 H61        14.3384   55.7077   15.0339 H         1 UNK         0.0000 
     62 H62        14.5447   57.3966   15.4913 H         1 UNK         0.0000 
     63 H63         2.2121   53.7440   20.6310 H         1 UNK         0.0000 
     64 H64         0.9173   51.9376   19.0459 H         1 UNK         0.0000 
     65 H65        -0.0097   52.6104   20.3683 H         1 UNK         0.0000 
     66 H66         0.2401   49.6682   19.6314 H         1 UNK         0.0000 
     67 H67        -1.1957   50.6520   19.5528 H         1 UNK         0.0000 
     68 H68        -1.1942   49.1523   21.5531 H         1 UNK         0.0000 
     69 H69        -1.2970   50.8078   22.0318 H         1 UNK         0.0000 
     70 H70        -0.1144   52.6820   22.8889 H         1 UNK         0.0000 
     71 H71         1.4940   53.2299   23.3340 H         1 UNK         0.0000 
     72 H72         0.6783   52.0452   24.3261 H         1 UNK         0.0000 
     73 H73        -0.3946   49.9801   24.3423 H         1 UNK         0.0000 
     74 H74        -0.0964   48.3501   23.7591 H         1 UNK         0.0000 
     75 H75         1.2238   49.2946   24.4305 H         1 UNK         0.0000 
@<TRIPOS>BOND
     1    1    2 1    
     2    1   44 1    
     3    1   45 1    
     4    1   46 1    
     5    2    3 1    
     6    2   47 1    
     7    2   48 1    
     8    3    4 1    
     9    3   49 1    
    10    3   50 1    
    11    4   17 am   BACKBONE|DICT|INTERRES
    12    4    5 1    
    13    5    6 1    
    14    5    7 1    
    15    5   30 1    
    16    7   12 1    
    17    7   15 1    
    18    7    8 1    
    19    8    9 2    
    20    8   51 1    
    21    9   10 1    
    22    9   52 1    
    23   10   11 1    
    24   10   12 1    
    25   10   13 1    
    26   13   14 1    
    27   13   15 1    
    28   13   19 1    
    29   15   16 1    
    30   15   17 1    
    31   17   18 2    
    32   19   20 2    
    33   19   21 am   BACKBONE|DICT|INTERRES
    34   21   22 1    
    35   21   53 1    
    36   22   27 ar   
    37   22   23 ar   
    38   23   24 ar   
    39   23   54 1    
    40   24   25 ar   
    41   24   55 1    
    42   25   26 ar   
    43   25   29 1    
    44   26   27 ar   
    45   26   28 1    
    46   27   56 1    
    47   28   57 1    
    48   28   58 1    
    49   28   59 1    
    50   29   60 1    
    51   29   61 1    
    52   29   62 1    
    53   30   31 2    
    54   30   32 am   BACKBONE|DICT|INTERRES
    55   32   33 1    
    56   32   63 1    
    57   33   34 1    
    58   33   40 1    
    59   33   35 1    
    60   35   36 1    
    61   35   64 1    
    62   35   65 1    
    63   36   37 1    
    64   36   66 1    
    65   36   67 1    
    66   37   38 1    
    67   37   68 1    
    68   37   69 1    
    69   38   39 1    
    70   38   40 1    
    71   38   43 1    
    72   40   41 1    
    73   40   42 1    
    74   42   70 1    
    75   42   71 1    
    76   42   72 1    
    77   43   73 1    
    78   43   74 1    
    79   43   75 1    
@<TRIPOS>SUBSTRUCTURE
     1 UNK         1 GROUP             0       ****    0 ROOT    
