@<TRIPOS>MOLECULE
ZINC62828704_1665
40   41    1
SMALL
USER_CHARGES


@<TRIPOS>ATOM
      1 C1          5.9015   54.2813   22.8711 C.3       1 UNK         0.0000 
      2 C2          4.9015   54.2062   24.0172 C.2       1 UNK         0.0000 
      3 C3          3.5552   53.8705   23.8213 C.2       1 UNK         0.0000 
      4 S4          2.7319   53.6968   25.3328 S.3       1 UNK         0.0000 
      5 C5          4.1407   54.1434   26.2487 C.2       1 UNK         0.0000 
      6 C6          5.2253   54.3625   25.3938 C.2       1 UNK         0.0000 
      7 C7          6.5504   54.7547   25.8805 C.2       1 UNK         0.0000 
      8 O8          7.1044   55.6967   25.2814 O.co2     1 UNK         0.0000 
      9 O9          7.0046   54.1696   26.8886 O.co2     1 UNK         0.0000 
     10 N10         4.1931   54.2110   27.6493 N.am      1 UNK         0.0000 
     11 C11         3.2206   54.1948   28.5856 C.2       1 UNK         0.0000 
     12 O12         3.5040   54.0893   29.7793 O.2       1 UNK         0.0000 
     13 N13         1.9501   54.3102   28.1681 N.am      1 UNK         0.0000 
     14 C14         0.8288   53.5990   28.7713 C.3       1 UNK         0.0000 
     15 C15         0.7210   52.1243   28.2958 C.3       1 UNK         0.0000 
     16 H16         1.7322   51.7293   28.1828 H         1 UNK         0.0000 
     17 C17        -0.0191   51.9072   26.9555 C.3       1 UNK         0.0000 
     18 C18        -1.5267   52.1781   27.0765 C.3       1 UNK         0.0000 
     19 C19        -2.1241   51.4600   28.3003 C.3       1 UNK         0.0000 
     20 C20        -1.2516   51.5820   29.5742 C.3       1 UNK         0.0000 
     21 O21         0.1127   51.2968   29.2811 O.3       1 UNK         0.0000 
     22 C22         2.7925   53.6323   22.5358 C.3       1 UNK         0.0000 
     23 H23         5.6274   53.6368   22.0362 H         1 UNK         0.0000 
     24 H24         6.0104   55.2959   22.4899 H         1 UNK         0.0000 
     25 H25         6.8942   53.9438   23.1710 H         1 UNK         0.0000 
     26 H26         5.1373   54.2684   28.0102 H         1 UNK         0.0000 
     27 H27         1.7850   54.7344   27.2682 H         1 UNK         0.0000 
     28 H28         0.9224   53.6268   29.8594 H         1 UNK         0.0000 
     29 H29        -0.0880   54.1444   28.5512 H         1 UNK         0.0000 
     30 H30         0.3965   52.5342   26.1722 H         1 UNK         0.0000 
     31 H31         0.1445   50.8793   26.6264 H         1 UNK         0.0000 
     32 H32        -1.6953   53.2515   27.1376 H         1 UNK         0.0000 
     33 H33        -2.0379   51.8536   26.1692 H         1 UNK         0.0000 
     34 H34        -3.1416   51.7954   28.4958 H         1 UNK         0.0000 
     35 H35        -2.2304   50.4126   28.0443 H         1 UNK         0.0000 
     36 H36        -1.2955   52.5877   29.9868 H         1 UNK         0.0000 
     37 H37        -1.6043   50.8979   30.3485 H         1 UNK         0.0000 
     38 H38         3.3606   53.9102   21.6481 H         1 UNK         0.0000 
     39 H39         2.5155   52.5843   22.4240 H         1 UNK         0.0000 
     40 H40         1.8701   54.2134   22.5047 H         1 UNK         0.0000 
@<TRIPOS>BOND
     1    1    2 1    
     2    1   23 1    
     3    1   24 1    
     4    1   25 1    
     5    2    6 1    
     6    2    3 2    
     7    3    4 1    
     8    3   22 1    
     9    4    5 1    
    10    5    6 2    
    11    5   10 am   BACKBONE|DICT|INTERRES
    12    6    7 1    
    13    7    8 2    
    14    7    9 1    
    15   10   11 am   BACKBONE|DICT|INTERRES
    16   10   26 1    
    17   11   12 2    
    18   11   13 am   BACKBONE|DICT|INTERRES
    19   13   14 1    
    20   13   27 1    
    21   14   15 1    
    22   14   28 1    
    23   14   29 1    
    24   15   16 1    
    25   15   21 1    
    26   15   17 1    
    27   17   18 1    
    28   17   30 1    
    29   17   31 1    
    30   18   19 1    
    31   18   32 1    
    32   18   33 1    
    33   19   20 1    
    34   19   34 1    
    35   19   35 1    
    36   20   21 1    
    37   20   36 1    
    38   20   37 1    
    39   22   38 1    
    40   22   39 1    
    41   22   40 1    
@<TRIPOS>SUBSTRUCTURE
     1 UNK         1 GROUP             0       ****    0 ROOT    
