@<TRIPOS>MOLECULE
ZINC35709614_5905
58   61    1
SMALL
USER_CHARGES


@<TRIPOS>ATOM
      1 C1         -4.2531   48.4065   20.6786 C.3       1 UNK         0.0000 
      2 C2         -2.9352   49.0792   21.0549 C.2       1 UNK         0.0000 
      3 C3         -2.4248   50.2539   20.5578 C.2       1 UNK         0.0000 
      4 C4         -1.1098   50.8426   21.1524 C.3       1 UNK         0.0000 
      5 H5         -1.2887   51.8837   21.4285 H         1 UNK         0.0000 
      6 N6         -0.7854   50.1578   22.4342 N.pl3     1 UNK         0.0000 
      7 C7          0.2021   50.5593   23.3190 C.2       1 UNK         0.0000 
      8 C8          0.4009   49.6535   24.2935 C.2       1 UNK         0.0000 
      9 S9         -0.6106   48.2182   24.1440 S.3       1 UNK         0.0000 
     10 C10        -1.4002   48.9441   22.7304 C.2       1 UNK         0.0000 
     11 N11        -2.3505   48.3895   22.0805 N.2       1 UNK         0.0000 
     12 C12         0.9178   51.8241   23.2225 C.2       1 UNK         0.0000 
     13 C13         1.2674   52.6320   24.2402 C.2       1 UNK         0.0000 
     14 O14         1.0816   52.5016   25.5060 O.co2     1 UNK         0.0000 
     15 N15         1.9000   53.8211   23.9522 N.pl3     1 UNK         0.0000 
     16 C16         2.8215   54.6150   24.7610 C.3       1 UNK         0.0000 
     17 C17         4.2806   54.2904   24.5327 C.ar      1 UNK         0.0000 
     18 C18         4.7826   54.0974   23.2438 C.ar      1 UNK         0.0000 
     19 C19         6.1499   53.9172   23.0684 C.ar      1 UNK         0.0000 
     20 C20         6.9773   53.9086   24.1877 C.ar      1 UNK         0.0000 
     21 N21         6.5148   54.1007   25.4494 N.ar      1 UNK         0.0000 
     22 C22         5.1802   54.2917   25.6060 C.ar      1 UNK         0.0000 
     23 C23         0.0750   50.8391   20.1704 C.ar      1 UNK         0.0000 
     24 C24         0.8639   49.6943   19.9947 C.ar      1 UNK         0.0000 
     25 C25         1.9571   49.7175   19.1275 C.ar      1 UNK         0.0000 
     26 C26         2.2599   50.8814   18.4220 C.ar      1 UNK         0.0000 
     27 C27         1.4756   52.0196   18.5757 C.ar      1 UNK         0.0000 
     28 C28         0.3939   52.0002   19.4550 C.ar      1 UNK         0.0000 
     29 F29         1.7604   53.1400   17.8766 F         1 UNK         0.0000 
     30 C30        -3.0223   51.0310   19.4492 C.2       1 UNK         0.0000 
     31 O31        -2.7816   52.2317   19.2820 O.2       1 UNK         0.0000 
     32 O32        -3.8231   50.3177   18.6216 O.3       1 UNK         0.0000 
     33 C33        -4.4561   50.9058   17.4872 C.3       1 UNK         0.0000 
     34 C34        -3.4677   51.0057   16.3105 C.3       1 UNK         0.0000 
     35 C35        -5.6733   50.0419   17.1400 C.3       1 UNK         0.0000 
     36 H36        -4.0951   47.7248   19.8432 H         1 UNK         0.0000 
     37 H37        -4.6788   47.8340   21.5065 H         1 UNK         0.0000 
     38 H38        -5.0154   49.1334   20.3988 H         1 UNK         0.0000 
     39 H39         1.1044   49.7391   25.1076 H         1 UNK         0.0000 
     40 H40         1.1915   52.1451   22.2293 H         1 UNK         0.0000 
     41 H41         2.0122   54.0153   22.9696 H         1 UNK         0.0000 
     42 H42         2.5896   54.4968   25.8198 H         1 UNK         0.0000 
     43 H43         2.7014   55.6603   24.4817 H         1 UNK         0.0000 
     44 H44         4.1295   54.1148   22.3821 H         1 UNK         0.0000 
     45 H45         6.5492   53.7851   22.0820 H         1 UNK         0.0000 
     46 H46         8.0286   53.6965   24.0805 H         1 UNK         0.0000 
     47 H47         4.8381   54.4589   26.6156 H         1 UNK         0.0000 
     48 H48         0.6405   48.7885   20.5347 H         1 UNK         0.0000 
     49 H49         2.5736   48.8395   18.9969 H         1 UNK         0.0000 
     50 H50         3.1049   50.8967   17.7467 H         1 UNK         0.0000 
     51 H51        -0.1894   52.8962   19.5732 H         1 UNK         0.0000 
     52 H52        -4.8166   51.9058   17.7429 H         1 UNK         0.0000 
     53 H53        -3.9497   51.4338   15.4313 H         1 UNK         0.0000 
     54 H54        -2.6167   51.6415   16.5570 H         1 UNK         0.0000 
     55 H55        -3.0770   50.0244   16.0362 H         1 UNK         0.0000 
     56 H56        -6.2054   50.4423   16.2769 H         1 UNK         0.0000 
     57 H57        -5.3809   49.0161   16.9094 H         1 UNK         0.0000 
     58 H58        -6.3769   50.0084   17.9718 H         1 UNK         0.0000 
@<TRIPOS>BOND
     1    1    2 1    
     2    1   36 1    
     3    1   37 1    
     4    1   38 1    
     5    2   11 1    
     6    2    3 2    
     7    3    4 1    
     8    3   30 1    
     9    4    5 1    
    10    4    6 1    
    11    4   23 1    
    12    6   10 1    
    13    6    7 1    
    14    7    8 2    
    15    7   12 1    
    16    8    9 1    
    17    8   39 1    
    18    9   10 1    
    19   10   11 2    
    20   12   13 2    
    21   12   40 1    
    22   13   14 1    
    23   13   15 1    
    24   15   16 1    
    25   15   41 1    
    26   16   17 1    
    27   16   42 1    
    28   16   43 1    
    29   17   22 ar   
    30   17   18 ar   
    31   18   19 ar   
    32   18   44 1    
    33   19   20 ar   
    34   19   45 1    
    35   20   21 ar   
    36   20   46 1    
    37   21   22 ar   
    38   22   47 1    
    39   23   28 ar   
    40   23   24 ar   
    41   24   25 ar   
    42   24   48 1    
    43   25   26 ar   
    44   25   49 1    
    45   26   27 ar   
    46   26   50 1    
    47   27   28 ar   
    48   27   29 1    
    49   28   51 1    
    50   30   31 2    
    51   30   32 1    
    52   32   33 1    
    53   33   34 1    
    54   33   35 1    
    55   33   52 1    
    56   34   53 1    
    57   34   54 1    
    58   34   55 1    
    59   35   56 1    
    60   35   57 1    
    61   35   58 1    
@<TRIPOS>SUBSTRUCTURE
     1 UNK         1 GROUP             0       ****    0 ROOT    
