@<TRIPOS>MOLECULE
ZINC40330491_1585
45   46    1
SMALL
USER_CHARGES


@<TRIPOS>ATOM
      1 C1          0.2013   49.4102   25.4308 C.3       1 UNK         0.0000 
      2 C2         -0.3421   50.4865   26.3845 C.3       1 UNK         0.0000 
      3 C3         -0.7270   51.8179   25.7056 C.3       1 UNK         0.0000 
      4 N4          0.4187   52.4848   25.0761 N.pl3     1 UNK         0.0000 
      5 C5          0.6339   52.4806   23.7172 C.ar      1 UNK         0.0000 
      6 C6          1.7916   53.1512   23.4098 C.ar      1 UNK         0.0000 
      7 C7          2.2568   53.6426   24.6246 C.ar      1 UNK         0.0000 
      8 C8          1.5043   53.1153   25.6831 C.ar      1 UNK         0.0000 
      9 C9          1.6772   53.2752   27.1277 C.2       1 UNK         0.0000 
     10 O10         0.6751   53.2939   27.8444 O.2       1 UNK         0.0000 
     11 N11         2.9344   53.3547   27.6624 N.am      1 UNK         0.0000 
     12 C12         4.2008   53.2401   26.9160 C.3       1 UNK         0.0000 
     13 C13         4.9311   54.5749   27.0915 C.3       1 UNK         0.0000 
     14 H14         4.3106   55.3998   26.7508 H         1 UNK         0.0000 
     15 C15         5.3320   54.7243   28.5749 C.3       1 UNK         0.0000 
     16 C16         4.0772   54.6025   29.4687 C.3       1 UNK         0.0000 
     17 C17         3.1023   53.4370   29.1376 C.3       1 UNK         0.0000 
     18 H18         2.1524   53.7196   29.5989 H         1 UNK         0.0000 
     19 C19         3.4913   52.1013   29.8023 C.3       1 UNK         0.0000 
     20 C20         6.1781   54.5575   26.2025 C.2       1 UNK         0.0000 
     21 O21         7.1044   53.8087   26.4698 O.2       1 UNK         0.0000 
     22 N22         6.2234   55.3572   25.1372 N.am      1 UNK         0.0000 
     23 N23         2.3470   53.3069   22.1795 N.pl3     1 UNK         0.0000 
     24 H24         0.4475   48.4976   25.9781 H         1 UNK         0.0000 
     25 H25         1.1058   49.7398   24.9184 H         1 UNK         0.0000 
     26 H26        -0.5355   49.1468   24.6699 H         1 UNK         0.0000 
     27 H27        -1.2301   50.0962   26.8827 H         1 UNK         0.0000 
     28 H28         0.3792   50.6578   27.1835 H         1 UNK         0.0000 
     29 H29        -1.4813   51.6393   24.9378 H         1 UNK         0.0000 
     30 H30        -1.1931   52.5070   26.4088 H         1 UNK         0.0000 
     31 H31        -0.0581   51.9690   23.0650 H         1 UNK         0.0000 
     32 H32         3.1212   54.2809   24.7126 H         1 UNK         0.0000 
     33 H33         4.7983   52.4527   27.3708 H         1 UNK         0.0000 
     34 H34         4.0992   52.8970   25.8934 H         1 UNK         0.0000 
     35 H35         5.8030   55.6899   28.7733 H         1 UNK         0.0000 
     36 H36         5.9879   53.9078   28.8817 H         1 UNK         0.0000 
     37 H37         3.5213   55.5380   29.3901 H         1 UNK         0.0000 
     38 H38         4.3899   54.5024   30.5058 H         1 UNK         0.0000 
     39 H39         3.5556   52.2107   30.8854 H         1 UNK         0.0000 
     40 H40         2.7529   51.3273   29.5874 H         1 UNK         0.0000 
     41 H41         4.4706   51.7536   29.4724 H         1 UNK         0.0000 
     42 H42         5.4505   55.9611   24.9053 H         1 UNK         0.0000 
     43 H43         7.0302   55.3164   24.5307 H         1 UNK         0.0000 
     44 H44         3.2501   53.7389   22.0494 H         1 UNK         0.0000 
     45 H45         1.8280   53.1108   21.3349 H         1 UNK         0.0000 
@<TRIPOS>BOND
     1    1    2 1    
     2    1   24 1    
     3    1   25 1    
     4    1   26 1    
     5    2    3 1    
     6    2   27 1    
     7    2   28 1    
     8    3    4 1    
     9    3   29 1    
    10    3   30 1    
    11    4    8 ar   
    12    4    5 ar   
    13    5    6 ar   
    14    5   31 1    
    15    6    7 ar   
    16    6   23 1    
    17    7    8 ar   
    18    7   32 1    
    19    8    9 1    
    20    9   10 2    
    21    9   11 am   BACKBONE|DICT|INTERRES
    22   11   17 1    
    23   11   12 1    
    24   12   13 1    
    25   12   33 1    
    26   12   34 1    
    27   13   14 1    
    28   13   15 1    
    29   13   20 1    
    30   15   16 1    
    31   15   35 1    
    32   15   36 1    
    33   16   17 1    
    34   16   37 1    
    35   16   38 1    
    36   17   18 1    
    37   17   19 1    
    38   19   39 1    
    39   19   40 1    
    40   19   41 1    
    41   20   21 2    
    42   20   22 am   BACKBONE|DICT|INTERRES
    43   22   42 1    
    44   22   43 1    
    45   23   44 1    
    46   23   45 1    
@<TRIPOS>SUBSTRUCTURE
     1 UNK         1 GROUP             0       ****    0 ROOT    
