@<TRIPOS>MOLECULE
ZINC04153187_3854
45   48    1
SMALL
USER_CHARGES


@<TRIPOS>ATOM
      1 C1          3.6311   54.3144   29.9991 C.3       1 UNK         0.0000 
      2 C2          2.9561   52.9329   29.8155 C.3       1 UNK         0.0000 
      3 C3          4.0917   51.8920   29.7081 C.3       1 UNK         0.0000 
      4 C4          2.1423   52.6189   31.1025 C.3       1 UNK         0.0000 
      5 C5          2.0115   52.9289   28.5508 C.3       1 UNK         0.0000 
      6 H6          1.2055   53.6322   28.7767 H         1 UNK         0.0000 
      7 C7          1.3637   51.5425   28.2553 C.3       1 UNK         0.0000 
      8 C8          0.2601   51.6058   27.1819 C.3       1 UNK         0.0000 
      9 C9          0.8076   52.3101   25.9439 C.2       1 UNK         0.0000 
     10 C10         1.9221   53.1623   26.0237 C.2       1 UNK         0.0000 
     11 S11         2.3834   53.8066   24.4808 S.3       1 UNK         0.0000 
     12 C12         1.1433   52.8956   23.7167 C.2       1 UNK         0.0000 
     13 C13         0.3717   52.1484   24.6111 C.2       1 UNK         0.0000 
     14 C14        -0.7055   51.3628   24.0152 C.2       1 UNK         0.0000 
     15 N15        -0.8967   51.1988   22.7688 N.2       1 UNK         0.0000 
     16 C16         0.0334   51.8591   21.8358 C.3       1 UNK         0.0000 
     17 H17        -0.5956   52.3827   21.1135 H         1 UNK         0.0000 
     18 N18         0.9539   52.8960   22.3542 N.pl3     1 UNK         0.0000 
     19 C19         0.7972   50.7974   21.0514 C.2       1 UNK         0.0000 
     20 C20         0.6898   49.4141   20.9301 C.2       1 UNK         0.0000 
     21 C21         1.7859   48.9708   20.1894 C.2       1 UNK         0.0000 
     22 C22         2.5405   50.0960   19.9150 C.2       1 UNK         0.0000 
     23 O23         1.9506   51.1964   20.4452 O.3       1 UNK         0.0000 
     24 O24        -1.6317   50.7169   24.7878 O.3       1 UNK         0.0000 
     25 C25         2.7420   53.4428   27.2722 C.3       1 UNK         0.0000 
     26 H26         4.2689   54.3290   30.8810 H         1 UNK         0.0000 
     27 H27         2.8991   55.1166   30.0826 H         1 UNK         0.0000 
     28 H28         4.2894   54.5608   29.1692 H         1 UNK         0.0000 
     29 H29         3.6886   50.8970   29.5684 H         1 UNK         0.0000 
     30 H30         4.7672   52.0948   28.8779 H         1 UNK         0.0000 
     31 H31         4.7034   51.8543   30.6073 H         1 UNK         0.0000 
     32 H32         1.5779   51.6950   31.0397 H         1 UNK         0.0000 
     33 H33         2.7863   52.5005   31.9752 H         1 UNK         0.0000 
     34 H34         1.4168   53.4076   31.3133 H         1 UNK         0.0000 
     35 H35         2.1233   50.8060   27.9934 H         1 UNK         0.0000 
     36 H36         0.8959   51.1345   29.1472 H         1 UNK         0.0000 
     37 H37        -0.0711   50.5905   26.9635 H         1 UNK         0.0000 
     38 H38        -0.6133   52.1385   27.5620 H         1 UNK         0.0000 
     39 H39         1.7137   53.0809   21.7136 H         1 UNK         0.0000 
     40 H40        -0.0966   48.8089   21.3555 H         1 UNK         0.0000 
     41 H41         2.0177   47.9533   19.9078 H         1 UNK         0.0000 
     42 H42         3.4769   50.2598   19.4007 H         1 UNK         0.0000 
     43 H43        -1.2012   50.3255   25.5480 H         1 UNK         0.0000 
     44 H44         2.9256   54.5140   27.3465 H         1 UNK         0.0000 
     45 H45         3.7029   52.9447   27.1546 H         1 UNK         0.0000 
@<TRIPOS>BOND
     1    1    2 1    
     2    1   26 1    
     3    1   27 1    
     4    1   28 1    
     5    2    3 1    
     6    2    4 1    
     7    2    5 1    
     8    3   29 1    
     9    3   30 1    
    10    3   31 1    
    11    4   32 1    
    12    4   33 1    
    13    4   34 1    
    14    5    6 1    
    15    5   25 1    
    16    5    7 1    
    17    7    8 1    
    18    7   35 1    
    19    7   36 1    
    20    8    9 1    
    21    8   37 1    
    22    8   38 1    
    23    9   13 1    
    24    9   10 2    
    25   10   11 1    
    26   10   25 1    
    27   11   12 1    
    28   12   18 1    
    29   12   13 2    
    30   13   14 1    
    31   14   15 2    
    32   14   24 1    
    33   15   16 1    
    34   16   17 1    
    35   16   18 1    
    36   16   19 1    
    37   18   39 1    
    38   19   23 1    
    39   19   20 2    
    40   20   21 1    
    41   20   40 1    
    42   21   22 2    
    43   21   41 1    
    44   22   23 1    
    45   22   42 1    
    46   24   43 1    
    47   25   44 1    
    48   25   45 1    
@<TRIPOS>SUBSTRUCTURE
     1 UNK         1 GROUP             0       ****    0 ROOT    
