@<TRIPOS>MOLECULE
ZINC13059384_2813
62   66    1
SMALL
USER_CHARGES


@<TRIPOS>ATOM
      1 C1         -2.4954   50.5543   26.9870 C.3       1 UNK         0.0000 
      2 C2         -1.4041   50.8606   25.9771 C.ar      1 UNK         0.0000 
      3 C3         -0.4266   49.9114   25.6610 C.ar      1 UNK         0.0000 
      4 C4          0.5632   50.2239   24.7233 C.ar      1 UNK         0.0000 
      5 C5          0.5625   51.4932   24.1314 C.ar      1 UNK         0.0000 
      6 N6         -0.4012   52.4157   24.4230 N.ar      1 UNK         0.0000 
      7 C7         -1.3576   52.0956   25.3286 C.ar      1 UNK         0.0000 
      8 N8          1.5844   51.7675   23.2002 N.am      1 UNK         0.0000 
      9 C9          1.9480   52.9708   22.6969 C.2       1 UNK         0.0000 
     10 O10         1.4358   54.0355   23.0437 O.2       1 UNK         0.0000 
     11 C11         3.0286   52.9626   21.7183 C.2       1 UNK         0.0000 
     12 C12         3.0614   52.0992   20.6620 C.2       1 UNK         0.0000 
     13 N13         4.0099   52.2476   19.6817 N.pl3     1 UNK         0.0000 
     14 C14         4.9519   53.2439   19.6306 C.2       1 UNK         0.0000 
     15 C15         5.0256   54.1856   20.6117 C.2       1 UNK         0.0000 
     16 C16         4.1065   54.0867   21.8835 C.3       1 UNK         0.0000 
     17 H17         3.5989   55.0526   21.8987 H         1 UNK         0.0000 
     18 C18         4.8342   54.0897   23.2525 C.ar      1 UNK         0.0000 
     19 C19         6.1689   53.7018   23.3330 C.ar      1 UNK         0.0000 
     20 C20         6.8731   53.8053   24.5149 C.ar      1 UNK         0.0000 
     21 C21         6.2451   54.1967   25.6919 C.ar      1 UNK         0.0000 
     22 C22         4.8881   54.5413   25.6447 C.ar      1 UNK         0.0000 
     23 C23         4.1987   54.4969   24.4344 C.ar      1 UNK         0.0000 
     24 O24         7.0150   54.1991   26.8368 O.3       1 UNK         0.0000 
     25 C25         6.3573   54.2703   28.0964 C.3       1 UNK         0.0000 
     26 C26         6.0201   55.2963   20.4876 C.2       1 UNK         0.0000 
     27 O27         6.3044   56.0615   21.4050 O.2       1 UNK         0.0000 
     28 C28         6.8520   55.3724   19.1963 C.3       1 UNK         0.0000 
     29 C29         6.1326   54.7556   17.9829 C.3       1 UNK         0.0000 
     30 H30         6.8603   54.7085   17.1713 H         1 UNK         0.0000 
     31 C31         5.7432   53.2965   18.3213 C.3       1 UNK         0.0000 
     32 C32         4.9956   55.6443   17.4848 C.2       1 UNK         0.0000 
     33 C33         3.6304   55.4731   17.2857 C.2       1 UNK         0.0000 
     34 C34         3.1244   56.6941   16.8357 C.2       1 UNK         0.0000 
     35 C35         4.1989   57.5643   16.7804 C.2       1 UNK         0.0000 
     36 O36         5.3315   56.9245   17.1668 O.3       1 UNK         0.0000 
     37 C37         2.0581   51.0037   20.3026 C.3       1 UNK         0.0000 
     38 H38        -3.3475   51.2259   26.8810 H         1 UNK         0.0000 
     39 H39        -2.1038   50.6296   28.0020 H         1 UNK         0.0000 
     40 H40        -2.8711   49.5378   26.8570 H         1 UNK         0.0000 
     41 H41        -0.4324   48.9431   26.1447 H         1 UNK         0.0000 
     42 H42         1.3220   49.4918   24.4837 H         1 UNK         0.0000 
     43 H43        -2.0917   52.8606   25.5340 H         1 UNK         0.0000 
     44 H44         2.1466   50.9772   22.9271 H         1 UNK         0.0000 
     45 H45         4.1609   51.4709   19.0419 H         1 UNK         0.0000 
     46 H46         6.7042   53.3433   22.4817 H         1 UNK         0.0000 
     47 H47         7.9044   53.5184   24.4816 H         1 UNK         0.0000 
     48 H48         4.3607   54.8657   26.5281 H         1 UNK         0.0000 
     49 H49         3.1764   54.8341   24.4319 H         1 UNK         0.0000 
     50 H50         7.0874   54.0966   28.8867 H         1 UNK         0.0000 
     51 H51         5.9036   55.2495   28.2600 H         1 UNK         0.0000 
     52 H52         5.5895   53.5006   28.1940 H         1 UNK         0.0000 
     53 H53         7.7559   54.7941   19.3896 H         1 UNK         0.0000 
     54 H54         7.1661   56.4020   19.0234 H         1 UNK         0.0000 
     55 H55         6.5881   52.6077   18.3592 H         1 UNK         0.0000 
     56 H56         5.1012   52.9699   17.5007 H         1 UNK         0.0000 
     57 H57         3.0658   54.5694   17.4645 H         1 UNK         0.0000 
     58 H58         2.0973   56.9233   16.5916 H         1 UNK         0.0000 
     59 H59         4.3039   58.6066   16.5086 H         1 UNK         0.0000 
     60 H60         2.4480   50.0279   20.5937 H         1 UNK         0.0000 
     61 H61         1.0834   51.1423   20.7681 H         1 UNK         0.0000 
     62 H62         1.8721   50.9791   19.2268 H         1 UNK         0.0000 
@<TRIPOS>BOND
     1    1    2 1    
     2    1   38 1    
     3    1   39 1    
     4    1   40 1    
     5    2    7 ar   
     6    2    3 ar   
     7    3    4 ar   
     8    3   41 1    
     9    4    5 ar   
    10    4   42 1    
    11    5    6 ar   
    12    5    8 1    
    13    6    7 ar   
    14    7   43 1    
    15    8    9 am   BACKBONE|DICT|INTERRES
    16    8   44 1    
    17    9   10 2    
    18    9   11 1    
    19   11   16 1    
    20   11   12 2    
    21   12   13 1    
    22   12   37 1    
    23   13   14 1    
    24   13   45 1    
    25   14   31 1    
    26   14   15 2    
    27   15   16 1    
    28   15   26 1    
    29   16   17 1    
    30   16   18 1    
    31   18   23 ar   
    32   18   19 ar   
    33   19   20 ar   
    34   19   46 1    
    35   20   21 ar   
    36   20   47 1    
    37   21   22 ar   
    38   21   24 1    
    39   22   23 ar   
    40   22   48 1    
    41   23   49 1    
    42   24   25 1    
    43   25   50 1    
    44   25   51 1    
    45   25   52 1    
    46   26   27 2    
    47   26   28 1    
    48   28   29 1    
    49   28   53 1    
    50   28   54 1    
    51   29   30 1    
    52   29   31 1    
    53   29   32 1    
    54   31   55 1    
    55   31   56 1    
    56   32   36 1    
    57   32   33 2    
    58   33   34 1    
    59   33   57 1    
    60   34   35 2    
    61   34   58 1    
    62   35   36 1    
    63   35   59 1    
    64   37   60 1    
    65   37   61 1    
    66   37   62 1    
@<TRIPOS>SUBSTRUCTURE
     1 UNK         1 GROUP             0       ****    0 ROOT    
