@<TRIPOS>MOLECULE
ZINC54107659_6172
36   38    1
SMALL
USER_CHARGES


@<TRIPOS>ATOM
      1 C1          0.3983   51.3243   27.6424 C.ar      1 UNK         0.0000 
      2 C2         -0.7159   50.8967   26.9239 C.ar      1 UNK         0.0000 
      3 C3         -0.9966   51.4123   25.6638 C.ar      1 UNK         0.0000 
      4 C4         -0.1238   52.3437   25.0725 C.ar      1 UNK         0.0000 
      5 C5          0.9982   52.7578   25.7965 C.ar      1 UNK         0.0000 
      6 C6          1.2597   52.2729   27.0790 C.ar      1 UNK         0.0000 
      7 N7          2.3894   52.8114   27.7054 N.am      1 UNK         0.0000 
      8 C8          2.9517   52.5583   28.9047 C.2       1 UNK         0.0000 
      9 O9          2.5790   51.6967   29.6952 O.2       1 UNK         0.0000 
     10 C10         4.1622   53.4453   29.2817 C.3       1 UNK         0.0000 
     11 H11         4.3043   53.3289   30.3566 H         1 UNK         0.0000 
     12 C12         5.4172   53.1413   28.4715 C.3       1 UNK         0.0000 
     13 C13         5.3445   54.0505   27.2440 C.3       1 UNK         0.0000 
     14 O14         4.2242   54.8967   27.4969 O.3       1 UNK         0.0000 
     15 C15         3.9194   54.8967   28.8932 C.3       1 UNK         0.0000 
     16 C16        -0.3970   52.8966   23.6858 C.3       1 UNK         0.0000 
     17 C17        -1.8659   52.6798   23.2817 C.3       1 UNK         0.0000 
     18 C18        -2.3317   51.2453   23.5839 C.3       1 UNK         0.0000 
     19 N19        -2.1500   50.9443   25.0038 N.pl3     1 UNK         0.0000 
     20 H20         0.5625   50.9100   28.6250 H         1 UNK         0.0000 
     21 H21        -1.3787   50.1587   27.3474 H         1 UNK         0.0000 
     22 H22         1.6647   53.4827   25.3498 H         1 UNK         0.0000 
     23 H23         2.8618   53.5362   27.1811 H         1 UNK         0.0000 
     24 H24         5.5040   52.0967   28.1952 H         1 UNK         0.0000 
     25 H25         6.3168   53.3769   29.0395 H         1 UNK         0.0000 
     26 H26         5.1803   53.4769   26.3306 H         1 UNK         0.0000 
     27 H27         6.2551   54.6425   27.1383 H         1 UNK         0.0000 
     28 H28         4.5699   55.5886   29.4281 H         1 UNK         0.0000 
     29 H29         2.9002   55.2512   29.0606 H         1 UNK         0.0000 
     30 H30        -0.1486   53.9588   23.6817 H         1 UNK         0.0000 
     31 H31         0.2608   52.4009   22.9704 H         1 UNK         0.0000 
     32 H32        -2.0027   52.8967   22.2226 H         1 UNK         0.0000 
     33 H33        -2.5039   53.3853   23.8174 H         1 UNK         0.0000 
     34 H34        -1.6994   50.5308   23.0540 H         1 UNK         0.0000 
     35 H35        -3.3628   51.0661   23.2773 H         1 UNK         0.0000 
     36 H36        -2.5580   50.0717   25.3098 H         1 UNK         0.0000 
@<TRIPOS>BOND
     1    1    6 ar   
     2    1    2 ar   
     3    1   20 1    
     4    2    3 ar   
     5    2   21 1    
     6    3   19 1    
     7    3    4 ar   
     8    4    5 ar   
     9    4   16 1    
    10    5    6 ar   
    11    5   22 1    
    12    6    7 1    
    13    7    8 am   BACKBONE|DICT|INTERRES
    14    7   23 1    
    15    8    9 2    
    16    8   10 1    
    17   10   11 1    
    18   10   15 1    
    19   10   12 1    
    20   12   13 1    
    21   12   24 1    
    22   12   25 1    
    23   13   14 1    
    24   13   26 1    
    25   13   27 1    
    26   14   15 1    
    27   15   28 1    
    28   15   29 1    
    29   16   17 1    
    30   16   30 1    
    31   16   31 1    
    32   17   18 1    
    33   17   32 1    
    34   17   33 1    
    35   18   19 1    
    36   18   34 1    
    37   18   35 1    
    38   19   36 1    
@<TRIPOS>SUBSTRUCTURE
     1 UNK         1 GROUP             0       ****    0 ROOT    
