@<TRIPOS>MOLECULE
ZINC22681508_726
65   68    1
SMALL
USER_CHARGES


@<TRIPOS>ATOM
      1 C1          6.3243   52.3546   12.4421 C.3       1 UNK         0.0000 
      2 C2          6.2564   52.9220   13.8723 C.3       1 UNK         0.0000 
      3 C3          6.9652   51.9963   14.8743 C.3       1 UNK         0.0000 
      4 C4          6.9975   52.6167   16.2836 C.3       1 UNK         0.0000 
      5 N5          5.5407   52.8967   16.7455 N.4       1 UNK         0.0000 
      6 C6          4.7467   53.7653   15.7275 C.3       1 UNK         0.0000 
      7 C7          4.7994   53.0880   14.3469 C.3       1 UNK         0.0000 
      8 C8          5.4969   53.3971   18.2215 C.3       1 UNK         0.0000 
      9 H9          6.1609   52.6824   18.7130 H         1 UNK         0.0000 
     10 C10         4.0876   53.1500   18.8280 C.3       1 UNK         0.0000 
     11 N11         3.9043   53.7356   20.1570 N.am      1 UNK         0.0000 
     12 C12         4.2943   53.1810   21.3154 C.2       1 UNK         0.0000 
     13 O13         4.7915   52.0560   21.3815 O.2       1 UNK         0.0000 
     14 C14         4.1197   54.0492   22.5810 C.3       1 UNK         0.0000 
     15 C15         2.8924   53.5860   23.3975 C.3       1 UNK         0.0000 
     16 C16         2.7537   54.4963   24.6408 C.3       1 UNK         0.0000 
     17 N17         3.9848   54.3537   25.4527 N.am      1 UNK         0.0000 
     18 C18         5.2521   54.7371   24.7774 C.3       1 UNK         0.0000 
     19 C19         5.3851   53.9313   23.4640 C.3       1 UNK         0.0000 
     20 C20         4.0040   54.0966   26.7946 C.2       1 UNK         0.0000 
     21 O21         5.0411   54.1737   27.4581 O.2       1 UNK         0.0000 
     22 C22         2.7398   53.6987   27.5319 C.ar      1 UNK         0.0000 
     23 C23         1.9051   52.6765   27.0513 C.ar      1 UNK         0.0000 
     24 C24         0.8010   52.2502   27.7887 C.ar      1 UNK         0.0000 
     25 C25         0.5118   52.8454   29.0121 C.ar      1 UNK         0.0000 
     26 C26         1.3083   53.8802   29.4899 C.ar      1 UNK         0.0000 
     27 C27         2.4190   54.3034   28.7627 C.ar      1 UNK         0.0000 
     28 F28         3.1775   55.2973   29.2803 F         1 UNK         0.0000 
     29 F29        -0.5301   52.4082   29.7459 F         1 UNK         0.0000 
     30 C30         6.0499   54.8197   18.3376 C.2       1 UNK         0.0000 
     31 C31         7.3426   55.2171   18.6857 C.2       1 UNK         0.0000 
     32 C32         7.5471   56.5997   18.6974 C.2       1 UNK         0.0000 
     33 C33         6.4002   57.3066   18.3856 C.2       1 UNK         0.0000 
     34 S34         5.0679   56.2464   18.0835 S.3       1 UNK         0.0000 
     35 H35         5.8568   51.3714   12.3756 H         1 UNK         0.0000 
     36 H36         7.3595   52.2491   12.1130 H         1 UNK         0.0000 
     37 H37         5.8273   53.0121   11.7293 H         1 UNK         0.0000 
     38 H38         6.7461   53.8993   13.8827 H         1 UNK         0.0000 
     39 H39         6.4824   51.0189   14.8829 H         1 UNK         0.0000 
     40 H40         7.9846   51.7952   14.5383 H         1 UNK         0.0000 
     41 H41         7.5537   53.5549   16.3233 H         1 UNK         0.0000 
     42 H42         7.4171   51.8969   16.9903 H         1 UNK         0.0000 
     43 H43         5.1923   54.7605   15.7105 H         1 UNK         0.0000 
     44 H44         3.7141   53.8170   16.0671 H         1 UNK         0.0000 
     45 H45         4.2471   53.6912   13.6257 H         1 UNK         0.0000 
     46 H46         4.2806   52.1263   14.3541 H         1 UNK         0.0000 
     47 H47         3.3055   53.5600   18.1918 H         1 UNK         0.0000 
     48 H48         3.8948   52.0757   18.8694 H         1 UNK         0.0000 
     49 H49         3.3306   54.5668   20.1950 H         1 UNK         0.0000 
     50 H50         3.9738   55.0725   22.2338 H         1 UNK         0.0000 
     51 H51         1.9722   53.7174   22.8257 H         1 UNK         0.0000 
     52 H52         2.9797   52.5600   23.7572 H         1 UNK         0.0000 
     53 H53         2.7047   55.5323   24.3118 H         1 UNK         0.0000 
     54 H54         1.8259   54.3071   25.1768 H         1 UNK         0.0000 
     55 H55         5.2276   55.8025   24.5603 H         1 UNK         0.0000 
     56 H56         6.1347   54.5171   25.3815 H         1 UNK         0.0000 
     57 H57         5.5578   52.8985   23.7648 H         1 UNK         0.0000 
     58 H58         6.2616   54.3309   22.9509 H         1 UNK         0.0000 
     59 H59         2.1276   52.1766   26.1202 H         1 UNK         0.0000 
     60 H60         0.1827   51.4423   27.4273 H         1 UNK         0.0000 
     61 H61         1.0728   54.3412   30.4371 H         1 UNK         0.0000 
     62 H62         8.1288   54.5109   18.9103 H         1 UNK         0.0000 
     63 H63         8.4995   57.0597   18.9215 H         1 UNK         0.0000 
     64 H64         6.2716   58.3790   18.3123 H         1 UNK         0.0000 
     65 H65         5.1030   51.9794   16.7715 H         1 UNK         0.0000 
@<TRIPOS>BOND
     1    1    2 1    
     2    1   35 1    
     3    1   36 1    
     4    1   37 1    
     5    2    7 1    
     6    2    3 1    
     7    2   38 1    
     8    3    4 1    
     9    3   39 1    
    10    3   40 1    
    11    4    5 1    
    12    4   41 1    
    13    4   42 1    
    14    5    6 1    
    15    5    8 1    
    16    5   65 1    
    17    6    7 1    
    18    6   43 1    
    19    6   44 1    
    20    7   45 1    
    21    7   46 1    
    22    8    9 1    
    23    8   10 1    
    24    8   30 1    
    25   10   11 1    
    26   10   47 1    
    27   10   48 1    
    28   11   12 am   BACKBONE|DICT|INTERRES
    29   11   49 1    
    30   12   13 2    
    31   12   14 1    
    32   14   19 1    
    33   14   15 1    
    34   14   50 1    
    35   15   16 1    
    36   15   51 1    
    37   15   52 1    
    38   16   17 1    
    39   16   53 1    
    40   16   54 1    
    41   17   18 1    
    42   17   20 am   BACKBONE|DICT|INTERRES
    43   18   19 1    
    44   18   55 1    
    45   18   56 1    
    46   19   57 1    
    47   19   58 1    
    48   20   21 2    
    49   20   22 1    
    50   22   27 ar   
    51   22   23 ar   
    52   23   24 ar   
    53   23   59 1    
    54   24   25 ar   
    55   24   60 1    
    56   25   26 ar   
    57   25   29 1    
    58   26   27 ar   
    59   26   61 1    
    60   27   28 1    
    61   30   34 1    
    62   30   31 2    
    63   31   32 1    
    64   31   62 1    
    65   32   33 2    
    66   32   63 1    
    67   33   34 1    
    68   33   64 1    
@<TRIPOS>SUBSTRUCTURE
     1 UNK         1 GROUP             0       ****    0 ROOT    
