ZINC40940475_3281
                    3D
 Schrodinger Suite 2024-2.
 38 40  0  0  1  0            999 V2000
   -3.9260   50.4961   29.4425 C   0  0  0  0  0  0
   -4.8987   50.0435   30.3279 C   0  0  0  0  0  0
   -6.2359   50.0493   29.9426 C   0  0  0  0  0  0
   -6.6054   50.5048   28.6791 C   0  0  0  0  0  0
   -5.6312   50.9626   27.7935 C   0  0  0  0  0  0
   -4.2801   50.9538   28.1654 C   0  0  0  0  0  0
   -3.2320   51.5003   27.2280 C   0  0  0  0  0  0
   -3.4984   52.4480   26.4815 O   0  0  0  0  0  0
   -2.0208   50.8967   27.2837 N   0  0  0  0  0  0
   -0.9028   51.4688   26.6368 N   0  0  0  0  0  0
   -0.0677   52.2225   27.4011 C   0  0  0  0  0  0
   -0.2471   52.4907   28.5955 O   0  0  0  0  0  0
    1.0676   52.6520   26.6079 C   0  0  0  0  0  0
    2.0864   53.3373   27.1889 C   0  0  0  0  0  0
    3.3629   53.8309   26.6143 C   0  0  0  0  0  0
    4.3985   54.1325   27.5036 C   0  0  0  0  0  0
    5.6369   54.5568   27.0360 C   0  0  0  0  0  0
    5.8703   54.6708   25.6698 C   0  0  0  0  0  0
    4.8641   54.3473   24.7422 C   0  0  0  0  0  0
    3.6059   53.9680   25.2409 C   0  0  0  0  0  0
    5.0991   54.3678   23.2735 N   0  3  0  0  0  0
    4.1622   54.0965   22.5285 O   0  0  0  0  0  0
    6.2178   54.6435   22.8469 O   0  5  0  0  0  0
    7.1044   55.1122   25.2816 O   0  0  0  0  0  0
    0.8601   52.0923   24.9417 S   0  0  0  0  0  0
   -0.5921   51.2163   25.3311 C   0  0  0  0  0  0
   -1.3530   50.2790   24.1788 S   0  0  0  0  0  0
   -7.5666   49.4365   31.1565 Br  0  0  0  0  0  0
   -2.8956   50.4965   29.7704 H   0  0  0  0  0  0
   -4.6100   49.6963   31.3095 H   0  0  0  0  0  0
   -7.6463   50.5090   28.3870 H   0  0  0  0  0  0
   -5.9319   51.3220   26.8190 H   0  0  0  0  0  0
   -1.8252   49.9966   27.7223 H   0  0  0  0  0  0
    1.9799   53.5722   28.2408 H   0  0  0  0  0  0
    4.2574   54.0339   28.5699 H   0  0  0  0  0  0
    6.4217   54.7973   27.7393 H   0  0  0  0  0  0
    2.8210   53.7613   24.5342 H   0  0  0  0  0  0
    7.2083   55.1042   24.3214 H   0  0  0  0  0  0
  1  6  2  0  0  0
  1  2  1  0  0  0
  1 29  1  0  0  0
  2  3  2  0  0  0
  2 30  1  0  0  0
  3  4  1  0  0  0
  3 28  1  0  0  0
  4  5  2  0  0  0
  4 31  1  0  0  0
  5  6  1  0  0  0
  5 32  1  0  0  0
  6  7  1  0  0  0
  7  8  2  0  0  0
  7  9  1  0  0  0
  9 10  1  0  0  0
  9 33  1  0  0  0
 10 26  1  0  0  0
 10 11  1  0  0  0
 11 12  2  0  0  0
 11 13  1  0  0  0
 13 14  2  0  0  0
 13 25  1  0  0  0
 14 15  1  0  0  0
 14 34  1  0  0  0
 15 20  2  0  0  0
 15 16  1  0  0  0
 16 17  2  0  0  0
 16 35  1  0  0  0
 17 18  1  0  0  0
 17 36  1  0  0  0
 18 19  2  0  0  0
 18 24  1  0  0  0
 19 20  1  0  0  0
 19 21  1  0  0  0
 20 37  1  0  0  0
 21 22  2  0  0  0
 21 23  1  0  0  0
 24 38  1  0  0  0
 25 26  1  0  0  0
 26 27  2  0  0  0
M  CHG  2  21   1  23  -1
M  END
> <i_i_glide_confnum>
21

> <i_i_glide_lignum>
3282

> <i_i_glide_posenum>
385

> <i_i_glide_rotatable_bonds>
6

> <i_m_Source_File_Index>
284

> <b_m_subgroup_collapsed>
0

> <r_i_docking_score>
-5.87806

> <r_i_glide_ecoul>
-7.10197

> <r_i_glide_eff_state_penalty>
0

> <r_i_glide_einternal>
3.44231

> <r_i_glide_emodel>
-62.9366

> <r_i_glide_energy>
-46.5002

> <r_i_glide_erotb>
0.35159

> <r_i_glide_esite>
-0.209935

> <r_i_glide_evdw>
-39.3982

> <r_i_glide_gscore>
-5.87806

> <r_i_glide_hbond>
-0.152

> <r_i_glide_ligand_efficiency>
-0.209931

> <r_i_glide_ligand_efficiency_ln>
-1.35683

> <r_i_glide_ligand_efficiency_sa>
-0.637473

> <r_i_glide_lipo>
-1.96261

> <r_i_glide_metal>
0

> <r_i_glide_rewards>
-0.869893

> <s_i_glide_gridfile>
wee1_glide-grid

> <s_m_Source_File>
wee1_decoys_glide_SP.sdf

> <s_m_Source_Path>
/Users/zhangxujun/Desktop

> <s_m_entry_id>
559

> <s_m_entry_name>
wee1_decoys_glide_SP.284

> <s_m_subgroup_title>
wee1_decoys_glide_SP

> <s_m_subgroupid>
wee1_decoys_glide_SP


$$$$
