@<TRIPOS>MOLECULE
ZINC09763519_6032
69   73    1
SMALL
USER_CHARGES


@<TRIPOS>ATOM
      1 C1         -6.0620   51.2940   28.4729 C.ar      1 UNK         0.0000 
      2 C2         -4.9565   50.7200   29.0978 C.ar      1 UNK         0.0000 
      3 C3         -3.7475   50.6331   28.4137 C.ar      1 UNK         0.0000 
      4 C4         -3.6455   51.1206   27.1072 C.ar      1 UNK         0.0000 
      5 C5         -4.7589   51.6922   26.4850 C.ar      1 UNK         0.0000 
      6 C6         -5.9689   51.7791   27.1695 C.ar      1 UNK         0.0000 
      7 C7         -2.3150   51.0493   26.3717 C.3       1 UNK         0.0000 
      8 C8         -1.6526   52.4369   26.2950 C.3       1 UNK         0.0000 
      9 N9         -0.2550   52.4089   25.8159 N.am      1 UNK         0.0000 
     10 C10         0.7440   51.9474   26.8058 C.3       1 UNK         0.0000 
     11 C11         0.6551   52.6091   28.1740 C.ar      1 UNK         0.0000 
     12 C12         0.0621   51.9109   29.2252 C.ar      1 UNK         0.0000 
     13 C13        -0.0261   52.4967   30.4809 C.ar      1 UNK         0.0000 
     14 C14         0.4849   53.7753   30.6900 C.ar      1 UNK         0.0000 
     15 C15         1.0956   54.4724   29.6488 C.ar      1 UNK         0.0000 
     16 C16         1.1821   53.8869   28.3875 C.ar      1 UNK         0.0000 
     17 C17         0.0279   52.6205   24.5003 C.2       1 UNK         0.0000 
     18 O18        -0.8576   52.8967   23.6823 O.2       1 UNK         0.0000 
     19 C19         1.5126   52.5811   24.0250 C.3       1 UNK         0.0000 
     20 H20         2.0321   51.7244   24.4549 H         1 UNK         0.0000 
     21 C21         2.1581   53.9427   24.3491 C.3       1 UNK         0.0000 
     22 C22         3.5901   53.9739   23.8666 C.ar      1 UNK         0.0000 
     23 C23         4.6170   54.4967   24.6624 C.ar      1 UNK         0.0000 
     24 C24         5.9265   54.5603   24.1928 C.ar      1 UNK         0.0000 
     25 C25         6.2213   54.1011   22.9147 C.ar      1 UNK         0.0000 
     26 C26         5.2108   53.5498   22.1305 C.ar      1 UNK         0.0000 
     27 C27         3.8938   53.4564   22.5956 C.ar      1 UNK         0.0000 
     28 C28         2.8541   52.7267   21.7428 C.3       1 UNK         0.0000 
     29 C29         1.0275   50.9472   22.1055 C.3       1 UNK         0.0000 
     30 C30         1.1427   50.6065   20.6323 C.ar      1 UNK         0.0000 
     31 C31         0.3710   51.2868   19.6859 C.ar      1 UNK         0.0000 
     32 C32         0.5987   51.0696   18.3291 C.ar      1 UNK         0.0000 
     33 C33         1.5896   50.1747   17.9328 C.ar      1 UNK         0.0000 
     34 C34         2.3044   49.4444   18.8808 C.ar      1 UNK         0.0000 
     35 C35         2.0808   49.6549   20.2319 C.ar      1 UNK         0.0000 
     36 O36         1.9044   50.0472   16.6054 O.3       1 UNK         0.0000 
     37 H37        -7.0021   51.3556   29.0011 H         1 UNK         0.0000 
     38 H38        -5.0333   50.3358   30.1050 H         1 UNK         0.0000 
     39 H39        -2.8955   50.1768   28.9002 H         1 UNK         0.0000 
     40 H40        -4.6867   52.0701   25.4755 H         1 UNK         0.0000 
     41 H41        -6.8321   52.2177   26.6908 H         1 UNK         0.0000 
     42 H42        -2.4873   50.6520   25.3705 H         1 UNK         0.0000 
     43 H43        -1.6685   50.3327   26.8817 H         1 UNK         0.0000 
     44 H44        -1.6691   52.8963   27.2813 H         1 UNK         0.0000 
     45 H45        -2.2516   53.0747   25.6426 H         1 UNK         0.0000 
     46 H46         0.6360   50.8675   26.9234 H         1 UNK         0.0000 
     47 H47         1.7701   52.0968   26.4772 H         1 UNK         0.0000 
     48 H48        -0.3437   50.9201   29.0712 H         1 UNK         0.0000 
     49 H49        -0.4954   51.9500   31.2817 H         1 UNK         0.0000 
     50 H50         0.4050   54.2251   31.6694 H         1 UNK         0.0000 
     51 H51         1.4904   55.4640   29.8163 H         1 UNK         0.0000 
     52 H52         1.6492   54.4333   27.5834 H         1 UNK         0.0000 
     53 H53         2.1253   54.1393   25.4195 H         1 UNK         0.0000 
     54 H54         1.6125   54.7577   23.8673 H         1 UNK         0.0000 
     55 H55         4.3965   54.8759   25.6495 H         1 UNK         0.0000 
     56 H56         6.7080   54.9772   24.8108 H         1 UNK         0.0000 
     57 H57         7.2333   54.1609   22.5397 H         1 UNK         0.0000 
     58 H58         5.4610   53.1680   21.1506 H         1 UNK         0.0000 
     59 H59         3.3054   51.7879   21.4205 H         1 UNK         0.0000 
     60 H60         2.5688   53.2971   20.8575 H         1 UNK         0.0000 
     61 H61        -0.0127   50.8639   22.4218 H         1 UNK         0.0000 
     62 H62         1.6222   50.2651   22.7183 H         1 UNK         0.0000 
     63 H63        -0.3608   52.0186   19.9952 H         1 UNK         0.0000 
     64 H64         0.0468   51.6259   17.5862 H         1 UNK         0.0000 
     65 H65         3.0734   48.7533   18.5648 H         1 UNK         0.0000 
     66 H66         2.6804   49.1186   20.9542 H         1 UNK         0.0000 
     67 H67         2.8254   49.6968   16.4857 H         1 UNK         0.0000 
     68 N68         1.5162   52.3817   22.4798 N.4       1 UNK         0.0000 
     69 H69         0.8252   53.0243   22.1149 H         1 UNK         0.0000 
@<TRIPOS>BOND
     1    1    6 ar   
     2    1    2 ar   
     3    1   37 1    
     4    2    3 ar   
     5    2   38 1    
     6    3    4 ar   
     7    3   39 1    
     8    4    5 ar   
     9    4    7 1    
    10    5    6 ar   
    11    5   40 1    
    12    6   41 1    
    13    7    8 1    
    14    7   42 1    
    15    7   43 1    
    16    8    9 1    
    17    8   44 1    
    18    8   45 1    
    19    9   10 1    
    20    9   17 am   BACKBONE|DICT|INTERRES
    21   10   11 1    
    22   10   46 1    
    23   10   47 1    
    24   11   16 ar   
    25   11   12 ar   
    26   12   13 ar   
    27   12   48 1    
    28   13   14 ar   
    29   13   49 1    
    30   14   15 ar   
    31   14   50 1    
    32   15   16 ar   
    33   15   51 1    
    34   16   52 1    
    35   17   18 2    
    36   17   19 1    
    37   19   20 1    
    38   19   21 1    
    39   19   68 1    
    40   21   22 1    
    41   21   53 1    
    42   21   54 1    
    43   22   27 ar   
    44   22   23 ar   
    45   23   24 ar   
    46   23   55 1    
    47   24   25 ar   
    48   24   56 1    
    49   25   26 ar   
    50   25   57 1    
    51   26   27 ar   
    52   26   58 1    
    53   27   28 1    
    54   28   59 1    
    55   28   60 1    
    56   28   68 1    
    57   29   30 1    
    58   29   61 1    
    59   29   62 1    
    60   29   68 1    
    61   30   35 ar   
    62   30   31 ar   
    63   31   32 ar   
    64   31   63 1    
    65   32   33 ar   
    66   32   64 1    
    67   33   34 ar   
    68   33   36 1    
    69   34   35 ar   
    70   34   65 1    
    71   35   66 1    
    72   36   67 1    
    73   68   69 1    
@<TRIPOS>SUBSTRUCTURE
     1 UNK         1 GROUP             0       ****    0 ROOT    
