@<TRIPOS>MOLECULE
ZINC02236928_1367
54   57    1
SMALL
USER_CHARGES


@<TRIPOS>ATOM
      1 C1          0.4536   54.4321   30.0954 C.3       1 UNK         0.0000 
      2 C2          0.8188   52.9492   29.9470 C.3       1 UNK         0.0000 
      3 H3          0.0281   52.4171   29.4151 H         1 UNK         0.0000 
      4 C4          2.1821   52.7150   29.2533 C.3       1 UNK         0.0000 
      5 N5          2.3787   53.2643   27.8857 N.pl3     1 UNK         0.0000 
      6 C6          1.2647   53.2680   26.9194 C.3       1 UNK         0.0000 
      7 C7          1.0405   51.9864   26.0872 C.3       1 UNK         0.0000 
      8 H8          1.9042   51.7903   25.4547 H         1 UNK         0.0000 
      9 C9          0.6971   50.7401   26.9146 C.3       1 UNK         0.0000 
     10 O10        -0.0431   52.2231   25.2134 O.3       1 UNK         0.0000 
     11 C11         3.6969   53.6264   27.4747 C.ar      1 UNK         0.0000 
     12 C12         4.1005   53.9119   26.1412 C.ar      1 UNK         0.0000 
     13 C13         5.4396   54.3128   25.8815 C.ar      1 UNK         0.0000 
     14 C14         5.5453   54.4954   24.5086 C.ar      1 UNK         0.0000 
     15 C15         6.5581   54.8977   23.6415 C.ar      1 UNK         0.0000 
     16 C16         6.3109   54.8937   22.2648 C.ar      1 UNK         0.0000 
     17 C17         5.0606   54.4314   21.8041 C.ar      1 UNK         0.0000 
     18 N18         4.0258   54.1054   22.6442 N.ar      1 UNK         0.0000 
     19 C19         4.3080   54.1451   23.9491 C.ar      1 UNK         0.0000 
     20 O20         3.4090   53.8246   24.9452 O.3       1 UNK         0.0000 
     21 C21         4.8346   54.2667   20.3022 C.3       1 UNK         0.0000 
     22 C22         5.8306   55.0646   19.4082 C.3       1 UNK         0.0000 
     23 O23         7.1431   54.8969   19.9462 O.3       1 UNK         0.0000 
     24 C24         7.3900   55.3346   21.2812 C.3       1 UNK         0.0000 
     25 C25         5.5049   56.5678   19.3292 C.3       1 UNK         0.0000 
     26 C26         5.8949   54.4031   18.0193 C.3       1 UNK         0.0000 
     27 N27         6.3601   54.4273   26.8436 N.ar      1 UNK         0.0000 
     28 C28         5.9212   54.0921   28.0826 C.ar      1 UNK         0.0000 
     29 N29         4.6680   53.7120   28.4356 N.ar      1 UNK         0.0000 
     30 O30         0.9079   52.4150   31.2538 O.3       1 UNK         0.0000 
     31 H31         0.3652   54.8986   29.1186 H         1 UNK         0.0000 
     32 H32         1.2128   54.9848   30.6509 H         1 UNK         0.0000 
     33 H33        -0.4946   54.5611   30.6136 H         1 UNK         0.0000 
     34 H34         2.9283   53.1202   29.9361 H         1 UNK         0.0000 
     35 H35         2.3859   51.6465   29.2231 H         1 UNK         0.0000 
     36 H36         0.3372   53.5152   27.4302 H         1 UNK         0.0000 
     37 H37         1.4149   54.0967   26.2302 H         1 UNK         0.0000 
     38 H38         1.5072   50.4927   27.5964 H         1 UNK         0.0000 
     39 H39        -0.2005   50.8826   27.5166 H         1 UNK         0.0000 
     40 H40         0.5322   49.8663   26.2833 H         1 UNK         0.0000 
     41 H41        -0.2494   51.4016   24.7582 H         1 UNK         0.0000 
     42 H42         7.5027   55.2179   24.0422 H         1 UNK         0.0000 
     43 H43         4.9691   53.1999   20.1123 H         1 UNK         0.0000 
     44 H44         3.8007   54.4900   20.0370 H         1 UNK         0.0000 
     45 H45         7.4592   56.4230   21.2857 H         1 UNK         0.0000 
     46 H46         8.3691   54.9674   21.5932 H         1 UNK         0.0000 
     47 H47         4.5260   56.7354   18.8791 H         1 UNK         0.0000 
     48 H48         5.5045   57.0319   20.3126 H         1 UNK         0.0000 
     49 H49         6.2383   57.0950   18.7198 H         1 UNK         0.0000 
     50 H50         4.9252   54.4259   17.5193 H         1 UNK         0.0000 
     51 H51         6.6141   54.9108   17.3769 H         1 UNK         0.0000 
     52 H52         6.2097   53.3588   18.0873 H         1 UNK         0.0000 
     53 H53         6.6608   54.0969   28.8716 H         1 UNK         0.0000 
     54 H54         0.0331   52.3875   31.6588 H         1 UNK         0.0000 
@<TRIPOS>BOND
     1    1    2 1    
     2    1   31 1    
     3    1   32 1    
     4    1   33 1    
     5    2    3 1    
     6    2    4 1    
     7    2   30 1    
     8    4    5 1    
     9    4   34 1    
    10    4   35 1    
    11    5    6 1    
    12    5   11 1    
    13    6    7 1    
    14    6   36 1    
    15    6   37 1    
    16    7    8 1    
    17    7    9 1    
    18    7   10 1    
    19    9   38 1    
    20    9   39 1    
    21    9   40 1    
    22   10   41 1    
    23   11   29 ar   
    24   11   12 ar   
    25   12   20 1    
    26   12   13 ar   
    27   13   14 1    
    28   13   27 ar   
    29   14   19 ar   
    30   14   15 ar   
    31   15   16 ar   
    32   15   42 1    
    33   16   24 1    
    34   16   17 ar   
    35   17   18 ar   
    36   17   21 1    
    37   18   19 ar   
    38   19   20 1    
    39   21   22 1    
    40   21   43 1    
    41   21   44 1    
    42   22   23 1    
    43   22   25 1    
    44   22   26 1    
    45   23   24 1    
    46   24   45 1    
    47   24   46 1    
    48   25   47 1    
    49   25   48 1    
    50   25   49 1    
    51   26   50 1    
    52   26   51 1    
    53   26   52 1    
    54   27   28 ar   
    55   28   29 ar   
    56   28   53 1    
    57   30   54 1    
@<TRIPOS>SUBSTRUCTURE
     1 UNK         1 GROUP             0       ****    0 ROOT    
