@<TRIPOS>MOLECULE
ZINC39609213_3663
68   71    1
SMALL
USER_CHARGES


@<TRIPOS>ATOM
      1 C1          3.6296   54.1013   28.2890 C.3       1 UNK         0.0000 
      2 C2          4.0870   54.0940   26.8370 C.ar      1 UNK         0.0000 
      3 C3          3.1284   54.0966   25.8213 C.ar      1 UNK         0.0000 
      4 C4          3.5129   54.1029   24.4822 C.ar      1 UNK         0.0000 
      5 C5          4.8708   54.0968   24.1314 C.ar      1 UNK         0.0000 
      6 C6          5.8259   54.1018   25.1515 C.ar      1 UNK         0.0000 
      7 C7          5.4495   54.0956   26.4979 C.ar      1 UNK         0.0000 
      8 C8          6.5316   54.0416   27.5642 C.3       1 UNK         0.0000 
      9 C9          5.3729   54.0491   22.6833 C.3       1 UNK         0.0000 
     10 C10         4.3353   54.0668   21.5341 C.3       1 UNK         0.0000 
     11 N11         3.3620   52.9790   21.5582 N.am      1 UNK         0.0000 
     12 C12         3.6014   51.6876   21.2678 C.2       1 UNK         0.0000 
     13 O13         4.7044   51.2988   20.8910 O.2       1 UNK         0.0000 
     14 C14         2.4658   50.6374   21.4578 C.3       1 UNK         0.0000 
     15 H15         2.8869   49.8188   22.0453 H         1 UNK         0.0000 
     16 C16         1.3435   51.2256   22.3379 C.3       1 UNK         0.0000 
     17 N17         0.1904   50.3953   22.0084 N.am      1 UNK         0.0000 
     18 C18         0.3483   49.7182   20.7197 C.3       1 UNK         0.0000 
     19 C19         1.7408   50.1403   20.1701 C.3       1 UNK         0.0000 
     20 C20         1.6152   51.2452   19.0716 C.3       1 UNK         0.0000 
     21 C21         0.8375   50.7651   17.8244 C.3       1 UNK         0.0000 
     22 N22         1.5043   49.4819   17.2724 N.4       1 UNK         0.0000 
     23 C23         1.7203   48.3729   18.3238 C.3       1 UNK         0.0000 
     24 C24         2.5166   48.9879   19.4897 C.3       1 UNK         0.0000 
     25 C25        -0.8311   50.1166   22.8565 C.2       1 UNK         0.0000 
     26 O26        -1.8050   49.4359   22.5356 O.2       1 UNK         0.0000 
     27 C27        -0.7058   50.6175   24.2709 C.ar      1 UNK         0.0000 
     28 C28        -1.3610   51.7820   24.6873 C.ar      1 UNK         0.0000 
     29 C29        -1.1902   52.2512   25.9929 C.ar      1 UNK         0.0000 
     30 C30        -0.3631   51.5722   26.8975 C.ar      1 UNK         0.0000 
     31 C31         0.2630   50.3959   26.4797 C.ar      1 UNK         0.0000 
     32 C32         0.0841   49.9126   25.1877 C.ar      1 UNK         0.0000 
     33 F33         0.7041   48.7685   24.8260 F         1 UNK         0.0000 
     34 C34        -0.1188   52.1136   28.3073 C.3       1 UNK         0.0000 
     35 F35         1.0493   51.6947   28.7993 F         1 UNK         0.0000 
     36 F36        -0.0952   53.4474   28.3109 F         1 UNK         0.0000 
     37 F37        -1.0929   51.6972   29.1144 F         1 UNK         0.0000 
     38 H38         3.8566   53.1454   28.7615 H         1 UNK         0.0000 
     39 H39         4.1515   54.8809   28.8465 H         1 UNK         0.0000 
     40 H40         2.5616   54.2951   28.3854 H         1 UNK         0.0000 
     41 H41         2.0762   54.0949   26.0678 H         1 UNK         0.0000 
     42 H42         2.7381   54.1175   23.7336 H         1 UNK         0.0000 
     43 H43         6.8738   54.0842   24.8890 H         1 UNK         0.0000 
     44 H44         7.5050   53.7952   27.1442 H         1 UNK         0.0000 
     45 H45         6.5978   54.9961   28.0816 H         1 UNK         0.0000 
     46 H46         6.3057   53.2731   28.3033 H         1 UNK         0.0000 
     47 H47         6.0628   54.8813   22.5344 H         1 UNK         0.0000 
     48 H48         5.9837   53.1519   22.5753 H         1 UNK         0.0000 
     49 H49         3.7200   54.9547   21.6638 H         1 UNK         0.0000 
     50 H50         4.8130   54.1662   20.5577 H         1 UNK         0.0000 
     51 H51         2.4171   53.2505   21.7803 H         1 UNK         0.0000 
     52 H52         1.6435   51.2238   23.3867 H         1 UNK         0.0000 
     53 H53         1.0690   52.2224   21.9954 H         1 UNK         0.0000 
     54 H54        -0.4807   49.8281   20.0200 H         1 UNK         0.0000 
     55 H55         0.4208   48.6574   20.9682 H         1 UNK         0.0000 
     56 H56         1.1043   52.1175   19.4811 H         1 UNK         0.0000 
     57 H57         2.5976   51.6055   18.7567 H         1 UNK         0.0000 
     58 H58        -0.2058   50.5161   18.0198 H         1 UNK         0.0000 
     59 H59         0.8748   51.4975   17.0157 H         1 UNK         0.0000 
     60 H60         0.9900   49.1203   16.4809 H         1 UNK         0.0000 
     61 H61         0.7382   47.9913   18.6049 H         1 UNK         0.0000 
     62 H62         2.2859   47.5906   17.8149 H         1 UNK         0.0000 
     63 H63         3.5040   49.3164   19.1641 H         1 UNK         0.0000 
     64 H64         2.7037   48.1930   20.2138 H         1 UNK         0.0000 
     65 H65        -1.9946   52.3313   24.0052 H         1 UNK         0.0000 
     66 H66        -1.6992   53.1541   26.2989 H         1 UNK         0.0000 
     67 H67         0.8889   49.8401   27.1602 H         1 UNK         0.0000 
     68 H68         2.4421   49.6971   16.9231 H         1 UNK         0.0000 
@<TRIPOS>BOND
     1    1    2 1    
     2    1   38 1    
     3    1   39 1    
     4    1   40 1    
     5    2    7 ar   
     6    2    3 ar   
     7    3    4 ar   
     8    3   41 1    
     9    4    5 ar   
    10    4   42 1    
    11    5    6 ar   
    12    5    9 1    
    13    6    7 ar   
    14    6   43 1    
    15    7    8 1    
    16    8   44 1    
    17    8   45 1    
    18    8   46 1    
    19    9   10 1    
    20    9   47 1    
    21    9   48 1    
    22   10   11 1    
    23   10   49 1    
    24   10   50 1    
    25   11   12 am   BACKBONE|DICT|INTERRES
    26   11   51 1    
    27   12   13 2    
    28   12   14 1    
    29   14   15 1    
    30   14   19 1    
    31   14   16 1    
    32   16   17 1    
    33   16   52 1    
    34   16   53 1    
    35   17   18 1    
    36   17   25 am   BACKBONE|DICT|INTERRES
    37   18   19 1    
    38   18   54 1    
    39   18   55 1    
    40   19   24 1    
    41   19   20 1    
    42   20   21 1    
    43   20   56 1    
    44   20   57 1    
    45   21   22 1    
    46   21   58 1    
    47   21   59 1    
    48   22   23 1    
    49   22   60 1    
    50   22   68 1    
    51   23   24 1    
    52   23   61 1    
    53   23   62 1    
    54   24   63 1    
    55   24   64 1    
    56   25   26 2    
    57   25   27 1    
    58   27   32 ar   
    59   27   28 ar   
    60   28   29 ar   
    61   28   65 1    
    62   29   30 ar   
    63   29   66 1    
    64   30   31 ar   
    65   30   34 1    
    66   31   32 ar   
    67   31   67 1    
    68   32   33 1    
    69   34   35 1    
    70   34   36 1    
    71   34   37 1    
@<TRIPOS>SUBSTRUCTURE
     1 UNK         1 GROUP             0       ****    0 ROOT    
