@<TRIPOS>MOLECULE
ZINC08861256_411
56   59    1
SMALL
USER_CHARGES


@<TRIPOS>ATOM
      1 C1          2.3026   49.4187   19.8862 C.ar      1 UNK         0.0000 
      2 C2          2.3041   49.1233   21.2497 C.ar      1 UNK         0.0000 
      3 C3          1.8581   50.0709   22.1643 C.ar      1 UNK         0.0000 
      4 C4          1.3847   51.3111   21.7161 C.ar      1 UNK         0.0000 
      5 C5          1.3728   51.5895   20.3414 C.ar      1 UNK         0.0000 
      6 C6          1.8372   50.6473   19.4297 C.ar      1 UNK         0.0000 
      7 C7          0.8864   52.3926   22.6893 C.3       1 UNK         0.0000 
      8 H8          0.6585   53.2946   22.1214 H         1 UNK         0.0000 
      9 C9         -0.4185   51.9501   23.3921 C.2       1 UNK         0.0000 
     10 O10        -1.4769   52.4969   23.0745 O.2       1 UNK         0.0000 
     11 N11        -0.2931   50.9943   24.3448 N.am      1 UNK         0.0000 
     12 C12        -1.2348   50.5266   25.1844 C.2       1 UNK         0.0000 
     13 O13        -2.4318   50.8096   25.1824 O.2       1 UNK         0.0000 
     14 N14        -0.7102   49.6960   26.0812 N.am      1 UNK         0.0000 
     15 S15         2.1202   52.9134   23.9443 S.3       1 UNK         0.0000 
     16 C16         3.5603   53.4577   23.0482 C.ar      1 UNK         0.0000 
     17 N17         3.6804   53.2448   21.7662 N.2       1 UNK         0.0000 
     18 N18         4.8726   53.7829   21.3462 N.2       1 UNK         0.0000 
     19 C19         5.4126   54.3823   22.3728 C.ar      1 UNK         0.0000 
     20 N20         4.6904   54.1300   23.5454 N.pl3     1 UNK         0.0000 
     21 C21         5.0177   54.6146   24.9379 C.3       1 UNK         0.0000 
     22 C22         4.1034   53.9763   26.0297 C.3       1 UNK         0.0000 
     23 C23         4.4989   54.2541   27.4921 C.3       1 UNK         0.0000 
     24 C24         5.9737   53.9348   27.7632 C.3       1 UNK         0.0000 
     25 C25         6.8576   54.6824   26.7612 C.3       1 UNK         0.0000 
     26 C26         6.5076   54.3213   25.3015 C.3       1 UNK         0.0000 
     27 C27         6.7039   55.1964   22.2425 C.3       1 UNK         0.0000 
     28 C28         7.0669   55.6664   20.8325 C.2       1 UNK         0.0000 
     29 C29         8.3325   55.6965   20.2475 C.2       1 UNK         0.0000 
     30 C30         8.3750   56.2142   18.9503 C.2       1 UNK         0.0000 
     31 C31         7.1309   56.6140   18.5039 C.2       1 UNK         0.0000 
     32 S32         5.9104   56.3272   19.6935 S.3       1 UNK         0.0000 
     33 H33         2.6849   48.6972   19.1762 H         1 UNK         0.0000 
     34 H34         2.6952   48.1776   21.5953 H         1 UNK         0.0000 
     35 H35         1.9070   49.8385   23.2167 H         1 UNK         0.0000 
     36 H36         1.0297   52.5479   19.9773 H         1 UNK         0.0000 
     37 H37         1.8596   50.8722   18.3718 H         1 UNK         0.0000 
     38 H38         0.6384   50.6501   24.4999 H         1 UNK         0.0000 
     39 H39         0.2353   49.3568   26.0098 H         1 UNK         0.0000 
     40 H40        -1.2938   49.3068   26.8222 H         1 UNK         0.0000 
     41 H41         4.8579   55.6912   24.8922 H         1 UNK         0.0000 
     42 H42         3.1073   54.4067   25.9351 H         1 UNK         0.0000 
     43 H43         4.0056   52.9005   25.8825 H         1 UNK         0.0000 
     44 H44         4.3036   55.2967   27.7345 H         1 UNK         0.0000 
     45 H45         3.8705   53.6663   28.1610 H         1 UNK         0.0000 
     46 H46         6.2405   54.2172   28.7824 H         1 UNK         0.0000 
     47 H47         6.1490   52.8616   27.6852 H         1 UNK         0.0000 
     48 H48         6.7227   55.7514   26.9140 H         1 UNK         0.0000 
     49 H49         7.9037   54.4796   26.9783 H         1 UNK         0.0000 
     50 H50         6.7927   53.3016   25.0430 H         1 UNK         0.0000 
     51 H51         7.1680   54.9642   24.7293 H         1 UNK         0.0000 
     52 H52         6.6706   56.0794   22.8788 H         1 UNK         0.0000 
     53 H53         7.5298   54.5945   22.6161 H         1 UNK         0.0000 
     54 H54         9.2160   55.3464   20.7593 H         1 UNK         0.0000 
     55 H55         9.2839   56.2955   18.3701 H         1 UNK         0.0000 
     56 H56         6.8745   57.0516   17.5503 H         1 UNK         0.0000 
@<TRIPOS>BOND
     1    1    6 ar   
     2    1    2 ar   
     3    1   33 1    
     4    2    3 ar   
     5    2   34 1    
     6    3    4 ar   
     7    3   35 1    
     8    4    5 ar   
     9    4    7 1    
    10    5    6 ar   
    11    5   36 1    
    12    6   37 1    
    13    7    8 1    
    14    7    9 1    
    15    7   15 1    
    16    9   10 2    
    17    9   11 am   BACKBONE|DICT|INTERRES
    18   11   12 am   BACKBONE|DICT|INTERRES
    19   11   38 1    
    20   12   13 2    
    21   12   14 am   BACKBONE|DICT|INTERRES
    22   14   39 1    
    23   14   40 1    
    24   15   16 1    
    25   16   20 ar   
    26   16   17 ar   
    27   17   18 ar   
    28   18   19 ar   
    29   19   20 ar   
    30   19   27 1    
    31   20   21 1    
    32   21   26 1    
    33   21   22 1    
    34   21   41 1    
    35   22   23 1    
    36   22   42 1    
    37   22   43 1    
    38   23   24 1    
    39   23   44 1    
    40   23   45 1    
    41   24   25 1    
    42   24   46 1    
    43   24   47 1    
    44   25   26 1    
    45   25   48 1    
    46   25   49 1    
    47   26   50 1    
    48   26   51 1    
    49   27   28 1    
    50   27   52 1    
    51   27   53 1    
    52   28   32 1    
    53   28   29 2    
    54   29   30 1    
    55   29   54 1    
    56   30   31 2    
    57   30   55 1    
    58   31   32 1    
    59   31   56 1    
@<TRIPOS>SUBSTRUCTURE
     1 UNK         1 GROUP             0       ****    0 ROOT    
