ZINC13169088_514
                    3D
 Schrodinger Suite 2024-2.
 57 59  0  0  1  0            999 V2000
    5.0732   57.1655   17.5214 C   0  0  0  0  0  0
    5.3554   55.6881   17.2027 C   0  0  1  0  0  0
    4.4871   55.1116   17.5216 H   0  0  0  0  0  0
    5.5387   55.4683   15.6843 C   0  0  0  0  0  0
    5.7429   53.9708   15.3702 C   0  0  0  0  0  0
    6.8757   53.3514   16.2168 C   0  0  0  0  0  0
    6.7398   53.6912   17.7151 C   0  0  0  0  0  0
    6.5678   55.1602   17.9202 N   0  0  0  0  0  0
    7.1606   55.7624   19.5105 S   0  0  0  0  0  0
    6.9732   57.2127   19.6482 O   0  0  0  0  0  0
    8.5078   55.2209   19.7048 O   0  0  0  0  0  0
    6.1508   55.0156   20.7962 C   0  0  0  0  0  0
    4.8718   54.5004   20.5591 C   0  0  0  0  0  0
    4.0887   54.0703   21.6307 C   0  0  0  0  0  0
    4.5799   54.1165   22.9433 C   0  0  0  0  0  0
    5.9141   54.5176   23.1421 C   0  0  0  0  0  0
    6.6781   54.9923   22.0846 C   0  0  0  0  0  0
    3.6668   53.7851   24.1113 C   0  0  0  0  0  0
    2.5829   53.2311   23.9179 O   0  0  0  0  0  0
    4.1408   54.1351   25.3286 N   0  0  0  0  0  0
    3.7499   53.7247   26.6196 C   0  0  0  0  0  0
    2.4390   53.3099   26.9061 C   0  0  0  0  0  0
    2.0894   52.8069   28.1697 C   0  0  0  0  0  0
    3.0603   52.7376   29.1749 C   0  0  0  0  0  0
    4.3550   53.1867   28.8944 C   0  0  0  0  0  0
    4.7326   53.6923   27.6414 C   0  0  0  0  0  0
    6.1705   54.1232   27.4406 C   0  0  0  0  0  0
    7.0268   53.6764   28.2330 O   0  0  0  0  0  0
    2.6871   52.2111   30.4025 O   0  0  0  0  0  0
    3.6731   51.9791   31.4046 C   0  0  0  0  0  0
    0.8201   52.3604   28.4873 O   0  0  0  0  0  0
   -0.0652   51.9868   27.4386 C   0  0  0  0  0  0
    4.2817   57.5583   16.8819 H   0  0  0  0  0  0
    4.7239   57.2915   18.5386 H   0  0  0  0  0  0
    5.9472   57.7981   17.3604 H   0  0  0  0  0  0
    6.4202   56.0122   15.3375 H   0  0  0  0  0  0
    4.6749   55.8429   15.1329 H   0  0  0  0  0  0
    5.9526   53.8366   14.3070 H   0  0  0  0  0  0
    4.8091   53.4336   15.5611 H   0  0  0  0  0  0
    7.8382   53.7103   15.8532 H   0  0  0  0  0  0
    6.8889   52.2676   16.0878 H   0  0  0  0  0  0
    7.6006   53.3193   18.2679 H   0  0  0  0  0  0
    5.8443   53.1841   18.0751 H   0  0  0  0  0  0
    4.4453   54.4922   19.5707 H   0  0  0  0  0  0
    3.0761   53.7463   21.4308 H   0  0  0  0  0  0
    6.3716   54.5323   24.1178 H   0  0  0  0  0  0
    7.6716   55.3664   22.2774 H   0  0  0  0  0  0
    5.0508   54.5862   25.3506 H   0  0  0  0  0  0
    1.6827   53.3663   26.1409 H   0  0  0  0  0  0
    5.0987   53.1311   29.6680 H   0  0  0  0  0  0
    3.2054   51.5137   32.2715 H   0  0  0  0  0  0
    4.1492   52.8957   31.7435 H   0  0  0  0  0  0
    4.4525   51.3059   31.0486 H   0  0  0  0  0  0
   -0.9364   51.4925   27.8671 H   0  0  0  0  0  0
   -0.4187   52.8590   26.8882 H   0  0  0  0  0  0
    0.4036   51.2880   26.7441 H   0  0  0  0  0  0
    6.4474   54.8992   26.4939 O   0  5  0  0  0  0
  1  2  1  0  0  0
  1 33  1  0  0  0
  1 34  1  0  0  0
  1 35  1  0  0  0
  2  3  1  0  0  0
  2  8  1  0  0  0
  2  4  1  0  0  0
  4  5  1  0  0  0
  4 36  1  0  0  0
  4 37  1  0  0  0
  5  6  1  0  0  0
  5 38  1  0  0  0
  5 39  1  0  0  0
  6  7  1  0  0  0
  6 40  1  0  0  0
  6 41  1  0  0  0
  7  8  1  0  0  0
  7 42  1  0  0  0
  7 43  1  0  0  0
  8  9  1  0  0  0
  9 10  2  0  0  0
  9 11  2  0  0  0
  9 12  1  0  0  0
 12 17  2  0  0  0
 12 13  1  0  0  0
 13 14  2  0  0  0
 13 44  1  0  0  0
 14 15  1  0  0  0
 14 45  1  0  0  0
 15 16  2  0  0  0
 15 18  1  0  0  0
 16 17  1  0  0  0
 16 46  1  0  0  0
 17 47  1  0  0  0
 18 19  2  0  0  0
 18 20  1  0  0  0
 20 21  1  0  0  0
 20 48  1  0  0  0
 21 26  2  0  0  0
 21 22  1  0  0  0
 22 23  2  0  0  0
 22 49  1  0  0  0
 23 24  1  0  0  0
 23 31  1  0  0  0
 24 25  2  0  0  0
 24 29  1  0  0  0
 25 26  1  0  0  0
 25 50  1  0  0  0
 26 27  1  0  0  0
 27 28  2  0  0  0
 27 57  1  0  0  0
 29 30  1  0  0  0
 30 51  1  0  0  0
 30 52  1  0  0  0
 30 53  1  0  0  0
 31 32  1  0  0  0
 32 54  1  0  0  0
 32 55  1  0  0  0
 32 56  1  0  0  0
M  CHG  1  57  -1
M  END
> <i_i_glide_confnum>
8

> <i_i_glide_lignum>
515

> <i_i_glide_posenum>
28

> <i_i_glide_rotatable_bonds>
8

> <i_m_Source_File_Index>
5711

> <b_m_subgroup_collapsed>
0

> <r_i_docking_score>
-5.54839

> <r_i_glide_ecoul>
-5.59642

> <r_i_glide_eff_state_penalty>
0

> <r_i_glide_einternal>
8.83375

> <r_i_glide_emodel>
-59.4149

> <r_i_glide_energy>
-48.8322

> <r_i_glide_erotb>
0.472715

> <r_i_glide_esite>
-0.0441551

> <r_i_glide_evdw>
-43.2358

> <r_i_glide_gscore>
-5.54839

> <r_i_glide_hbond>
-0.304507

> <r_i_glide_ligand_efficiency>
-0.173387

> <r_i_glide_ligand_efficiency_ln>
-1.24244

> <r_i_glide_ligand_efficiency_sa>
-0.55047

> <r_i_glide_lipo>
-2.48239

> <r_i_glide_metal>
0

> <r_i_glide_rewards>
-0.188801

> <s_i_glide_gridfile>
wee1_glide-grid

> <s_m_Source_File>
wee1_decoys_glide_SP.sdf

> <s_m_Source_Path>
/Users/zhangxujun/Desktop

> <s_m_entry_id>
5986

> <s_m_entry_name>
wee1_decoys_glide_SP.5711

> <s_m_subgroup_title>
wee1_decoys_glide_SP

> <s_m_subgroupid>
wee1_decoys_glide_SP


$$$$
