@<TRIPOS>MOLECULE
ZINC44785803_1691
45   46    1
SMALL
USER_CHARGES


@<TRIPOS>ATOM
      1 C1          3.8234   53.5215   27.3705 C.3       1 UNK         0.0000 
      2 C2          2.4238   53.4772   28.0526 C.3       1 UNK         0.0000 
      3 C3          2.6320   52.6325   29.3568 C.3       1 UNK         0.0000 
      4 O4          1.4374   52.3427   30.0724 O.3       1 UNK         0.0000 
      5 C5          0.4527   51.6991   29.2819 C.3       1 UNK         0.0000 
      6 C6          0.0851   52.5671   28.0754 C.3       1 UNK         0.0000 
      7 N7          1.3208   52.7751   27.2812 N.am      1 UNK         0.0000 
      8 C8          1.2258   52.8151   25.9068 C.2       1 UNK         0.0000 
      9 O9          1.8399   53.6968   25.2999 O.2       1 UNK         0.0000 
     10 C10         0.3280   51.8181   25.0382 C.3       1 UNK         0.0000 
     11 C11         0.1631   50.3939   25.7253 C.3       1 UNK         0.0000 
     12 C12        -0.9133   49.5043   25.0617 C.3       1 UNK         0.0000 
     13 C13        -2.2714   50.2237   24.9847 C.3       1 UNK         0.0000 
     14 C14        -2.1647   51.5799   24.2635 C.3       1 UNK         0.0000 
     15 C15        -1.0946   52.4965   24.9022 C.3       1 UNK         0.0000 
     16 C16         0.9874   51.6494   23.5937 C.2       1 UNK         0.0000 
     17 N17         0.6758   52.4986   22.6835 N.2       1 UNK         0.0000 
     18 O18         1.3239   52.3102   21.4401 O.3       1 UNK         0.0000 
     19 N19         1.8602   50.5811   23.4454 N.pl3     1 UNK         0.0000 
     20 C20         2.0176   54.9047   28.5051 C.3       1 UNK         0.0000 
     21 H21         4.6054   53.8190   28.0706 H         1 UNK         0.0000 
     22 H22         4.1054   52.5534   26.9641 H         1 UNK         0.0000 
     23 H23         3.8687   54.2437   26.5547 H         1 UNK         0.0000 
     24 H24         3.3316   53.1227   30.0353 H         1 UNK         0.0000 
     25 H25         3.0905   51.6780   29.0888 H         1 UNK         0.0000 
     26 H26        -0.4339   51.4783   29.8805 H         1 UNK         0.0000 
     27 H27         0.8369   50.7473   28.9263 H         1 UNK         0.0000 
     28 H28        -0.2236   53.5470   28.4397 H         1 UNK         0.0000 
     29 H29        -0.7763   52.1355   27.5802 H         1 UNK         0.0000 
     30 H30        -0.1323   50.4453   26.7669 H         1 UNK         0.0000 
     31 H31         1.1017   49.8392   25.7658 H         1 UNK         0.0000 
     32 H32        -1.0231   48.5779   25.6293 H         1 UNK         0.0000 
     33 H33        -0.5947   49.2063   24.0612 H         1 UNK         0.0000 
     34 H34        -2.6536   50.3773   25.9980 H         1 UNK         0.0000 
     35 H35        -2.9978   49.5879   24.4758 H         1 UNK         0.0000 
     36 H36        -3.1342   52.0796   24.2760 H         1 UNK         0.0000 
     37 H37        -1.9323   51.4119   23.2107 H         1 UNK         0.0000 
     38 H38        -1.0368   53.4270   24.3343 H         1 UNK         0.0000 
     39 H39        -1.4919   52.8205   25.8597 H         1 UNK         0.0000 
     40 H40         1.1045   53.1197   20.9624 H         1 UNK         0.0000 
     41 H41         2.2830   50.4484   22.5393 H         1 UNK         0.0000 
     42 H42         1.9292   49.8416   24.1291 H         1 UNK         0.0000 
     43 H43         2.8656   55.4534   28.9193 H         1 UNK         0.0000 
     44 H44         1.6232   55.4908   27.6819 H         1 UNK         0.0000 
     45 H45         1.2494   54.8941   29.2801 H         1 UNK         0.0000 
@<TRIPOS>BOND
     1    1    2 1    
     2    1   21 1    
     3    1   22 1    
     4    1   23 1    
     5    2    7 1    
     6    2    3 1    
     7    2   20 1    
     8    3    4 1    
     9    3   24 1    
    10    3   25 1    
    11    4    5 1    
    12    5    6 1    
    13    5   26 1    
    14    5   27 1    
    15    6    7 1    
    16    6   28 1    
    17    6   29 1    
    18    7    8 am   BACKBONE|DICT|INTERRES
    19    8    9 2    
    20    8   10 1    
    21   10   15 1    
    22   10   11 1    
    23   10   16 1    
    24   11   12 1    
    25   11   30 1    
    26   11   31 1    
    27   12   13 1    
    28   12   32 1    
    29   12   33 1    
    30   13   14 1    
    31   13   34 1    
    32   13   35 1    
    33   14   15 1    
    34   14   36 1    
    35   14   37 1    
    36   15   38 1    
    37   15   39 1    
    38   16   17 2    
    39   16   19 1    
    40   17   18 1    
    41   18   40 1    
    42   19   41 1    
    43   19   42 1    
    44   20   43 1    
    45   20   44 1    
    46   20   45 1    
@<TRIPOS>SUBSTRUCTURE
     1 UNK         1 GROUP             0       ****    0 ROOT    
