@<TRIPOS>MOLECULE
ZINC28396934_5338
75   79    1
SMALL
USER_CHARGES


@<TRIPOS>ATOM
      1 C1         -5.0867   45.8356   26.5208 C.3       1 UNK         0.0000 
      2 C2         -3.6457   45.9102   27.0421 C.3       1 UNK         0.0000 
      3 N3         -2.8919   47.0285   26.4811 N.am      1 UNK         0.0000 
      4 C4         -2.3063   47.0422   25.2705 C.2       1 UNK         0.0000 
      5 O5         -2.3593   46.0970   24.4819 O.2       1 UNK         0.0000 
      6 C6         -1.5345   48.2854   24.9104 C.ar      1 UNK         0.0000 
      7 C7         -2.1300   49.5526   24.9691 C.ar      1 UNK         0.0000 
      8 C8         -1.4067   50.6846   24.5877 C.ar      1 UNK         0.0000 
      9 C9         -0.0717   50.5683   24.1793 C.ar      1 UNK         0.0000 
     10 C10         0.5185   49.3060   24.1339 C.ar      1 UNK         0.0000 
     11 C11        -0.2081   48.1737   24.4829 C.ar      1 UNK         0.0000 
     12 C12         0.7581   51.7567   23.8398 C.2       1 UNK         0.0000 
     13 C13         0.9577   52.1059   22.5295 C.2       1 UNK         0.0000 
     14 C14         1.8008   53.2961   22.0066 C.3       1 UNK         0.0000 
     15 C15         2.7422   52.8901   20.8314 C.3       1 UNK         0.0000 
     16 H16         3.3229   53.7471   20.4813 H         1 UNK         0.0000 
     17 C17         3.5985   51.6291   21.0617 C.3       1 UNK         0.0000 
     18 C18         2.6966   50.4407   20.6859 C.3       1 UNK         0.0000 
     19 C19         1.3733   51.0728   20.2079 C.3       1 UNK         0.0000 
     20 H20         0.9155   50.5323   19.3756 H         1 UNK         0.0000 
     21 C21         0.3402   51.3294   21.3415 C.3       1 UNK         0.0000 
     22 N22         1.8171   52.4543   19.6866 N.4       1 UNK         0.0000 
     23 C23         2.4571   52.4404   18.2756 C.3       1 UNK         0.0000 
     24 C24         1.4842   52.1777   17.1350 C.ar      1 UNK         0.0000 
     25 C25         1.9012   51.4817   15.9963 C.ar      1 UNK         0.0000 
     26 C26         0.9786   51.2619   14.9716 C.ar      1 UNK         0.0000 
     27 C27        -0.3260   51.7425   15.1043 C.ar      1 UNK         0.0000 
     28 C28        -0.6650   52.4309   16.2714 C.ar      1 UNK         0.0000 
     29 N29         0.2156   52.6514   17.2813 N.ar      1 UNK         0.0000 
     30 C30         1.3611   52.4486   25.0292 C.ar      1 UNK         0.0000 
     31 C31         2.6300   53.0280   24.9537 C.ar      1 UNK         0.0000 
     32 C32         3.1893   53.7043   26.0182 C.ar      1 UNK         0.0000 
     33 C33         2.5619   53.6937   27.2634 C.ar      1 UNK         0.0000 
     34 C34         1.2980   53.1077   27.3769 C.ar      1 UNK         0.0000 
     35 C35         0.7056   52.4971   26.2722 C.ar      1 UNK         0.0000 
     36 C36         3.2419   54.2776   28.4789 C.2       1 UNK         0.0000 
     37 O37         2.5566   54.8503   29.3313 O.2       1 UNK         0.0000 
     38 N38         4.5920   54.1464   28.6024 N.am      1 UNK         0.0000 
     39 C39         5.4684   53.2446   27.8367 C.3       1 UNK         0.0000 
     40 C40         5.2915   54.8198   29.6818 C.3       1 UNK         0.0000 
     41 H41        -5.6132   44.9880   26.9601 H         1 UNK         0.0000 
     42 H42        -5.1126   45.7122   25.4379 H         1 UNK         0.0000 
     43 H43        -5.6448   46.7363   26.7787 H         1 UNK         0.0000 
     44 H44        -3.6587   46.0303   28.1268 H         1 UNK         0.0000 
     45 H45        -3.1250   44.9679   26.8589 H         1 UNK         0.0000 
     46 H46        -2.5327   47.6985   27.1649 H         1 UNK         0.0000 
     47 H47        -3.1530   49.6639   25.2989 H         1 UNK         0.0000 
     48 H48        -1.8771   51.6562   24.6354 H         1 UNK         0.0000 
     49 H49         1.5493   49.2062   23.8317 H         1 UNK         0.0000 
     50 H50         0.2809   47.2126   24.4519 H         1 UNK         0.0000 
     51 H51         1.1040   54.0445   21.6817 H         1 UNK         0.0000 
     52 H52         2.3413   53.9039   22.7129 H         1 UNK         0.0000 
     53 H53         4.4758   51.6466   20.4106 H         1 UNK         0.0000 
     54 H54         3.9669   51.5675   22.0813 H         1 UNK         0.0000 
     55 H55         3.1485   49.8621   19.8770 H         1 UNK         0.0000 
     56 H56         2.5456   49.7536   21.5197 H         1 UNK         0.0000 
     57 H57        -0.0840   50.3722   21.6402 H         1 UNK         0.0000 
     58 H58        -0.4982   51.9039   20.9445 H         1 UNK         0.0000 
     59 H59         2.9160   53.4220   18.1487 H         1 UNK         0.0000 
     60 H60         3.2569   51.6971   18.2927 H         1 UNK         0.0000 
     61 H61         2.9126   51.1069   15.9096 H         1 UNK         0.0000 
     62 H62         1.2745   50.7191   14.0859 H         1 UNK         0.0000 
     63 H63        -1.0545   51.5856   14.3208 H         1 UNK         0.0000 
     64 H64        -1.6623   52.8206   16.4110 H         1 UNK         0.0000 
     65 H65         3.2668   52.8974   24.0982 H         1 UNK         0.0000 
     66 H66         4.1549   54.1660   25.8727 H         1 UNK         0.0000 
     67 H67         0.7777   53.0998   28.3244 H         1 UNK         0.0000 
     68 H68        -0.2661   52.0534   26.4166 H         1 UNK         0.0000 
     69 H69         6.1202   52.6681   28.4886 H         1 UNK         0.0000 
     70 H70         6.1096   53.8190   27.1677 H         1 UNK         0.0000 
     71 H71         4.9276   52.5036   27.2510 H         1 UNK         0.0000 
     72 H72         6.3410   54.5198   29.6816 H         1 UNK         0.0000 
     73 H73         4.8348   54.4967   30.6163 H         1 UNK         0.0000 
     74 H74         5.2376   55.9028   29.6818 H         1 UNK         0.0000 
     75 H75         1.0303   53.0881   19.6545 H         1 UNK         0.0000 
@<TRIPOS>BOND
     1    1    2 1    
     2    1   41 1    
     3    1   42 1    
     4    1   43 1    
     5    2    3 1    
     6    2   44 1    
     7    2   45 1    
     8    3    4 am   BACKBONE|DICT|INTERRES
     9    3   46 1    
    10    4    5 2    
    11    4    6 1    
    12    6   11 ar   
    13    6    7 ar   
    14    7    8 ar   
    15    7   47 1    
    16    8    9 ar   
    17    8   48 1    
    18    9   10 ar   
    19    9   12 1    
    20   10   11 ar   
    21   10   49 1    
    22   11   50 1    
    23   12   13 2    
    24   12   30 1    
    25   13   21 1    
    26   13   14 1    
    27   14   15 1    
    28   14   51 1    
    29   14   52 1    
    30   15   16 1    
    31   15   22 1    
    32   15   17 1    
    33   17   18 1    
    34   17   53 1    
    35   17   54 1    
    36   18   19 1    
    37   18   55 1    
    38   18   56 1    
    39   19   20 1    
    40   19   21 1    
    41   19   22 1    
    42   21   57 1    
    43   21   58 1    
    44   22   23 1    
    45   22   75 1    
    46   23   24 1    
    47   23   59 1    
    48   23   60 1    
    49   24   29 ar   
    50   24   25 ar   
    51   25   26 ar   
    52   25   61 1    
    53   26   27 ar   
    54   26   62 1    
    55   27   28 ar   
    56   27   63 1    
    57   28   29 ar   
    58   28   64 1    
    59   30   35 ar   
    60   30   31 ar   
    61   31   32 ar   
    62   31   65 1    
    63   32   33 ar   
    64   32   66 1    
    65   33   34 ar   
    66   33   36 1    
    67   34   35 ar   
    68   34   67 1    
    69   35   68 1    
    70   36   37 2    
    71   36   38 am   BACKBONE|DICT|INTERRES
    72   38   39 1    
    73   38   40 1    
    74   39   69 1    
    75   39   70 1    
    76   39   71 1    
    77   40   72 1    
    78   40   73 1    
    79   40   74 1    
@<TRIPOS>SUBSTRUCTURE
     1 UNK         1 GROUP             0       ****    0 ROOT    
