ZINC14474960_2248
                    3D
 Schrodinger Suite 2024-2.
 60 62  0  0  1  0            999 V2000
    1.6853   52.7250   26.9402 C   0  0  0  0  0  0
    0.7048   51.5382   26.8678 C   0  0  0  0  0  0
   -0.5258   51.7683   27.7614 C   0  0  0  0  0  0
    0.2952   51.1768   25.4366 C   0  0  0  0  0  0
    0.3043   49.8351   25.0383 C   0  0  0  0  0  0
   -0.0989   49.4831   23.7535 C   0  0  0  0  0  0
   -0.5405   50.4704   22.8679 C   0  0  0  0  0  0
   -0.5464   51.8093   23.2549 C   0  0  0  0  0  0
   -0.1256   52.1613   24.5342 C   0  0  0  0  0  0
   -1.1309   50.0136   21.2366 S   0  0  0  0  0  0
   -1.3549   48.5623   21.2620 O   0  0  0  0  0  0
   -2.2171   50.9452   20.8976 O   0  0  0  0  0  0
    0.2312   50.3157   20.1433 N   0  0  0  0  0  0
    1.5006   49.5692   20.3331 C   0  0  0  0  0  0
    2.6029   50.4947   20.8926 C   0  0  0  0  0  0
    2.7820   51.7084   19.9348 C   0  0  0  0  0  0
    1.4452   52.4964   19.8539 C   0  0  0  0  0  0
    0.3144   51.5724   19.3564 C   0  0  0  0  0  0
    3.9043   52.6338   20.4627 C   0  0  0  0  0  0
    4.8536   52.8968   19.7278 O   0  0  0  0  0  0
    3.7736   53.0997   21.7246 N   0  0  0  0  0  0
    4.6783   53.8544   22.4921 C   0  0  0  0  0  0
    5.8198   54.4973   21.9846 C   0  0  0  0  0  0
    6.7042   55.1429   22.8457 C   0  0  0  0  0  0
    6.4612   55.1574   24.2168 C   0  0  0  0  0  0
    5.3158   54.5378   24.7362 C   0  0  0  0  0  0
    4.4147   53.9212   23.8634 C   0  0  0  0  0  0
    5.0105   54.4969   26.1049 N   0  0  0  0  0  0
    5.8791   54.4821   27.1354 C   0  0  0  0  0  0
    7.1042   54.4989   27.0213 O   0  0  0  0  0  0
    5.2550   54.4234   28.5218 C   0  0  0  0  0  0
    2.5393   52.5674   26.2820 H   0  0  0  0  0  0
    2.0807   52.8436   27.9503 H   0  0  0  0  0  0
    1.2127   53.6689   26.6631 H   0  0  0  0  0  0
    1.2382   50.6803   27.2819 H   0  0  0  0  0  0
   -1.1784   50.8958   27.7615 H   0  0  0  0  0  0
   -0.2411   51.9569   28.7965 H   0  0  0  0  0  0
   -1.1170   52.6162   27.4187 H   0  0  0  0  0  0
    0.6190   49.0582   25.7221 H   0  0  0  0  0  0
   -0.0894   48.4402   23.4635 H   0  0  0  0  0  0
   -0.8932   52.5726   22.5741 H   0  0  0  0  0  0
   -0.1540   53.2009   24.8280 H   0  0  0  0  0  0
    1.3235   48.7378   21.0148 H   0  0  0  0  0  0
    1.7841   49.1296   19.3772 H   0  0  0  0  0  0
    2.2703   50.7869   21.8896 H   0  0  0  0  0  0
    3.5043   49.8885   20.9458 H   0  0  0  0  0  0
    3.1204   51.3597   18.9558 H   0  0  0  0  0  0
    1.5153   53.2966   19.1183 H   0  0  0  0  0  0
    1.1205   52.8735   20.8263 H   0  0  0  0  0  0
    0.4425   51.3044   18.3061 H   0  0  0  0  0  0
   -0.6403   52.0953   19.4196 H   0  0  0  0  0  0
    2.9372   52.8171   22.2091 H   0  0  0  0  0  0
    6.0500   54.5079   20.9321 H   0  0  0  0  0  0
    7.5847   55.6331   22.4558 H   0  0  0  0  0  0
    7.1611   55.6721   24.8561 H   0  0  0  0  0  0
    3.5386   53.4306   24.2628 H   0  0  0  0  0  0
    4.0377   54.3618   26.3304 H   0  0  0  0  0  0
    4.7249   53.4819   28.6667 H   0  0  0  0  0  0
    6.0299   54.5024   29.2814 H   0  0  0  0  0  0
    4.5585   55.2504   28.6687 H   0  0  0  0  0  0
  1  2  1  0  0  0
  1 32  1  0  0  0
  1 33  1  0  0  0
  1 34  1  0  0  0
  2  3  1  0  0  0
  2  4  1  0  0  0
  2 35  1  0  0  0
  3 36  1  0  0  0
  3 37  1  0  0  0
  3 38  1  0  0  0
  4  9  2  0  0  0
  4  5  1  0  0  0
  5  6  2  0  0  0
  5 39  1  0  0  0
  6  7  1  0  0  0
  6 40  1  0  0  0
  7  8  2  0  0  0
  7 10  1  0  0  0
  8  9  1  0  0  0
  8 41  1  0  0  0
  9 42  1  0  0  0
 10 11  2  0  0  0
 10 12  2  0  0  0
 10 13  1  0  0  0
 13 18  1  0  0  0
 13 14  1  0  0  0
 14 15  1  0  0  0
 14 43  1  0  0  0
 14 44  1  0  0  0
 15 16  1  0  0  0
 15 45  1  0  0  0
 15 46  1  0  0  0
 16 17  1  0  0  0
 16 19  1  0  0  0
 16 47  1  0  0  0
 17 18  1  0  0  0
 17 48  1  0  0  0
 17 49  1  0  0  0
 18 50  1  0  0  0
 18 51  1  0  0  0
 19 20  2  0  0  0
 19 21  1  0  0  0
 21 22  1  0  0  0
 21 52  1  0  0  0
 22 27  2  0  0  0
 22 23  1  0  0  0
 23 24  2  0  0  0
 23 53  1  0  0  0
 24 25  1  0  0  0
 24 54  1  0  0  0
 25 26  2  0  0  0
 25 55  1  0  0  0
 26 27  1  0  0  0
 26 28  1  0  0  0
 27 56  1  0  0  0
 28 29  1  0  0  0
 28 57  1  0  0  0
 29 30  2  0  0  0
 29 31  1  0  0  0
 31 58  1  0  0  0
 31 59  1  0  0  0
 31 60  1  0  0  0
M  END
> <i_i_glide_confnum>
86

> <i_i_glide_lignum>
2249

> <i_i_glide_posenum>
338

> <i_i_glide_rotatable_bonds>
8

> <i_m_Source_File_Index>
2998

> <b_m_subgroup_collapsed>
0

> <r_i_docking_score>
-4.75903

> <r_i_glide_ecoul>
-2.96932

> <r_i_glide_eff_state_penalty>
0

> <r_i_glide_einternal>
6.42409

> <r_i_glide_emodel>
-56.2242

> <r_i_glide_energy>
-45.1986

> <r_i_glide_erotb>
0.609702

> <r_i_glide_esite>
-0.012334

> <r_i_glide_evdw>
-42.2293

> <r_i_glide_gscore>
-4.75903

> <r_i_glide_hbond>
-0.162363

> <r_i_glide_ligand_efficiency>
-0.153517

> <r_i_glide_ligand_efficiency_ln>
-1.07331

> <r_i_glide_ligand_efficiency_sa>
-0.482256

> <r_i_glide_lipo>
-1.93255

> <r_i_glide_metal>
0

> <r_i_glide_rewards>
-0.70463

> <s_i_glide_gridfile>
wee1_glide-grid

> <s_m_Source_File>
wee1_decoys_glide_SP.sdf

> <s_m_Source_Path>
/Users/zhangxujun/Desktop

> <s_m_entry_id>
3273

> <s_m_entry_name>
wee1_decoys_glide_SP.2998

> <s_m_subgroup_title>
wee1_decoys_glide_SP

> <s_m_subgroupid>
wee1_decoys_glide_SP


$$$$
