ZINC00528143_4695
                    3D
 Schrodinger Suite 2024-2.
 39 42  0  0  1  0            999 V2000
    5.9051   54.4964   22.3907 C   0  0  0  0  0  0
    6.0019   54.3528   23.7716 C   0  0  0  0  0  0
    4.8558   54.0970   24.5208 C   0  0  0  0  0  0
    3.6039   53.9877   23.8951 C   0  0  0  0  0  0
    3.5267   54.1344   22.5037 C   0  0  0  0  0  0
    4.6736   54.3805   21.7522 C   0  0  0  0  0  0
    2.3159   53.7122   24.6919 C   0  0  1  0  0  0
    1.6955   54.5842   24.4759 H   0  0  0  0  0  0
    1.5958   52.4236   24.2109 C   0  0  0  0  0  0
    0.2635   52.1287   24.9394 C   0  0  2  0  0  0
   -0.4412   52.9089   24.6449 H   0  0  0  0  0  0
    0.5074   52.3334   26.3712 N   0  0  0  0  0  0
    1.5138   53.0790   26.9360 C   0  0  0  0  0  0
    1.4029   53.0890   28.2383 N   0  0  0  0  0  0
    0.3209   52.3530   28.4337 C   0  0  0  0  0  0
   -0.2744   51.8798   27.3611 N   0  0  0  0  0  0
   -0.1539   52.0982   29.6827 N   0  0  0  0  0  0
    2.4750   53.6967   26.1597 N   0  0  0  0  0  0
   -0.3299   50.7714   24.5426 C   0  0  0  0  0  0
    0.0824   49.5890   25.1695 C   0  0  0  0  0  0
   -0.4669   48.3693   24.7870 C   0  0  0  0  0  0
   -1.4144   48.3208   23.7699 C   0  0  0  0  0  0
   -1.8227   49.4888   23.1316 C   0  0  0  0  0  0
   -1.2821   50.7136   23.5190 C   0  0  0  0  0  0
   -1.9369   47.1297   23.3971 F   0  0  0  0  0  0
    6.7924   54.6979   21.8091 H   0  0  0  0  0  0
    6.9636   54.4349   24.2565 H   0  0  0  0  0  0
    4.9609   53.9708   25.5878 H   0  0  0  0  0  0
    2.5762   54.0738   21.9939 H   0  0  0  0  0  0
    4.6027   54.4902   20.6795 H   0  0  0  0  0  0
    1.3976   52.4670   23.1399 H   0  0  0  0  0  0
    2.2732   51.5757   24.3183 H   0  0  0  0  0  0
    0.2783   52.4893   30.5068 H   0  0  0  0  0  0
   -0.9011   51.4307   29.8293 H   0  0  0  0  0  0
    2.9904   54.4791   26.5345 H   0  0  0  0  0  0
    0.8155   49.6082   25.9632 H   0  0  0  0  0  0
   -0.1592   47.4615   25.2811 H   0  0  0  0  0  0
   -2.5578   49.4434   22.3421 H   0  0  0  0  0  0
   -1.6037   51.6157   23.0192 H   0  0  0  0  0  0
  1  6  2  0  0  0
  1  2  1  0  0  0
  1 26  1  0  0  0
  2  3  2  0  0  0
  2 27  1  0  0  0
  3  4  1  0  0  0
  3 28  1  0  0  0
  4  5  2  0  0  0
  4  7  1  0  0  0
  5  6  1  0  0  0
  5 29  1  0  0  0
  6 30  1  0  0  0
  7  8  1  0  0  0
  7 18  1  0  0  0
  7  9  1  0  0  0
  9 10  1  0  0  0
  9 31  1  0  0  0
  9 32  1  0  0  0
 10 11  1  0  0  0
 10 12  1  0  0  0
 10 19  1  0  0  0
 12 16  1  0  0  0
 12 13  1  0  0  0
 13 14  2  0  0  0
 13 18  1  0  0  0
 14 15  1  0  0  0
 15 16  2  0  0  0
 15 17  1  0  0  0
 17 33  1  0  0  0
 17 34  1  0  0  0
 18 35  1  0  0  0
 19 24  2  0  0  0
 19 20  1  0  0  0
 20 21  2  0  0  0
 20 36  1  0  0  0
 21 22  1  0  0  0
 21 37  1  0  0  0
 22 23  2  0  0  0
 22 25  1  0  0  0
 23 24  1  0  0  0
 23 38  1  0  0  0
 24 39  1  0  0  0
M  END
> <i_i_glide_confnum>
7

> <i_i_glide_lignum>
4696

> <i_i_glide_posenum>
374

> <i_i_glide_rotatable_bonds>
2

> <i_m_Source_File_Index>
5284

> <b_m_subgroup_collapsed>
0

> <r_i_docking_score>
-4.97035

> <r_i_glide_ecoul>
-1.66381

> <r_i_glide_eff_state_penalty>
0

> <r_i_glide_einternal>
3.20886

> <r_i_glide_emodel>
-43.0782

> <r_i_glide_energy>
-33.4973

> <r_i_glide_erotb>
0.386967

> <r_i_glide_esite>
-0.0510528

> <r_i_glide_evdw>
-31.8335

> <r_i_glide_gscore>
-4.97035

> <r_i_glide_hbond>
0

> <r_i_glide_ligand_efficiency>
-0.216102

> <r_i_glide_ligand_efficiency_ln>
-1.20188

> <r_i_glide_ligand_efficiency_sa>
-0.614566

> <r_i_glide_lipo>
-1.73257

> <r_i_glide_metal>
0

> <r_i_glide_rewards>
-1.73245

> <s_i_glide_gridfile>
wee1_glide-grid

> <s_m_Source_File>
wee1_decoys_glide_SP.sdf

> <s_m_Source_Path>
/Users/zhangxujun/Desktop

> <s_m_entry_id>
5559

> <s_m_entry_name>
wee1_decoys_glide_SP.5284

> <s_m_subgroup_title>
wee1_decoys_glide_SP

> <s_m_subgroupid>
wee1_decoys_glide_SP


$$$$
