@<TRIPOS>MOLECULE
ZINC09884196_3203
64   68    1
SMALL
USER_CHARGES


@<TRIPOS>ATOM
      1 C1          4.5751   54.6166   18.1369 C.3       1 UNK         0.0000 
      2 C2          5.1499   53.4157   18.9056 C.3       1 UNK         0.0000 
      3 O3          4.6238   53.3468   20.2277 O.3       1 UNK         0.0000 
      4 C4          5.1046   54.1211   21.2364 C.2       1 UNK         0.0000 
      5 O5          6.0519   54.8995   21.1050 O.2       1 UNK         0.0000 
      6 C6          4.3575   53.9332   22.5030 C.2       1 UNK         0.0000 
      7 C7          4.8533   54.3043   23.7900 C.2       1 UNK         0.0000 
      8 C8          3.9227   54.0955   24.8255 C.2       1 UNK         0.0000 
      9 S9          2.4480   53.4145   24.2527 S.3       1 UNK         0.0000 
     10 C10         3.0671   53.3608   22.6257 C.2       1 UNK         0.0000 
     11 N11         2.3300   52.8240   21.5731 N.am      1 UNK         0.0000 
     12 C12         1.1198   52.2357   21.5555 C.2       1 UNK         0.0000 
     13 O13         0.3795   52.0944   22.5301 O.2       1 UNK         0.0000 
     14 C14         0.7149   51.7380   20.1522 C.3       1 UNK         0.0000 
     15 N15        -0.4710   50.8610   20.1974 N.am      1 UNK         0.0000 
     16 C16        -1.7275   51.3009   19.9614 C.2       1 UNK         0.0000 
     17 O17        -2.0956   52.4450   19.6818 O.2       1 UNK         0.0000 
     18 C18        -2.6251   50.0658   20.0476 C.3       1 UNK         0.0000 
     19 C19        -3.3854   49.9368   18.6946 C.3       1 UNK         0.0000 
     20 C20        -4.5067   48.8978   18.7919 C.3       1 UNK         0.0000 
     21 C21        -5.5503   49.3730   19.8136 C.3       1 UNK         0.0000 
     22 C22        -4.9285   49.7254   21.1646 C.ar      1 UNK         0.0000 
     23 C23        -3.5645   50.1009   21.2820 C.ar      1 UNK         0.0000 
     24 C24        -3.0742   50.4072   22.5657 C.ar      1 UNK         0.0000 
     25 C25        -3.8913   50.3782   23.6911 C.ar      1 UNK         0.0000 
     26 C26        -5.2265   50.0186   23.5626 C.ar      1 UNK         0.0000 
     27 C27        -5.7325   49.6905   22.3104 C.ar      1 UNK         0.0000 
     28 N28        -1.6101   49.0561   20.1867 N.am      1 UNK         0.0000 
     29 C29        -0.3774   49.5228   20.3961 C.2       1 UNK         0.0000 
     30 O30         0.5659   48.8952   20.8735 O.2       1 UNK         0.0000 
     31 C31         4.1202   54.4522   26.2984 C.3       1 UNK         0.0000 
     32 C32         5.6000   54.8199   26.5676 C.3       1 UNK         0.0000 
     33 H33         5.6044   55.4451   27.4604 H         1 UNK         0.0000 
     34 C34         6.1424   55.7029   25.4267 C.3       1 UNK         0.0000 
     35 C35         6.2233   54.9402   24.0932 C.3       1 UNK         0.0000 
     36 C36         6.4931   53.6160   26.9140 C.3       1 UNK         0.0000 
     37 H37         4.9334   54.6232   17.1076 H         1 UNK         0.0000 
     38 H38         3.4843   54.5821   18.1118 H         1 UNK         0.0000 
     39 H39         4.8694   55.5620   18.5951 H         1 UNK         0.0000 
     40 H40         6.2431   53.4447   18.9208 H         1 UNK         0.0000 
     41 H41         4.8742   52.4971   18.3858 H         1 UNK         0.0000 
     42 H42         2.8097   52.8782   20.6839 H         1 UNK         0.0000 
     43 H43         0.5114   52.6165   19.5356 H         1 UNK         0.0000 
     44 H44         1.5493   51.2123   19.6837 H         1 UNK         0.0000 
     45 H45        -3.8635   50.8830   18.4232 H         1 UNK         0.0000 
     46 H46        -2.7105   49.6698   17.8773 H         1 UNK         0.0000 
     47 H47        -4.1053   47.9255   19.0833 H         1 UNK         0.0000 
     48 H48        -4.9768   48.7584   17.8172 H         1 UNK         0.0000 
     49 H49        -6.3227   48.6103   19.9318 H         1 UNK         0.0000 
     50 H50        -6.0589   50.2584   19.4296 H         1 UNK         0.0000 
     51 H51        -2.0345   50.6708   22.7009 H         1 UNK         0.0000 
     52 H52        -3.4850   50.6234   24.6609 H         1 UNK         0.0000 
     53 H53        -5.8661   49.9900   24.4341 H         1 UNK         0.0000 
     54 H54        -6.7742   49.4170   22.2285 H         1 UNK         0.0000 
     55 H55        -1.7827   48.1047   19.9083 H         1 UNK         0.0000 
     56 H56         3.8121   53.6253   26.9400 H         1 UNK         0.0000 
     57 H57         3.4887   55.2968   26.5646 H         1 UNK         0.0000 
     58 H58         7.1328   56.0770   25.6774 H         1 UNK         0.0000 
     59 H59         5.5061   56.5749   25.2818 H         1 UNK         0.0000 
     60 H60         6.5392   55.6536   23.3338 H         1 UNK         0.0000 
     61 H61         7.0006   54.1768   24.1233 H         1 UNK         0.0000 
     62 H62         6.5699   52.9176   26.0840 H         1 UNK         0.0000 
     63 H63         7.5027   53.9366   27.1705 H         1 UNK         0.0000 
     64 H64         6.1007   53.0626   27.7682 H         1 UNK         0.0000 
@<TRIPOS>BOND
     1    1    2 1    
     2    1   37 1    
     3    1   38 1    
     4    1   39 1    
     5    2    3 1    
     6    2   40 1    
     7    2   41 1    
     8    3    4 1    
     9    4    5 2    
    10    4    6 1    
    11    6   10 2    
    12    6    7 1    
    13    7   35 1    
    14    7    8 2    
    15    8    9 1    
    16    8   31 1    
    17    9   10 1    
    18   10   11 am   BACKBONE|DICT|INTERRES
    19   11   12 am   BACKBONE|DICT|INTERRES
    20   11   42 1    
    21   12   13 2    
    22   12   14 1    
    23   14   15 1    
    24   14   43 1    
    25   14   44 1    
    26   15   29 am   BACKBONE|DICT|INTERRES
    27   15   16 am   BACKBONE|DICT|INTERRES
    28   16   17 2    
    29   16   18 1    
    30   18   23 1    
    31   18   19 1    
    32   18   28 1    
    33   19   20 1    
    34   19   45 1    
    35   19   46 1    
    36   20   21 1    
    37   20   47 1    
    38   20   48 1    
    39   21   22 1    
    40   21   49 1    
    41   21   50 1    
    42   22   27 ar   
    43   22   23 ar   
    44   23   24 ar   
    45   24   25 ar   
    46   24   51 1    
    47   25   26 ar   
    48   25   52 1    
    49   26   27 ar   
    50   26   53 1    
    51   27   54 1    
    52   28   29 am   BACKBONE|DICT|INTERRES
    53   28   55 1    
    54   29   30 2    
    55   31   32 1    
    56   31   56 1    
    57   31   57 1    
    58   32   33 1    
    59   32   34 1    
    60   32   36 1    
    61   34   35 1    
    62   34   58 1    
    63   34   59 1    
    64   35   60 1    
    65   35   61 1    
    66   36   62 1    
    67   36   63 1    
    68   36   64 1    
@<TRIPOS>SUBSTRUCTURE
     1 UNK         1 GROUP             0       ****    0 ROOT    
