@<TRIPOS>MOLECULE
ZINC34899472_4390
77   82    1
SMALL
USER_CHARGES


@<TRIPOS>ATOM
      1 C1         -0.4278   48.7998   23.9441 C.ar      1 UNK         0.0000 
      2 C2          0.7050   49.6040   23.9641 C.ar      1 UNK         0.0000 
      3 C3          1.0194   50.3947   22.8625 C.ar      1 UNK         0.0000 
      4 C4          0.1851   50.3908   21.7325 C.ar      1 UNK         0.0000 
      5 C5         -0.9635   49.5835   21.7318 C.ar      1 UNK         0.0000 
      6 C6         -1.2645   48.7834   22.8316 C.ar      1 UNK         0.0000 
      7 C7          0.4725   51.2769   20.5467 C.2       1 UNK         0.0000 
      8 O8         -0.4531   51.7845   19.9083 O.2       1 UNK         0.0000 
      9 N9          1.7706   51.4781   20.2470 N.am      1 UNK         0.0000 
     10 C10         2.2697   52.3926   19.2051 C.3       1 UNK         0.0000 
     11 H11         1.6316   53.2750   19.2795 H         1 UNK         0.0000 
     12 C12         2.0826   51.8542   17.7664 C.3       1 UNK         0.0000 
     13 C13         2.4887   52.8838   16.6964 C.3       1 UNK         0.0000 
     14 C14         3.9003   53.4389   16.9309 C.3       1 UNK         0.0000 
     15 C15         4.0936   53.9778   18.3619 C.3       1 UNK         0.0000 
     16 C16         3.7157   52.9318   19.4485 C.3       1 UNK         0.0000 
     17 H17         4.3928   52.0879   19.3065 H         1 UNK         0.0000 
     18 N18         3.9238   53.3282   20.8515 N.am      1 UNK         0.0000 
     19 C19         4.9638   53.9618   21.4225 C.2       1 UNK         0.0000 
     20 O20         5.8630   54.4977   20.7797 O.2       1 UNK         0.0000 
     21 C21         5.0239   53.9157   22.9647 C.3       1 UNK         0.0000 
     22 H22         5.1618   52.8628   23.1647 H         1 UNK         0.0000 
     23 C23         6.2700   54.6218   23.5642 C.3       1 UNK         0.0000 
     24 C24         6.1912   54.5756   25.0997 C.3       1 UNK         0.0000 
     25 C25         4.8417   55.1105   25.6061 C.3       1 UNK         0.0000 
     26 N26         3.7677   54.2532   25.0662 N.am      1 UNK         0.0000 
     27 C27         3.6488   54.2883   23.5909 C.3       1 UNK         0.0000 
     28 C28         2.7470   53.7143   25.8045 C.2       1 UNK         0.0000 
     29 O29         1.7483   53.2569   25.2376 O.2       1 UNK         0.0000 
     30 C30         2.8238   53.5473   27.3671 C.3       1 UNK         0.0000 
     31 C31         4.2375   53.0306   27.8184 C.3       1 UNK         0.0000 
     32 C32         4.2957   52.8645   29.3336 C.3       1 UNK         0.0000 
     33 C33         4.0512   54.2522   29.9448 C.3       1 UNK         0.0000 
     34 C34         2.6056   54.7418   29.6151 C.3       1 UNK         0.0000 
     35 C35         2.4761   54.8924   28.0786 C.3       1 UNK         0.0000 
     36 C36         1.5414   53.7120   30.0814 C.3       1 UNK         0.0000 
     37 C37         1.8171   52.3470   29.4060 C.3       1 UNK         0.0000 
     38 C38         3.2267   51.8660   29.8108 C.3       1 UNK         0.0000 
     39 C39         1.7601   52.4974   27.8628 C.3       1 UNK         0.0000 
     40 H40        -0.6601   48.1855   24.8045 H         1 UNK         0.0000 
     41 H41         1.3435   49.6076   24.8386 H         1 UNK         0.0000 
     42 H42         1.8984   51.0216   22.9105 H         1 UNK         0.0000 
     43 H43        -1.6253   49.5743   20.8789 H         1 UNK         0.0000 
     44 H44        -2.1487   48.1642   22.8261 H         1 UNK         0.0000 
     45 H45         2.4586   50.8864   20.6895 H         1 UNK         0.0000 
     46 H46         2.6797   50.9469   17.6394 H         1 UNK         0.0000 
     47 H47         1.0475   51.5596   17.5981 H         1 UNK         0.0000 
     48 H48         1.7726   53.7047   16.6986 H         1 UNK         0.0000 
     49 H49         2.4289   52.4297   15.7044 H         1 UNK         0.0000 
     50 H50         4.1117   54.2275   16.2060 H         1 UNK         0.0000 
     51 H51         4.6320   52.6514   16.7407 H         1 UNK         0.0000 
     52 H52         3.4887   54.8757   18.4951 H         1 UNK         0.0000 
     53 H53         5.1340   54.2832   18.4561 H         1 UNK         0.0000 
     54 H54         3.2024   52.9943   21.4722 H         1 UNK         0.0000 
     55 H55         7.1948   54.1204   23.2687 H         1 UNK         0.0000 
     56 H56         6.3045   55.6781   23.2898 H         1 UNK         0.0000 
     57 H57         6.3574   53.5635   25.4704 H         1 UNK         0.0000 
     58 H58         7.0008   55.1780   25.5132 H         1 UNK         0.0000 
     59 H59         4.8162   55.3223   26.6673 H         1 UNK         0.0000 
     60 H60         4.7046   56.0964   25.1884 H         1 UNK         0.0000 
     61 H61         3.3629   55.2919   23.2914 H         1 UNK         0.0000 
     62 H62         2.9098   53.5686   23.2307 H         1 UNK         0.0000 
     63 H63         4.4731   52.0967   27.3399 H         1 UNK         0.0000 
     64 H64         5.0870   53.6521   27.5690 H         1 UNK         0.0000 
     65 H65         5.2768   52.4967   29.6146 H         1 UNK         0.0000 
     66 H66         4.2920   54.1834   31.0012 H         1 UNK         0.0000 
     67 H67         4.7787   54.9715   29.5602 H         1 UNK         0.0000 
     68 H68         2.4142   55.7061   30.0849 H         1 UNK         0.0000 
     69 H69         3.1165   55.6965   27.7460 H         1 UNK         0.0000 
     70 H70         1.4646   55.2111   27.8217 H         1 UNK         0.0000 
     71 H71         1.5407   53.6023   31.1667 H         1 UNK         0.0000 
     72 H72         0.5387   54.0608   29.8277 H         1 UNK         0.0000 
     73 H73         1.0661   51.6219   29.7267 H         1 UNK         0.0000 
     74 H74         3.4227   50.8965   29.3603 H         1 UNK         0.0000 
     75 H75         3.2886   51.7298   30.8931 H         1 UNK         0.0000 
     76 H76         0.7518   52.8037   27.5800 H         1 UNK         0.0000 
     77 H77         1.9095   51.5242   27.3911 H         1 UNK         0.0000 
@<TRIPOS>BOND
     1    1    6 ar   
     2    1    2 ar   
     3    1   40 1    
     4    2    3 ar   
     5    2   41 1    
     6    3    4 ar   
     7    3   42 1    
     8    4    5 ar   
     9    4    7 1    
    10    5    6 ar   
    11    5   43 1    
    12    6   44 1    
    13    7    8 2    
    14    7    9 am   BACKBONE|DICT|INTERRES
    15    9   10 1    
    16    9   45 1    
    17   10   11 1    
    18   10   16 1    
    19   10   12 1    
    20   12   13 1    
    21   12   46 1    
    22   12   47 1    
    23   13   14 1    
    24   13   48 1    
    25   13   49 1    
    26   14   15 1    
    27   14   50 1    
    28   14   51 1    
    29   15   16 1    
    30   15   52 1    
    31   15   53 1    
    32   16   17 1    
    33   16   18 1    
    34   18   19 am   BACKBONE|DICT|INTERRES
    35   18   54 1    
    36   19   20 2    
    37   19   21 1    
    38   21   22 1    
    39   21   27 1    
    40   21   23 1    
    41   23   24 1    
    42   23   55 1    
    43   23   56 1    
    44   24   25 1    
    45   24   57 1    
    46   24   58 1    
    47   25   26 1    
    48   25   59 1    
    49   25   60 1    
    50   26   27 1    
    51   26   28 am   BACKBONE|DICT|INTERRES
    52   27   61 1    
    53   27   62 1    
    54   28   29 2    
    55   28   30 1    
    56   30   35 1    
    57   30   39 1    
    58   30   31 1    
    59   31   32 1    
    60   31   63 1    
    61   31   64 1    
    62   32   38 1    
    63   32   33 1    
    64   32   65 1    
    65   33   34 1    
    66   33   66 1    
    67   33   67 1    
    68   34   35 1    
    69   34   36 1    
    70   34   68 1    
    71   35   69 1    
    72   35   70 1    
    73   36   37 1    
    74   36   71 1    
    75   36   72 1    
    76   37   38 1    
    77   37   39 1    
    78   37   73 1    
    79   38   74 1    
    80   38   75 1    
    81   39   76 1    
    82   39   77 1    
@<TRIPOS>SUBSTRUCTURE
     1 UNK         1 GROUP             0       ****    0 ROOT    
