@<TRIPOS>MOLECULE
ZINC14276648_3164
62   66    1
SMALL
USER_CHARGES


@<TRIPOS>ATOM
      1 C1          0.7044   45.5175   17.6702 C.ar      1 UNK         0.0000 
      2 C2          1.3735   46.4141   16.8408 C.ar      1 UNK         0.0000 
      3 C3          1.3912   47.7687   17.1631 C.ar      1 UNK         0.0000 
      4 C4          0.7488   48.2234   18.3184 C.ar      1 UNK         0.0000 
      5 C5          0.0777   47.3127   19.1459 C.ar      1 UNK         0.0000 
      6 C6          0.0574   45.9583   18.8226 C.ar      1 UNK         0.0000 
      7 C7          0.7313   49.7007   18.6273 C.2       1 UNK         0.0000 
      8 O8          0.2345   50.4638   17.7953 O.2       1 UNK         0.0000 
      9 N9          1.2177   50.1308   19.8232 N.am      1 UNK         0.0000 
     10 C10         1.9801   49.2945   20.7595 C.3       1 UNK         0.0000 
     11 C11         1.2920   49.3541   22.1398 C.3       1 UNK         0.0000 
     12 N12         0.9700   50.7026   22.6389 N.pl3     1 UNK         0.0000 
     13 C13         0.4059   51.5906   21.6036 C.3       1 UNK         0.0000 
     14 C14         1.1039   51.5376   20.2238 C.3       1 UNK         0.0000 
     15 C15         0.7190   50.9383   23.9888 C.ar      1 UNK         0.0000 
     16 C16         0.8634   52.2323   24.5000 C.ar      1 UNK         0.0000 
     17 C17         0.6580   52.4843   25.8487 C.ar      1 UNK         0.0000 
     18 C18         0.3344   51.4459   26.7268 C.ar      1 UNK         0.0000 
     19 C19         0.1640   50.1534   26.2278 C.ar      1 UNK         0.0000 
     20 C20         0.3551   49.9052   24.8698 C.ar      1 UNK         0.0000 
     21 N21         0.1704   51.6918   28.1067 N.pl3     1 UNK         0.0000 
     22 C22         0.9429   52.4671   28.9274 C.2       1 UNK         0.0000 
     23 S23         0.3047   52.8955   30.4098 S.2       1 UNK         0.0000 
     24 N24         2.1831   52.7905   28.4321 N.am      1 UNK         0.0000 
     25 C25         3.2077   53.5467   28.9045 C.2       1 UNK         0.0000 
     26 O26         3.3602   53.8922   30.0803 O.2       1 UNK         0.0000 
     27 C27         4.2375   53.9186   27.8633 C.ar      1 UNK         0.0000 
     28 C28         5.5591   54.1927   28.2422 C.ar      1 UNK         0.0000 
     29 C29         6.5267   54.5181   27.2928 C.ar      1 UNK         0.0000 
     30 C30         6.1773   54.5986   25.9515 C.ar      1 UNK         0.0000 
     31 C31         4.8634   54.3269   25.5510 C.ar      1 UNK         0.0000 
     32 C32         3.9014   54.0109   26.5007 C.ar      1 UNK         0.0000 
     33 O33         4.4643   54.4066   24.2326 O.3       1 UNK         0.0000 
     34 C34         5.5477   54.3167   23.3006 C.3       1 UNK         0.0000 
     35 C35         6.6966   55.2529   23.7470 C.3       1 UNK         0.0000 
     36 O36         7.1697   54.8877   25.0451 O.3       1 UNK         0.0000 
     37 H37         0.6849   44.4690   17.4122 H         1 UNK         0.0000 
     38 H38         1.8738   46.0684   15.9489 H         1 UNK         0.0000 
     39 H39         1.9045   48.4642   16.5136 H         1 UNK         0.0000 
     40 H40        -0.4426   47.6551   20.0301 H         1 UNK         0.0000 
     41 H41        -0.4635   45.2562   19.4564 H         1 UNK         0.0000 
     42 H42         2.9846   49.7094   20.8436 H         1 UNK         0.0000 
     43 H43         2.1285   48.2681   20.4248 H         1 UNK         0.0000 
     44 H44         1.9084   48.8284   22.8683 H         1 UNK         0.0000 
     45 H45         0.3339   48.8393   22.0463 H         1 UNK         0.0000 
     46 H46        -0.6132   51.2312   21.4544 H         1 UNK         0.0000 
     47 H47         0.3398   52.6232   21.9381 H         1 UNK         0.0000 
     48 H48         0.5638   52.1482   19.4988 H         1 UNK         0.0000 
     49 H49         2.1011   51.9721   20.2967 H         1 UNK         0.0000 
     50 H50         1.1641   53.0512   23.8627 H         1 UNK         0.0000 
     51 H51         0.7723   53.4901   26.2178 H         1 UNK         0.0000 
     52 H52        -0.0980   49.3318   26.8818 H         1 UNK         0.0000 
     53 H53         0.2330   48.8927   24.5178 H         1 UNK         0.0000 
     54 H54        -0.6745   51.3111   28.5105 H         1 UNK         0.0000 
     55 H55         2.3132   52.5076   27.4729 H         1 UNK         0.0000 
     56 H56         5.8530   54.1487   29.2811 H         1 UNK         0.0000 
     57 H57         7.5386   54.7171   27.6104 H         1 UNK         0.0000 
     58 H58         2.8997   53.8409   26.1493 H         1 UNK         0.0000 
     59 H59         5.9139   53.2897   23.2712 H         1 UNK         0.0000 
     60 H60         5.2031   54.5712   22.2992 H         1 UNK         0.0000 
     61 H61         7.5027   55.2362   23.0179 H         1 UNK         0.0000 
     62 H62         6.3050   56.2706   23.7986 H         1 UNK         0.0000 
@<TRIPOS>BOND
     1    1    6 ar   
     2    1    2 ar   
     3    1   37 1    
     4    2    3 ar   
     5    2   38 1    
     6    3    4 ar   
     7    3   39 1    
     8    4    5 ar   
     9    4    7 1    
    10    5    6 ar   
    11    5   40 1    
    12    6   41 1    
    13    7    8 2    
    14    7    9 am   BACKBONE|DICT|INTERRES
    15    9   14 1    
    16    9   10 1    
    17   10   11 1    
    18   10   42 1    
    19   10   43 1    
    20   11   12 1    
    21   11   44 1    
    22   11   45 1    
    23   12   13 1    
    24   12   15 1    
    25   13   14 1    
    26   13   46 1    
    27   13   47 1    
    28   14   48 1    
    29   14   49 1    
    30   15   20 ar   
    31   15   16 ar   
    32   16   17 ar   
    33   16   50 1    
    34   17   18 ar   
    35   17   51 1    
    36   18   19 ar   
    37   18   21 1    
    38   19   20 ar   
    39   19   52 1    
    40   20   53 1    
    41   21   22 1    
    42   21   54 1    
    43   22   23 2    
    44   22   24 am   BACKBONE|DICT|INTERRES
    45   24   25 am   BACKBONE|DICT|INTERRES
    46   24   55 1    
    47   25   26 2    
    48   25   27 1    
    49   27   32 ar   
    50   27   28 ar   
    51   28   29 ar   
    52   28   56 1    
    53   29   30 ar   
    54   29   57 1    
    55   30   36 1    
    56   30   31 ar   
    57   31   32 ar   
    58   31   33 1    
    59   32   58 1    
    60   33   34 1    
    61   34   35 1    
    62   34   59 1    
    63   34   60 1    
    64   35   36 1    
    65   35   61 1    
    66   35   62 1    
@<TRIPOS>SUBSTRUCTURE
     1 UNK         1 GROUP             0       ****    0 ROOT    
