@<TRIPOS>MOLECULE
ZINC39884037_4045
57   62    1
SMALL
USER_CHARGES


@<TRIPOS>ATOM
      1 C1         -7.5908   45.6382   28.5965 C.3       1 UNK         0.0000 
      2 C2         -6.7909   45.2048   27.3574 C.3       1 UNK         0.0000 
      3 C3         -7.6703   45.2229   26.0929 C.3       1 UNK         0.0000 
      4 O4         -5.6822   46.0957   27.2506 O.3       1 UNK         0.0000 
      5 C5         -4.6351   45.8672   26.4268 C.2       1 UNK         0.0000 
      6 O6         -4.4955   44.8959   25.6811 O.2       1 UNK         0.0000 
      7 C7         -3.5593   46.9609   26.5191 C.3       1 UNK         0.0000 
      8 N8         -3.9778   48.2003   25.8342 N.am      1 UNK         0.0000 
      9 C9         -3.4805   48.5519   24.6172 C.2       1 UNK         0.0000 
     10 O10        -2.6858   47.9212   23.9202 O.2       1 UNK         0.0000 
     11 C11        -4.1115   49.8848   24.2224 C.3       1 UNK         0.0000 
     12 H12        -4.6559   49.7576   23.2814 H         1 UNK         0.0000 
     13 C13        -3.1810   51.1459   24.2023 C.3       1 UNK         0.0000 
     14 H14        -2.6128   51.2459   23.2748 H         1 UNK         0.0000 
     15 C15        -4.2536   52.2194   24.4260 C.3       1 UNK         0.0000 
     16 C16        -4.6817   51.6513   25.7851 C.3       1 UNK         0.0000 
     17 H17        -5.4911   52.1976   26.2687 H         1 UNK         0.0000 
     18 C18        -5.0747   50.1996   25.3484 C.3       1 UNK         0.0000 
     19 H19        -6.1065   50.1601   24.9918 H         1 UNK         0.0000 
     20 C20        -4.8559   49.0943   26.3697 C.2       1 UNK         0.0000 
     21 O21        -5.4339   49.0297   27.4534 O.2       1 UNK         0.0000 
     22 C22        -3.3193   51.8364   26.4982 C.3       1 UNK         0.0000 
     23 H23        -3.1854   52.9172   26.6006 H         1 UNK         0.0000 
     24 C24        -2.3121   51.2665   25.4975 C.3       1 UNK         0.0000 
     25 H25        -2.0154   50.2701   25.8171 H         1 UNK         0.0000 
     26 C26        -1.0061   52.0968   25.5410 C.3       1 UNK         0.0000 
     27 H27        -1.2640   53.1293   25.2969 H         1 UNK         0.0000 
     28 C28        -0.4589   52.0498   26.9836 C.2       1 UNK         0.0000 
     29 C29        -1.1642   51.6980   28.0877 C.2       1 UNK         0.0000 
     30 N30        -0.4572   51.7086   29.2403 N.am      1 UNK         0.0000 
     31 H31        -0.8610   51.4138   30.1202 H         1 UNK         0.0000 
     32 C32         0.8677   52.0961   29.1700 C.2       1 UNK         0.0000 
     33 O33         1.6865   52.1699   30.0838 O.2       1 UNK         0.0000 
     34 S34         1.2037   52.4618   27.4254 S.3       1 UNK         0.0000 
     35 S35        -2.9168   51.2929   28.1779 S.3       1 UNK         0.0000 
     36 C36         0.0184   51.6722   24.4844 C.ar      1 UNK         0.0000 
     37 C37         0.6011   52.6333   23.6499 C.ar      1 UNK         0.0000 
     38 C38         1.5137   52.2487   22.6695 C.ar      1 UNK         0.0000 
     39 C39         1.8445   50.9052   22.5214 C.ar      1 UNK         0.0000 
     40 C40         1.2708   49.9418   23.3470 C.ar      1 UNK         0.0000 
     41 C41         0.3650   50.3235   24.3324 C.ar      1 UNK         0.0000 
     42 F42         2.7352   50.5323   21.5766 F         1 UNK         0.0000 
     43 H43        -8.4148   44.9505   28.7953 H         1 UNK         0.0000 
     44 H44        -8.0155   46.6343   28.4670 H         1 UNK         0.0000 
     45 H45        -6.9636   45.6685   29.4892 H         1 UNK         0.0000 
     46 H46        -6.4142   44.1936   27.5255 H         1 UNK         0.0000 
     47 H47        -8.5450   44.5863   26.2184 H         1 UNK         0.0000 
     48 H48        -8.0225   46.2306   25.8649 H         1 UNK         0.0000 
     49 H49        -7.1308   44.8530   25.2199 H         1 UNK         0.0000 
     50 H50        -3.3343   47.1819   27.5640 H         1 UNK         0.0000 
     51 H51        -2.6234   46.5915   26.1036 H         1 UNK         0.0000 
     52 H52        -5.0535   52.2099   23.6822 H         1 UNK         0.0000 
     53 H53        -3.8569   53.2395   24.4588 H         1 UNK         0.0000 
     54 H54         0.3503   53.6793   23.7582 H         1 UNK         0.0000 
     55 H55         1.9607   52.9886   22.0216 H         1 UNK         0.0000 
     56 H56         1.5259   48.8979   23.2337 H         1 UNK         0.0000 
     57 H57        -0.0597   49.5659   24.9768 H         1 UNK         0.0000 
@<TRIPOS>BOND
     1    1    2 1    
     2    1   43 1    
     3    1   44 1    
     4    1   45 1    
     5    2    3 1    
     6    2    4 1    
     7    2   46 1    
     8    3   47 1    
     9    3   48 1    
    10    3   49 1    
    11    4    5 1    
    12    5    6 2    
    13    5    7 1    
    14    7    8 1    
    15    7   50 1    
    16    7   51 1    
    17    8   20 am   BACKBONE|DICT|INTERRES
    18    8    9 am   BACKBONE|DICT|INTERRES
    19    9   10 2    
    20    9   11 1    
    21   11   12 1    
    22   11   18 1    
    23   11   13 1    
    24   13   14 1    
    25   13   24 1    
    26   13   15 1    
    27   15   16 1    
    28   15   52 1    
    29   15   53 1    
    30   16   17 1    
    31   16   18 1    
    32   16   22 1    
    33   18   19 1    
    34   18   20 1    
    35   20   21 2    
    36   22   23 1    
    37   22   35 1    
    38   22   24 1    
    39   24   25 1    
    40   24   26 1    
    41   26   27 1    
    42   26   28 1    
    43   26   36 1    
    44   28   34 1    
    45   28   29 2    
    46   29   30 am   BACKBONE|DICT|INTERRES
    47   29   35 1    
    48   30   31 1    
    49   30   32 am   BACKBONE|DICT|INTERRES
    50   32   33 2    
    51   32   34 1    
    52   36   41 ar   
    53   36   37 ar   
    54   37   38 ar   
    55   37   54 1    
    56   38   39 ar   
    57   38   55 1    
    58   39   40 ar   
    59   39   42 1    
    60   40   41 ar   
    61   40   56 1    
    62   41   57 1    
@<TRIPOS>SUBSTRUCTURE
     1 UNK         1 GROUP             0       ****    0 ROOT    
