@<TRIPOS>MOLECULE
ZINC62648116_1344
58   60    1
SMALL
USER_CHARGES


@<TRIPOS>ATOM
      1 C1          2.8426   53.5240   23.3218 C.3       1 UNK         0.0000 
      2 C2          4.2202   54.0279   22.9060 C.ar      1 UNK         0.0000 
      3 C3          4.3985   54.4212   21.5770 C.ar      1 UNK         0.0000 
      4 C4          5.6297   54.8960   21.1038 C.ar      1 UNK         0.0000 
      5 C5          6.7038   54.9411   22.0052 C.ar      1 UNK         0.0000 
      6 C6          6.5529   54.5294   23.3279 C.ar      1 UNK         0.0000 
      7 C7          5.3138   54.0974   23.7954 C.ar      1 UNK         0.0000 
      8 N8          5.2253   53.7405   25.1538 N.am      1 UNK         0.0000 
      9 C9          4.4042   54.3259   26.0379 C.2       1 UNK         0.0000 
     10 O10         3.7074   55.2964   25.7675 O.2       1 UNK         0.0000 
     11 N11         4.4303   53.7598   27.2519 N.am      1 UNK         0.0000 
     12 C12         3.6914   54.2626   28.4207 C.3       1 UNK         0.0000 
     13 C13         4.5107   53.9966   29.6820 C.3       1 UNK         0.0000 
     14 C14         2.2836   53.6835   28.5624 C.2       1 UNK         0.0000 
     15 C15         1.7423   52.5325   27.9651 C.2       1 UNK         0.0000 
     16 C16         0.4472   52.3680   28.4168 C.2       1 UNK         0.0000 
     17 O17         0.1407   53.3841   29.2541 O.3       1 UNK         0.0000 
     18 C18         1.2340   54.1846   29.3421 C.2       1 UNK         0.0000 
     19 C19         1.0891   55.3661   30.2767 C.3       1 UNK         0.0000 
     20 C20        -0.6343   51.3425   28.1809 C.3       1 UNK         0.0000 
     21 N21         5.7561   55.3397   19.7860 N.pl3     1 UNK         0.0000 
     22 C22         6.7706   56.3131   19.3382 C.3       1 UNK         0.0000 
     23 C23         6.2195   57.4042   18.3936 C.3       1 UNK         0.0000 
     24 N24         5.4918   56.7557   17.2021 N.4       1 UNK         0.0000 
     25 C25         4.3845   55.8111   17.7128 C.3       1 UNK         0.0000 
     26 C26         5.0087   54.7575   18.6546 C.3       1 UNK         0.0000 
     27 C27         4.8964   57.8526   16.2890 C.3       1 UNK         0.0000 
     28 H28         2.3093   53.0840   22.4779 H         1 UNK         0.0000 
     29 H29         2.9107   52.7408   24.0772 H         1 UNK         0.0000 
     30 H30         2.2430   54.3403   23.7262 H         1 UNK         0.0000 
     31 H31         3.5417   54.3935   20.9184 H         1 UNK         0.0000 
     32 H32         7.6783   55.2806   21.6897 H         1 UNK         0.0000 
     33 H33         7.4058   54.5788   23.9909 H         1 UNK         0.0000 
     34 H34         5.8846   53.0564   25.4910 H         1 UNK         0.0000 
     35 H35         4.7295   52.7973   27.3032 H         1 UNK         0.0000 
     36 H36         3.5983   55.3479   28.3376 H         1 UNK         0.0000 
     37 H37         3.9973   54.3693   30.5619 H         1 UNK         0.0000 
     38 H38         4.6808   52.9288   29.8182 H         1 UNK         0.0000 
     39 H39         5.4789   54.4978   29.6515 H         1 UNK         0.0000 
     40 H40         2.2555   51.8729   27.2837 H         1 UNK         0.0000 
     41 H41         1.5795   56.2613   29.8933 H         1 UNK         0.0000 
     42 H42         0.0501   55.6172   30.4816 H         1 UNK         0.0000 
     43 H43         1.5042   55.1572   31.2545 H         1 UNK         0.0000 
     44 H44        -0.2726   50.4944   27.5993 H         1 UNK         0.0000 
     45 H45        -1.4788   51.7639   27.6360 H         1 UNK         0.0000 
     46 H46        -1.0229   50.9421   29.1171 H         1 UNK         0.0000 
     47 H47         7.2700   56.7839   20.1818 H         1 UNK         0.0000 
     48 H48         7.5301   55.7196   18.8217 H         1 UNK         0.0000 
     49 H49         7.0379   57.9866   17.9649 H         1 UNK         0.0000 
     50 H50         5.5045   58.0668   18.8830 H         1 UNK         0.0000 
     51 H51         3.9729   55.3263   16.8246 H         1 UNK         0.0000 
     52 H52         3.6158   56.4114   18.2063 H         1 UNK         0.0000 
     53 H53         5.7365   54.1573   18.1030 H         1 UNK         0.0000 
     54 H54         4.2475   54.0416   18.9740 H         1 UNK         0.0000 
     55 H55         4.1658   58.4282   16.8626 H         1 UNK         0.0000 
     56 H56         5.7172   58.4906   15.9594 H         1 UNK         0.0000 
     57 H57         4.4300   57.3575   15.4375 H         1 UNK         0.0000 
     58 H58         6.1623   56.2011   16.6833 H         1 UNK         0.0000 
@<TRIPOS>BOND
     1    1    2 1    
     2    1   28 1    
     3    1   29 1    
     4    1   30 1    
     5    2    7 ar   
     6    2    3 ar   
     7    3    4 ar   
     8    3   31 1    
     9    4    5 ar   
    10    4   21 1    
    11    5    6 ar   
    12    5   32 1    
    13    6    7 ar   
    14    6   33 1    
    15    7    8 1    
    16    8    9 am   BACKBONE|DICT|INTERRES
    17    8   34 1    
    18    9   10 2    
    19    9   11 am   BACKBONE|DICT|INTERRES
    20   11   12 1    
    21   11   35 1    
    22   12   13 1    
    23   12   14 1    
    24   12   36 1    
    25   13   37 1    
    26   13   38 1    
    27   13   39 1    
    28   14   18 2    
    29   14   15 1    
    30   15   16 2    
    31   15   40 1    
    32   16   17 1    
    33   16   20 1    
    34   17   18 1    
    35   18   19 1    
    36   19   41 1    
    37   19   42 1    
    38   19   43 1    
    39   20   44 1    
    40   20   45 1    
    41   20   46 1    
    42   21   26 1    
    43   21   22 1    
    44   22   23 1    
    45   22   47 1    
    46   22   48 1    
    47   23   24 1    
    48   23   49 1    
    49   23   50 1    
    50   24   25 1    
    51   24   27 1    
    52   24   58 1    
    53   25   26 1    
    54   25   51 1    
    55   25   52 1    
    56   26   53 1    
    57   26   54 1    
    58   27   55 1    
    59   27   56 1    
    60   27   57 1    
@<TRIPOS>SUBSTRUCTURE
     1 UNK         1 GROUP             0       ****    0 ROOT    
