@<TRIPOS>MOLECULE
ZINC06613772_2542
36   37    1
SMALL
USER_CHARGES


@<TRIPOS>ATOM
      1 C1          1.5712   52.5644   31.1712 C.3       1 UNK         0.0000 
      2 C2          0.9866   52.3065   29.7953 C.ar      1 UNK         0.0000 
      3 C3         -0.3632   51.9789   29.6822 C.ar      1 UNK         0.0000 
      4 C4         -0.9070   51.6967   28.4334 C.ar      1 UNK         0.0000 
      5 C5         -0.1070   51.7547   27.2895 C.ar      1 UNK         0.0000 
      6 C6          1.2467   52.0810   27.4055 C.ar      1 UNK         0.0000 
      7 C7          1.7928   52.3601   28.6565 C.ar      1 UNK         0.0000 
      8 S8         -0.8500   51.3495   25.7010 S.o2      1 UNK         0.0000 
      9 O9         -2.2846   51.6267   25.8347 O.2       1 UNK         0.0000 
     10 O10        -0.3722   50.0136   25.3293 O.2       1 UNK         0.0000 
     11 N11        -0.2332   52.4967   24.5112 N.pl3     1 UNK         0.0000 
     12 N12         1.0494   52.2216   24.0731 N.pl3     1 UNK         0.0000 
     13 C13         1.4763   52.5700   22.8286 C.2       1 UNK         0.0000 
     14 S14         0.7045   52.0631   21.4445 S.2       1 UNK         0.0000 
     15 N15         2.6266   53.2964   22.7043 N.pl3     1 UNK         0.0000 
     16 C16         3.5055   53.8332   23.6661 C.ar      1 UNK         0.0000 
     17 C17         3.1344   54.1306   24.9855 C.ar      1 UNK         0.0000 
     18 C18         4.0895   54.5671   25.8961 C.ar      1 UNK         0.0000 
     19 C19         5.4080   54.7349   25.4872 C.ar      1 UNK         0.0000 
     20 C20         5.7796   54.4962   24.1662 C.ar      1 UNK         0.0000 
     21 C21         4.8244   54.0518   23.2538 C.ar      1 UNK         0.0000 
     22 Br22        6.7044   55.2966   26.7553 Br        1 UNK         0.0000 
     23 H23         1.0992   53.4401   31.6180 H         1 UNK         0.0000 
     24 H24         1.3659   51.7209   31.8337 H         1 UNK         0.0000 
     25 H25         2.6508   52.7131   31.1401 H         1 UNK         0.0000 
     26 H26        -0.9800   51.9048   30.5681 H         1 UNK         0.0000 
     27 H27        -1.9460   51.4059   28.3641 H         1 UNK         0.0000 
     28 H28         1.8931   52.0964   26.5448 H         1 UNK         0.0000 
     29 H29         2.8437   52.5980   28.7364 H         1 UNK         0.0000 
     30 H30        -0.3128   53.4687   24.8193 H         1 UNK         0.0000 
     31 H31         1.7298   52.2050   24.8178 H         1 UNK         0.0000 
     32 H32         2.9296   53.4394   21.7511 H         1 UNK         0.0000 
     33 H33         2.1157   54.0535   25.3269 H         1 UNK         0.0000 
     34 H34         3.8080   54.7805   26.9168 H         1 UNK         0.0000 
     35 H35         6.8051   54.6386   23.8556 H         1 UNK         0.0000 
     36 H36         5.1245   53.8435   22.2363 H         1 UNK         0.0000 
@<TRIPOS>BOND
     1    1    2 1    
     2    1   23 1    
     3    1   24 1    
     4    1   25 1    
     5    2    7 ar   
     6    2    3 ar   
     7    3    4 ar   
     8    3   26 1    
     9    4    5 ar   
    10    4   27 1    
    11    5    6 ar   
    12    5    8 1    
    13    6    7 ar   
    14    6   28 1    
    15    7   29 1    
    16    8    9 2    
    17    8   10 2    
    18    8   11 1    
    19   11   12 1    
    20   11   30 1    
    21   12   13 1    
    22   12   31 1    
    23   13   14 2    
    24   13   15 1    
    25   15   16 1    
    26   15   32 1    
    27   16   21 ar   
    28   16   17 ar   
    29   17   18 ar   
    30   17   33 1    
    31   18   19 ar   
    32   18   34 1    
    33   19   20 ar   
    34   19   22 1    
    35   20   21 ar   
    36   20   35 1    
    37   21   36 1    
@<TRIPOS>SUBSTRUCTURE
     1 UNK         1 GROUP             0       ****    0 ROOT    
