@<TRIPOS>MOLECULE
ZINC09598267_6111
70   74    1
SMALL
USER_CHARGES


@<TRIPOS>ATOM
      1 C1          8.7010   50.5577   11.3845 C.3       1 UNK         0.0000 
      2 C2          8.0065   51.1024   12.6194 C.ar      1 UNK         0.0000 
      3 C3          6.7062   50.7011   12.9351 C.ar      1 UNK         0.0000 
      4 C4          6.0850   51.1980   14.0802 C.ar      1 UNK         0.0000 
      5 C5          6.7602   52.0969   14.9069 C.ar      1 UNK         0.0000 
      6 C6          8.0617   52.5038   14.5838 C.ar      1 UNK         0.0000 
      7 C7          8.6799   52.0090   13.4375 C.ar      1 UNK         0.0000 
      8 N8          6.1112   52.5004   16.0831 N.am      1 UNK         0.0000 
      9 C9          6.1473   53.7232   16.6555 C.2       1 UNK         0.0000 
     10 O10         6.7792   54.6663   16.1781 O.2       1 UNK         0.0000 
     11 C11         5.4299   53.8328   17.9276 C.2       1 UNK         0.0000 
     12 C12         4.2202   53.2486   18.1578 C.2       1 UNK         0.0000 
     13 N13         3.7036   53.2108   19.4284 N.pl3     1 UNK         0.0000 
     14 C14         4.3521   53.6531   20.5560 C.2       1 UNK         0.0000 
     15 C15         5.5041   54.3683   20.4507 C.2       1 UNK         0.0000 
     16 C16         6.1791   54.5942   19.0617 C.3       1 UNK         0.0000 
     17 H17         7.1693   54.1380   19.1241 H         1 UNK         0.0000 
     18 C18         6.3808   56.0663   18.7078 C.2       1 UNK         0.0000 
     19 C19         5.5064   56.9792   18.1266 C.2       1 UNK         0.0000 
     20 C20         6.0863   58.2133   17.8259 C.2       1 UNK         0.0000 
     21 C21         7.4289   58.3058   18.1601 C.2       1 UNK         0.0000 
     22 S22         7.9456   56.8102   18.8698 S.3       1 UNK         0.0000 
     23 C23         8.3911   59.4515   17.9783 C.3       1 UNK         0.0000 
     24 C24         6.1692   54.8962   21.6629 C.2       1 UNK         0.0000 
     25 O25         7.2480   55.4846   21.6282 O.2       1 UNK         0.0000 
     26 C26         5.5295   54.5780   23.0215 C.3       1 UNK         0.0000 
     27 C27         3.9921   54.3589   22.9757 C.3       1 UNK         0.0000 
     28 H28         3.5054   55.2966   22.7115 H         1 UNK         0.0000 
     29 C29         3.6414   53.3323   21.8707 C.3       1 UNK         0.0000 
     30 C30         3.3904   53.9999   24.3549 C.ar      1 UNK         0.0000 
     31 C31         2.0639   53.5619   24.4520 C.ar      1 UNK         0.0000 
     32 C32         1.5139   53.2046   25.6801 C.ar      1 UNK         0.0000 
     33 C33         2.2669   53.2982   26.8613 C.ar      1 UNK         0.0000 
     34 C34         3.5873   53.7670   26.7936 C.ar      1 UNK         0.0000 
     35 C35         4.1318   54.1095   25.5431 C.ar      1 UNK         0.0000 
     36 O36         4.2908   53.8553   27.9848 O.3       1 UNK         0.0000 
     37 C37         5.6516   54.2771   27.9757 C.3       1 UNK         0.0000 
     38 O38         1.7800   52.9461   28.1094 O.3       1 UNK         0.0000 
     39 C39         0.4810   52.3739   28.2226 C.3       1 UNK         0.0000 
     40 C40         3.2978   52.5747   17.1453 C.3       1 UNK         0.0000 
     41 H41         9.1531   51.3720   10.8194 H         1 UNK         0.0000 
     42 H42         8.0103   50.0397   10.7202 H         1 UNK         0.0000 
     43 H43         9.5037   49.8781   11.6731 H         1 UNK         0.0000 
     44 H44         6.1793   49.9958   12.3087 H         1 UNK         0.0000 
     45 H45         5.0896   50.8646   14.3339 H         1 UNK         0.0000 
     46 H46         8.6082   53.1801   15.2243 H         1 UNK         0.0000 
     47 H47         9.6882   52.3142   13.1974 H         1 UNK         0.0000 
     48 H48         5.5260   51.8072   16.5396 H         1 UNK         0.0000 
     49 H49         2.7346   52.9509   19.5207 H         1 UNK         0.0000 
     50 H50         4.4769   56.7377   17.9042 H         1 UNK         0.0000 
     51 H51         5.5421   59.0274   17.3639 H         1 UNK         0.0000 
     52 H52         7.9294   60.2759   17.4351 H         1 UNK         0.0000 
     53 H53         8.7357   59.8427   18.9335 H         1 UNK         0.0000 
     54 H54         9.2724   59.1503   17.4106 H         1 UNK         0.0000 
     55 H55         5.8273   55.3696   23.7070 H         1 UNK         0.0000 
     56 H56         6.0002   53.6588   23.3717 H         1 UNK         0.0000 
     57 H57         2.5630   53.3884   21.7202 H         1 UNK         0.0000 
     58 H58         3.9180   52.3093   22.1321 H         1 UNK         0.0000 
     59 H59         1.4401   53.4879   23.5744 H         1 UNK         0.0000 
     60 H60         0.4914   52.8577   25.6965 H         1 UNK         0.0000 
     61 H61         5.1496   54.4557   25.5038 H         1 UNK         0.0000 
     62 H62         6.0303   54.2948   28.9965 H         1 UNK         0.0000 
     63 H63         6.2797   53.5952   27.3989 H         1 UNK         0.0000 
     64 H64         5.7570   55.2867   27.5778 H         1 UNK         0.0000 
     65 H65         0.2844   52.1300   29.2656 H         1 UNK         0.0000 
     66 H66        -0.2931   53.0697   27.8960 H         1 UNK         0.0000 
     67 H67         0.3988   51.4475   27.6503 H         1 UNK         0.0000 
     68 H68         3.4065   51.4896   17.2059 H         1 UNK         0.0000 
     69 H69         2.2523   52.8206   17.3412 H         1 UNK         0.0000 
     70 H70         3.5050   52.8876   16.1214 H         1 UNK         0.0000 
@<TRIPOS>BOND
     1    1    2 1    
     2    1   41 1    
     3    1   42 1    
     4    1   43 1    
     5    2    7 ar   
     6    2    3 ar   
     7    3    4 ar   
     8    3   44 1    
     9    4    5 ar   
    10    4   45 1    
    11    5    6 ar   
    12    5    8 1    
    13    6    7 ar   
    14    6   46 1    
    15    7   47 1    
    16    8    9 am   BACKBONE|DICT|INTERRES
    17    8   48 1    
    18    9   10 2    
    19    9   11 1    
    20   11   16 1    
    21   11   12 2    
    22   12   13 1    
    23   12   40 1    
    24   13   14 1    
    25   13   49 1    
    26   14   29 1    
    27   14   15 2    
    28   15   16 1    
    29   15   24 1    
    30   16   17 1    
    31   16   18 1    
    32   18   22 1    
    33   18   19 2    
    34   19   20 1    
    35   19   50 1    
    36   20   21 2    
    37   20   51 1    
    38   21   22 1    
    39   21   23 1    
    40   23   52 1    
    41   23   53 1    
    42   23   54 1    
    43   24   25 2    
    44   24   26 1    
    45   26   27 1    
    46   26   55 1    
    47   26   56 1    
    48   27   28 1    
    49   27   29 1    
    50   27   30 1    
    51   29   57 1    
    52   29   58 1    
    53   30   35 ar   
    54   30   31 ar   
    55   31   32 ar   
    56   31   59 1    
    57   32   33 ar   
    58   32   60 1    
    59   33   34 ar   
    60   33   38 1    
    61   34   35 ar   
    62   34   36 1    
    63   35   61 1    
    64   36   37 1    
    65   37   62 1    
    66   37   63 1    
    67   37   64 1    
    68   38   39 1    
    69   39   65 1    
    70   39   66 1    
    71   39   67 1    
    72   40   68 1    
    73   40   69 1    
    74   40   70 1    
@<TRIPOS>SUBSTRUCTURE
     1 UNK         1 GROUP             0       ****    0 ROOT    
