@<TRIPOS>MOLECULE
ZINC13977493_2991
63   65    1
SMALL
USER_CHARGES


@<TRIPOS>ATOM
      1 C1         10.4270   58.2092   17.8764 C.3       1 UNK         0.0000 
      2 C2          9.0283   57.6184   17.9327 C.ar      1 UNK         0.0000 
      3 C3          8.7334   56.6446   18.8870 C.ar      1 UNK         0.0000 
      4 C4          7.4547   56.0855   18.9731 C.ar      1 UNK         0.0000 
      5 C5          6.4596   56.4698   18.0600 C.ar      1 UNK         0.0000 
      6 C6          6.7601   57.4548   17.1070 C.ar      1 UNK         0.0000 
      7 C7          8.0292   58.0281   17.0436 C.ar      1 UNK         0.0000 
      8 Br8         8.3699   59.3595   15.7209 Br        1 UNK         0.0000 
      9 C9          5.0643   55.8170   18.1281 C.3       1 UNK         0.0000 
     10 C10         3.9413   56.5915   17.4022 C.3       1 UNK         0.0000 
     11 C11         5.1041   54.3539   17.6430 C.3       1 UNK         0.0000 
     12 O12         7.1618   55.1344   19.9227 O.3       1 UNK         0.0000 
     13 C13         7.5343   55.3988   21.2782 C.3       1 UNK         0.0000 
     14 C14         6.4104   54.8969   22.2022 C.2       1 UNK         0.0000 
     15 O15         5.3320   54.5453   21.7177 O.2       1 UNK         0.0000 
     16 N16         6.7043   54.8599   23.5237 N.am      1 UNK         0.0000 
     17 C17         5.8434   54.5843   24.6112 C.ar      1 UNK         0.0000 
     18 C18         6.4406   54.4485   25.8682 C.ar      1 UNK         0.0000 
     19 C19         5.6649   54.2331   27.0060 C.ar      1 UNK         0.0000 
     20 C20         4.2768   54.1528   26.8901 C.ar      1 UNK         0.0000 
     21 C21         3.6700   54.2777   25.6424 C.ar      1 UNK         0.0000 
     22 C22         4.4464   54.4912   24.5112 C.ar      1 UNK         0.0000 
     23 S23         3.2485   53.9074   28.3312 S.o2      1 UNK         0.0000 
     24 O24         4.1197   53.5243   29.4479 O.2       1 UNK         0.0000 
     25 O25         2.3790   55.0841   28.4193 O.2       1 UNK         0.0000 
     26 N26         2.2626   52.5026   27.9343 N.pl3     1 UNK         0.0000 
     27 C27         0.7892   52.6070   28.0068 C.3       1 UNK         0.0000 
     28 C28         0.2185   52.4799   26.5835 C.3       1 UNK         0.0000 
     29 C29        -1.3302   52.4967   26.6266 C.3       1 UNK         0.0000 
     30 C30        -1.9094   51.4904   27.6495 C.3       1 UNK         0.0000 
     31 C31        -1.2369   51.5704   29.0417 C.3       1 UNK         0.0000 
     32 C32         0.2903   51.4804   28.9216 C.3       1 UNK         0.0000 
     33 H33        11.0954   57.7689   18.6190 H         1 UNK         0.0000 
     34 H34        10.8617   58.0429   16.8884 H         1 UNK         0.0000 
     35 H35        10.3871   59.2870   18.0412 H         1 UNK         0.0000 
     36 H36         9.5040   56.3228   19.5743 H         1 UNK         0.0000 
     37 H37         6.0185   57.7874   16.3991 H         1 UNK         0.0000 
     38 H38         4.7831   55.8058   19.1837 H         1 UNK         0.0000 
     39 H39         3.9172   57.6420   17.6947 H         1 UNK         0.0000 
     40 H40         4.0576   56.5520   16.3187 H         1 UNK         0.0000 
     41 H41         2.9643   56.1675   17.6369 H         1 UNK         0.0000 
     42 H42         5.8223   53.7565   18.2047 H         1 UNK         0.0000 
     43 H43         4.1325   53.8713   17.7588 H         1 UNK         0.0000 
     44 H44         5.3795   54.2921   16.5899 H         1 UNK         0.0000 
     45 H45         8.4741   54.8965   21.5077 H         1 UNK         0.0000 
     46 H46         7.6620   56.4658   21.4651 H         1 UNK         0.0000 
     47 H47         7.6744   55.0253   23.7592 H         1 UNK         0.0000 
     48 H48         7.5082   54.5009   25.9739 H         1 UNK         0.0000 
     49 H49         6.1448   54.1371   27.9720 H         1 UNK         0.0000 
     50 H50         2.5989   54.2246   25.5492 H         1 UNK         0.0000 
     51 H51         3.9234   54.6076   23.5760 H         1 UNK         0.0000 
     52 H52         2.6190   51.6524   28.3781 H         1 UNK         0.0000 
     53 H53         0.4712   53.5748   28.3951 H         1 UNK         0.0000 
     54 H54         0.5996   53.2768   25.9426 H         1 UNK         0.0000 
     55 H55         0.5506   51.5422   26.1332 H         1 UNK         0.0000 
     56 H56        -1.6957   53.4892   26.8817 H         1 UNK         0.0000 
     57 H57        -1.7270   52.2848   25.6330 H         1 UNK         0.0000 
     58 H58        -2.9849   51.6384   27.7476 H         1 UNK         0.0000 
     59 H59        -1.7831   50.4818   27.2582 H         1 UNK         0.0000 
     60 H60        -1.4859   52.4950   29.5454 H         1 UNK         0.0000 
     61 H61        -1.6243   50.7869   29.6911 H         1 UNK         0.0000 
     62 H62         0.5477   50.5069   28.5028 H         1 UNK         0.0000 
     63 H63         0.7563   51.5500   29.9044 H         1 UNK         0.0000 
@<TRIPOS>BOND
     1    1    2 1    
     2    1   33 1    
     3    1   34 1    
     4    1   35 1    
     5    2    7 ar   
     6    2    3 ar   
     7    3    4 ar   
     8    3   36 1    
     9    4    5 ar   
    10    4   12 1    
    11    5    6 ar   
    12    5    9 1    
    13    6    7 ar   
    14    6   37 1    
    15    7    8 1    
    16    9   10 1    
    17    9   11 1    
    18    9   38 1    
    19   10   39 1    
    20   10   40 1    
    21   10   41 1    
    22   11   42 1    
    23   11   43 1    
    24   11   44 1    
    25   12   13 1    
    26   13   14 1    
    27   13   45 1    
    28   13   46 1    
    29   14   15 2    
    30   14   16 am   BACKBONE|DICT|INTERRES
    31   16   17 1    
    32   16   47 1    
    33   17   22 ar   
    34   17   18 ar   
    35   18   19 ar   
    36   18   48 1    
    37   19   20 ar   
    38   19   49 1    
    39   20   21 ar   
    40   20   23 1    
    41   21   22 ar   
    42   21   50 1    
    43   22   51 1    
    44   23   24 2    
    45   23   25 2    
    46   23   26 1    
    47   26   27 1    
    48   26   52 1    
    49   27   32 1    
    50   27   28 1    
    51   27   53 1    
    52   28   29 1    
    53   28   54 1    
    54   28   55 1    
    55   29   30 1    
    56   29   56 1    
    57   29   57 1    
    58   30   31 1    
    59   30   58 1    
    60   30   59 1    
    61   31   32 1    
    62   31   60 1    
    63   31   61 1    
    64   32   62 1    
    65   32   63 1    
@<TRIPOS>SUBSTRUCTURE
     1 UNK         1 GROUP             0       ****    0 ROOT    
