@<TRIPOS>MOLECULE
ZINC35402420_5598
63   69    1
SMALL
USER_CHARGES


@<TRIPOS>ATOM
      1 C1          7.1588   55.8459   24.4810 C.3       1 UNK         0.0000 
      2 O2          6.6631   55.4422   25.7533 O.3       1 UNK         0.0000 
      3 C3          5.4330   54.8279   25.7397 C.ar      1 UNK         0.0000 
      4 N4          4.8151   54.5695   26.8763 N.2       1 UNK         0.0000 
      5 C5          3.6664   54.0667   26.4813 C.ar      1 UNK         0.0000 
      6 N6          3.6497   54.0205   25.0917 N.pl3     1 UNK         0.0000 
      7 N7          4.8043   54.4967   24.6325 N.2       1 UNK         0.0000 
      8 C8          2.6680   53.5840   24.1748 C.ar      1 UNK         0.0000 
      9 C9          3.0108   52.8973   23.0027 C.ar      1 UNK         0.0000 
     10 C10         2.0144   52.3628   22.1936 C.ar      1 UNK         0.0000 
     11 C11         0.6758   52.5295   22.5449 C.ar      1 UNK         0.0000 
     12 C12         0.3319   53.2986   23.6652 C.ar      1 UNK         0.0000 
     13 C13         1.3348   53.8464   24.4516 C.ar      1 UNK         0.0000 
     14 N14        -0.2815   52.0625   21.6425 N.am      1 UNK         0.0000 
     15 C15        -1.5029   51.5299   21.8474 C.2       1 UNK         0.0000 
     16 O16        -2.3234   51.6966   20.9439 O.2       1 UNK         0.0000 
     17 C17        -1.9298   50.6797   23.0992 C.3       1 UNK         0.0000 
     18 C18        -0.7573   50.2061   24.0316 C.3       1 UNK         0.0000 
     19 C19        -1.3116   49.3699   25.2152 C.3       1 UNK         0.0000 
     20 C20        -2.0305   48.1120   24.6708 C.3       1 UNK         0.0000 
     21 C21        -3.2030   48.5436   23.7540 C.3       1 UNK         0.0000 
     22 C22        -2.6514   49.3872   22.5745 C.3       1 UNK         0.0000 
     23 C23        -4.2091   49.3987   24.5676 C.3       1 UNK         0.0000 
     24 C24        -3.4987   50.6641   25.1147 C.3       1 UNK         0.0000 
     25 C25        -2.3167   50.2363   26.0227 C.3       1 UNK         0.0000 
     26 C26        -2.9598   51.5101   23.9314 C.3       1 UNK         0.0000 
     27 C27         2.5981   53.6190   27.4466 C.ar      1 UNK         0.0000 
     28 C28         1.7884   52.4964   27.1732 C.ar      1 UNK         0.0000 
     29 C29         0.8239   52.0380   28.0787 C.ar      1 UNK         0.0000 
     30 C30         0.6972   52.7292   29.2739 C.ar      1 UNK         0.0000 
     31 C31         1.4631   53.8243   29.5575 C.ar      1 UNK         0.0000 
     32 C32         2.4210   54.3034   28.6662 C.ar      1 UNK         0.0000 
     33 O33         1.1044   54.3061   30.7771 O.3       1 UNK         0.0000 
     34 C34         0.3173   53.2956   31.3516 C.3       1 UNK         0.0000 
     35 O35        -0.1561   52.4958   30.3043 O.3       1 UNK         0.0000 
     36 H36         8.0191   56.4963   24.6128 H         1 UNK         0.0000 
     37 H37         7.4645   54.9864   23.8828 H         1 UNK         0.0000 
     38 H38         6.4212   56.4230   23.9240 H         1 UNK         0.0000 
     39 H39         4.0453   52.7498   22.7294 H         1 UNK         0.0000 
     40 H40         2.2895   51.8256   21.2966 H         1 UNK         0.0000 
     41 H41        -0.6973   53.5206   23.8948 H         1 UNK         0.0000 
     42 H42         1.1044   54.4866   25.2855 H         1 UNK         0.0000 
     43 H43        -0.0739   52.2758   20.6783 H         1 UNK         0.0000 
     44 H44        -0.2166   51.0289   24.4836 H         1 UNK         0.0000 
     45 H45        -0.0218   49.6270   23.4702 H         1 UNK         0.0000 
     46 H46        -0.4929   49.0620   25.8690 H         1 UNK         0.0000 
     47 H47        -1.3280   47.4826   24.1229 H         1 UNK         0.0000 
     48 H48        -2.3971   47.5042   25.4998 H         1 UNK         0.0000 
     49 H49        -3.7072   47.6577   23.3663 H         1 UNK         0.0000 
     50 H50        -1.9674   48.7803   21.9782 H         1 UNK         0.0000 
     51 H51        -3.4820   49.6369   21.9105 H         1 UNK         0.0000 
     52 H52        -4.6219   48.8132   25.3907 H         1 UNK         0.0000 
     53 H53        -5.0581   49.6812   23.9432 H         1 UNK         0.0000 
     54 H54        -4.2071   51.2570   25.6954 H         1 UNK         0.0000 
     55 H55        -1.8166   51.1142   26.4336 H         1 UNK         0.0000 
     56 H56        -2.6918   49.6785   26.8803 H         1 UNK         0.0000 
     57 H57        -3.7951   51.8301   23.3039 H         1 UNK         0.0000 
     58 H58        -2.5131   52.4228   24.3227 H         1 UNK         0.0000 
     59 H59         1.9043   51.9621   26.2455 H         1 UNK         0.0000 
     60 H60         0.2154   51.1731   27.8555 H         1 UNK         0.0000 
     61 H61         3.0210   55.1693   28.9057 H         1 UNK         0.0000 
     62 H62        -0.4955   53.7005   31.9527 H         1 UNK         0.0000 
     63 H63         0.9250   52.6814   32.0209 H         1 UNK         0.0000 
@<TRIPOS>BOND
     1    1    2 1    
     2    1   36 1    
     3    1   37 1    
     4    1   38 1    
     5    2    3 1    
     6    3    7 ar   
     7    3    4 ar   
     8    4    5 ar   
     9    5    6 ar   
    10    5   27 1    
    11    6    7 ar   
    12    6    8 1    
    13    8   13 ar   
    14    8    9 ar   
    15    9   10 ar   
    16    9   39 1    
    17   10   11 ar   
    18   10   40 1    
    19   11   12 ar   
    20   11   14 1    
    21   12   13 ar   
    22   12   41 1    
    23   13   42 1    
    24   14   15 am   BACKBONE|DICT|INTERRES
    25   14   43 1    
    26   15   16 2    
    27   15   17 1    
    28   17   22 1    
    29   17   26 1    
    30   17   18 1    
    31   18   19 1    
    32   18   44 1    
    33   18   45 1    
    34   19   25 1    
    35   19   20 1    
    36   19   46 1    
    37   20   21 1    
    38   20   47 1    
    39   20   48 1    
    40   21   22 1    
    41   21   23 1    
    42   21   49 1    
    43   22   50 1    
    44   22   51 1    
    45   23   24 1    
    46   23   52 1    
    47   23   53 1    
    48   24   25 1    
    49   24   26 1    
    50   24   54 1    
    51   25   55 1    
    52   25   56 1    
    53   26   57 1    
    54   26   58 1    
    55   27   32 ar   
    56   27   28 ar   
    57   28   29 ar   
    58   28   59 1    
    59   29   30 ar   
    60   29   60 1    
    61   30   35 1    
    62   30   31 ar   
    63   31   32 ar   
    64   31   33 1    
    65   32   61 1    
    66   33   34 1    
    67   34   35 1    
    68   34   62 1    
    69   34   63 1    
@<TRIPOS>SUBSTRUCTURE
     1 UNK         1 GROUP             0       ****    0 ROOT    
