@<TRIPOS>MOLECULE
ZINC00921954_5766
73   77    1
SMALL
USER_CHARGES


@<TRIPOS>ATOM
      1 C1         -1.1420   49.7244   26.0806 C.3       1 UNK         0.0000 
      2 O2         -1.2673   50.8610   25.2343 O.3       1 UNK         0.0000 
      3 C3         -0.2437   51.1889   24.3683 C.ar      1 UNK         0.0000 
      4 C4          0.8784   50.3768   24.1253 C.ar      1 UNK         0.0000 
      5 C5          1.9040   50.8133   23.2820 C.ar      1 UNK         0.0000 
      6 C6          1.8474   52.0820   22.6855 C.ar      1 UNK         0.0000 
      7 C7          0.7038   52.8417   22.8833 C.ar      1 UNK         0.0000 
      8 C8         -0.3377   52.4201   23.7041 C.ar      1 UNK         0.0000 
      9 O9         -1.4040   53.2693   23.8794 O.3       1 UNK         0.0000 
     10 C10        -2.6208   52.8312   23.2879 C.3       1 UNK         0.0000 
     11 C11         2.8841   52.6418   21.7157 C.3       1 UNK         0.0000 
     12 H12         2.3378   53.3778   21.1258 H         1 UNK         0.0000 
     13 C13         3.2271   51.5484   20.6776 C.2       1 UNK         0.0000 
     14 O14         4.3439   51.0438   20.6608 O.2       1 UNK         0.0000 
     15 N15         2.2162   51.2543   19.8386 N.am      1 UNK         0.0000 
     16 C16         2.2195   50.2881   18.7402 C.3       1 UNK         0.0000 
     17 C17         2.2253   48.8159   19.2171 C.3       1 UNK         0.0000 
     18 C18         0.9400   48.4446   19.9900 C.3       1 UNK         0.0000 
     19 C19        -0.3281   48.7339   19.1582 C.3       1 UNK         0.0000 
     20 C20        -0.3424   50.1629   18.5748 C.3       1 UNK         0.0000 
     21 C21         0.9792   50.4837   17.8375 C.3       1 UNK         0.0000 
     22 N22         4.0168   53.5004   22.2670 N.am      1 UNK         0.0000 
     23 C23         4.1808   53.7471   23.6840 C.ar      1 UNK         0.0000 
     24 C24         3.0858   54.0788   24.4985 C.ar      1 UNK         0.0000 
     25 C25         3.1887   54.1410   25.8865 C.ar      1 UNK         0.0000 
     26 C26         4.4393   54.0966   26.4810 C.ar      1 UNK         0.0000 
     27 C27         5.5799   53.9118   25.6914 C.ar      1 UNK         0.0000 
     28 C28         5.4479   53.7008   24.3135 C.ar      1 UNK         0.0000 
     29 O29         6.8531   53.9618   26.2293 O.3       1 UNK         0.0000 
     30 C30         6.9030   53.8296   27.6592 C.3       1 UNK         0.0000 
     31 C31         5.7738   54.6471   28.3283 C.3       1 UNK         0.0000 
     32 O32         4.4966   54.2199   27.8545 O.3       1 UNK         0.0000 
     33 C33         4.8239   54.2304   21.4029 C.2       1 UNK         0.0000 
     34 O34         5.7855   54.8971   21.7991 O.2       1 UNK         0.0000 
     35 C35         4.5281   54.3721   19.8791 C.3       1 UNK         0.0000 
     36 C36         5.7706   54.4421   19.0054 C.2       1 UNK         0.0000 
     37 C37         6.3054   53.4592   18.1779 C.2       1 UNK         0.0000 
     38 C38         7.4924   53.8175   17.5347 C.2       1 UNK         0.0000 
     39 C39         7.8978   55.1000   17.8562 C.2       1 UNK         0.0000 
     40 S40         6.7925   55.8615   18.9493 S.3       1 UNK         0.0000 
     41 H41        -2.0136   49.7064   26.7358 H         1 UNK         0.0000 
     42 H42        -1.1237   48.7937   25.5113 H         1 UNK         0.0000 
     43 H43        -0.2535   49.7827   26.7129 H         1 UNK         0.0000 
     44 H44         0.9766   49.4076   24.5919 H         1 UNK         0.0000 
     45 H45         2.7436   50.1579   23.1065 H         1 UNK         0.0000 
     46 H46         0.7045   53.8133   22.4256 H         1 UNK         0.0000 
     47 H47        -3.3467   53.6440   23.3203 H         1 UNK         0.0000 
     48 H48        -2.4878   52.5476   22.2426 H         1 UNK         0.0000 
     49 H49        -3.0517   51.9851   23.8227 H         1 UNK         0.0000 
     50 H50         1.3355   51.7229   19.9904 H         1 UNK         0.0000 
     51 H51         3.1045   50.4851   18.1385 H         1 UNK         0.0000 
     52 H52         2.3451   48.1554   18.3555 H         1 UNK         0.0000 
     53 H53         3.0982   48.6347   19.8409 H         1 UNK         0.0000 
     54 H54         0.9659   47.3893   20.2605 H         1 UNK         0.0000 
     55 H55         0.8994   49.0031   20.9272 H         1 UNK         0.0000 
     56 H56        -0.3865   48.0165   18.3388 H         1 UNK         0.0000 
     57 H57        -1.2190   48.5728   19.7672 H         1 UNK         0.0000 
     58 H58        -1.1858   50.2769   17.8930 H         1 UNK         0.0000 
     59 H59        -0.5048   50.8818   19.3794 H         1 UNK         0.0000 
     60 H60         0.9551   51.5078   17.4588 H         1 UNK         0.0000 
     61 H61         1.0707   49.8471   16.9551 H         1 UNK         0.0000 
     62 H62         2.1265   54.3028   24.0815 H         1 UNK         0.0000 
     63 H63         2.3129   54.3219   26.4920 H         1 UNK         0.0000 
     64 H64         6.3417   53.4927   23.7433 H         1 UNK         0.0000 
     65 H65         6.7992   52.7831   27.9479 H         1 UNK         0.0000 
     66 H66         7.8739   54.1752   28.0164 H         1 UNK         0.0000 
     67 H67         5.8078   54.5612   29.4101 H         1 UNK         0.0000 
     68 H68         5.9173   55.6965   28.0823 H         1 UNK         0.0000 
     69 H69         3.8585   53.6321   19.4630 H         1 UNK         0.0000 
     70 H70         3.9731   55.2946   19.7423 H         1 UNK         0.0000 
     71 H71         5.8385   52.4963   18.0550 H         1 UNK         0.0000 
     72 H72         8.0328   53.1625   16.8661 H         1 UNK         0.0000 
     73 H73         8.7757   55.6244   17.5087 H         1 UNK         0.0000 
@<TRIPOS>BOND
     1    1    2 1    
     2    1   41 1    
     3    1   42 1    
     4    1   43 1    
     5    2    3 1    
     6    3    8 ar   
     7    3    4 ar   
     8    4    5 ar   
     9    4   44 1    
    10    5    6 ar   
    11    5   45 1    
    12    6    7 ar   
    13    6   11 1    
    14    7    8 ar   
    15    7   46 1    
    16    8    9 1    
    17    9   10 1    
    18   10   47 1    
    19   10   48 1    
    20   10   49 1    
    21   11   12 1    
    22   11   13 1    
    23   11   22 1    
    24   13   14 2    
    25   13   15 am   BACKBONE|DICT|INTERRES
    26   15   16 1    
    27   15   50 1    
    28   16   21 1    
    29   16   17 1    
    30   16   51 1    
    31   17   18 1    
    32   17   52 1    
    33   17   53 1    
    34   18   19 1    
    35   18   54 1    
    36   18   55 1    
    37   19   20 1    
    38   19   56 1    
    39   19   57 1    
    40   20   21 1    
    41   20   58 1    
    42   20   59 1    
    43   21   60 1    
    44   21   61 1    
    45   22   23 1    
    46   22   33 am   BACKBONE|DICT|INTERRES
    47   23   28 ar   
    48   23   24 ar   
    49   24   25 ar   
    50   24   62 1    
    51   25   26 ar   
    52   25   63 1    
    53   26   32 1    
    54   26   27 ar   
    55   27   28 ar   
    56   27   29 1    
    57   28   64 1    
    58   29   30 1    
    59   30   31 1    
    60   30   65 1    
    61   30   66 1    
    62   31   32 1    
    63   31   67 1    
    64   31   68 1    
    65   33   34 2    
    66   33   35 1    
    67   35   36 1    
    68   35   69 1    
    69   35   70 1    
    70   36   40 1    
    71   36   37 2    
    72   37   38 1    
    73   37   71 1    
    74   38   39 2    
    75   38   72 1    
    76   39   40 1    
    77   39   73 1    
@<TRIPOS>SUBSTRUCTURE
     1 UNK         1 GROUP             0       ****    0 ROOT    
