@<TRIPOS>MOLECULE
ZINC64843419_5979
65   68    1
SMALL
USER_CHARGES


@<TRIPOS>ATOM
      1 C1          2.2444   52.9347   27.1489 C.ar      1 UNK         0.0000 
      2 C2          1.0513   52.2194   27.2059 C.ar      1 UNK         0.0000 
      3 C3          0.2072   52.1967   26.0971 C.ar      1 UNK         0.0000 
      4 C4          0.5485   52.8948   24.9368 C.ar      1 UNK         0.0000 
      5 C5          1.7425   53.6048   24.8844 C.ar      1 UNK         0.0000 
      6 C6          2.6187   53.6213   25.9811 C.ar      1 UNK         0.0000 
      7 C7          3.9661   54.3747   25.8857 C.3       1 UNK         0.0000 
      8 C8          4.9971   53.9781   26.9857 C.3       1 UNK         0.0000 
      9 C9          6.3819   54.6286   26.8173 C.3       1 UNK         0.0000 
     10 C10         6.9356   54.4165   25.4024 C.3       1 UNK         0.0000 
     11 C11         5.9786   54.9675   24.3529 C.3       1 UNK         0.0000 
     12 C12         4.5859   54.3280   24.4555 C.3       1 UNK         0.0000 
     13 S13        -1.3157   51.2561   26.1628 S.o2      1 UNK         0.0000 
     14 O14        -2.1630   51.6953   25.0469 O.2       1 UNK         0.0000 
     15 O15        -1.7961   51.3127   27.5469 O.2       1 UNK         0.0000 
     16 N16        -0.8457   49.5746   25.8462 N.pl3     1 UNK         0.0000 
     17 C17        -0.6788   49.1130   24.5354 C.ar      1 UNK         0.0000 
     18 C18        -1.4385   48.0554   24.0353 C.ar      1 UNK         0.0000 
     19 C19        -1.3653   47.6870   22.6744 C.ar      1 UNK         0.0000 
     20 C20        -0.5431   48.4966   21.8350 C.ar      1 UNK         0.0000 
     21 N21         0.2877   49.4372   22.3570 N.ar      1 UNK         0.0000 
     22 C22         0.2278   49.7201   23.6743 C.ar      1 UNK         0.0000 
     23 N23        -0.5386   48.4491   20.4207 N.pl3     1 UNK         0.0000 
     24 C24        -1.7420   48.9388   19.7415 C.3       1 UNK         0.0000 
     25 C25        -2.0238   50.4496   19.8917 C.3       1 UNK         0.0000 
     26 C26        -1.1467   51.4132   19.0669 C.3       1 UNK         0.0000 
     27 C27         0.3460   51.5118   19.4492 C.3       1 UNK         0.0000 
     28 C28         1.2842   50.5218   18.7216 C.3       1 UNK         0.0000 
     29 C29         1.7284   49.2798   19.5214 C.3       1 UNK         0.0000 
     30 C30         0.6958   48.1423   19.6869 C.3       1 UNK         0.0000 
     31 C31        -2.0957   46.4451   22.2152 C.2       1 UNK         0.0000 
     32 O32        -2.0807   46.1296   21.0057 O.co2     1 UNK         0.0000 
     33 O33        -2.6380   45.7204   23.0867 O.co2     1 UNK         0.0000 
     34 H34         2.8755   52.9225   28.0234 H         1 UNK         0.0000 
     35 H35         0.7852   51.6806   28.1051 H         1 UNK         0.0000 
     36 H36        -0.1072   52.8896   24.0773 H         1 UNK         0.0000 
     37 H37         1.9682   54.1354   23.9729 H         1 UNK         0.0000 
     38 H38         3.6721   55.4074   26.0763 H         1 UNK         0.0000 
     39 H39         4.6328   54.2920   27.9652 H         1 UNK         0.0000 
     40 H40         5.1267   52.8951   27.0024 H         1 UNK         0.0000 
     41 H41         6.3133   55.6964   27.0295 H         1 UNK         0.0000 
     42 H42         7.0779   54.2201   27.5513 H         1 UNK         0.0000 
     43 H43         7.9038   54.8970   25.2823 H         1 UNK         0.0000 
     44 H44         7.1027   53.3525   25.2274 H         1 UNK         0.0000 
     45 H45         5.9036   56.0488   24.4813 H         1 UNK         0.0000 
     46 H46         6.3900   54.8066   23.3550 H         1 UNK         0.0000 
     47 H47         4.6467   53.2968   24.1070 H         1 UNK         0.0000 
     48 H48         3.9639   54.8845   23.7540 H         1 UNK         0.0000 
     49 H49        -2.0953   47.5281   24.7142 H         1 UNK         0.0000 
     50 H50         0.9048   50.4857   24.0144 H         1 UNK         0.0000 
     51 H51        -2.6243   48.3826   20.0596 H         1 UNK         0.0000 
     52 H52        -1.6400   48.7102   18.6802 H         1 UNK         0.0000 
     53 H53        -1.9907   50.7305   20.9458 H         1 UNK         0.0000 
     54 H54        -3.0602   50.6127   19.5913 H         1 UNK         0.0000 
     55 H55        -1.5796   52.4085   19.1821 H         1 UNK         0.0000 
     56 H56        -1.2483   51.1861   18.0040 H         1 UNK         0.0000 
     57 H57         0.6749   52.5181   19.1777 H         1 UNK         0.0000 
     58 H58         0.4799   51.4701   20.5301 H         1 UNK         0.0000 
     59 H59         0.8703   50.2223   17.7571 H         1 UNK         0.0000 
     60 H60         2.1982   51.0661   18.4677 H         1 UNK         0.0000 
     61 H61         2.1122   49.5910   20.4927 H         1 UNK         0.0000 
     62 H62         2.5977   48.8546   19.0135 H         1 UNK         0.0000 
     63 H63         1.1796   47.2544   20.0960 H         1 UNK         0.0000 
     64 H64         0.3660   47.8509   18.6882 H         1 UNK         0.0000 
     65 H65        -0.8916   48.9271   26.6311 H         1 UNK         0.0000 
@<TRIPOS>BOND
     1    1    6 ar   
     2    1    2 ar   
     3    1   34 1    
     4    2    3 ar   
     5    2   35 1    
     6    3    4 ar   
     7    3   13 1    
     8    4    5 ar   
     9    4   36 1    
    10    5    6 ar   
    11    5   37 1    
    12    6    7 1    
    13    7   12 1    
    14    7    8 1    
    15    7   38 1    
    16    8    9 1    
    17    8   39 1    
    18    8   40 1    
    19    9   10 1    
    20    9   41 1    
    21    9   42 1    
    22   10   11 1    
    23   10   43 1    
    24   10   44 1    
    25   11   12 1    
    26   11   45 1    
    27   11   46 1    
    28   12   47 1    
    29   12   48 1    
    30   13   14 2    
    31   13   15 2    
    32   13   16 1    
    33   16   17 1    
    34   16   65 1    
    35   17   22 ar   
    36   17   18 ar   
    37   18   19 ar   
    38   18   49 1    
    39   19   20 ar   
    40   19   31 1    
    41   20   21 ar   
    42   20   23 1    
    43   21   22 ar   
    44   22   50 1    
    45   23   30 1    
    46   23   24 1    
    47   24   25 1    
    48   24   51 1    
    49   24   52 1    
    50   25   26 1    
    51   25   53 1    
    52   25   54 1    
    53   26   27 1    
    54   26   55 1    
    55   26   56 1    
    56   27   28 1    
    57   27   57 1    
    58   27   58 1    
    59   28   29 1    
    60   28   59 1    
    61   28   60 1    
    62   29   30 1    
    63   29   61 1    
    64   29   62 1    
    65   30   63 1    
    66   30   64 1    
    67   31   32 2    
    68   31   33 1    
@<TRIPOS>SUBSTRUCTURE
     1 UNK         1 GROUP             0       ****    0 ROOT    
