ZINC27534100_5850
                    3D
 Schrodinger Suite 2024-2.
 60 63  0  0  1  0            999 V2000
    2.5451   54.3674   29.0630 C   0  0  0  0  0  0
    2.5113   52.9546   29.6946 C   0  0  0  0  0  0
    1.9143   51.8852   28.7431 C   0  0  0  0  0  0
    0.4109   52.0902   28.4406 C   0  0  2  0  0  0
    0.2887   53.0502   27.9364 H   0  0  0  0  0  0
   -0.3463   52.2467   29.7705 C   0  0  0  0  0  0
    0.3195   53.2437   30.7380 C   0  0  0  0  0  0
    1.7145   52.9481   30.8820 O   0  0  0  0  0  0
   -0.1695   51.0761   27.5527 N   0  0  0  0  0  0
    0.1271   50.9142   26.2532 C   0  0  0  0  0  0
    0.3055   49.7931   25.7834 O   0  0  0  0  0  0
    0.2090   52.0600   25.5385 N   0  0  0  0  0  0
    0.7933   52.1729   24.3035 C   0  0  0  0  0  0
    0.2535   51.5635   23.2101 C   0  0  0  0  0  0
    0.9784   51.5638   21.8418 C   0  0  0  0  0  0
   -0.0410   51.5092   20.6569 C   0  0  0  0  0  0
    0.6233   51.3574   19.2719 C   0  0  0  0  0  0
    1.5466   50.1276   19.2189 C   0  0  0  0  0  0
    2.5599   50.1126   20.3767 C   0  0  0  0  0  0
    1.8852   50.2992   21.7546 C   0  0  0  0  0  0
    1.8120   52.8800   21.7420 C   0  0  0  0  0  0
    2.6182   53.2301   22.9806 C   0  0  0  0  0  0
    2.0497   52.9756   24.2378 C   0  0  0  0  0  0
    2.7046   53.4607   25.3807 C   0  0  0  0  0  0
    3.9371   54.1041   25.2851 C   0  0  0  0  0  0
    4.5292   54.2827   24.0401 C   0  0  0  0  0  0
    3.8623   53.8634   22.8930 C   0  0  0  0  0  0
   -0.9898   50.8522   23.3036 C   0  0  0  0  0  0
   -2.0139   50.3113   23.3329 N   0  0  0  0  0  0
    3.9035   52.4948   30.1565 C   0  0  0  0  0  0
    3.2715   54.4123   28.2527 H   0  0  0  0  0  0
    1.5872   54.6880   28.6554 H   0  0  0  0  0  0
    2.8439   55.1152   29.7978 H   0  0  0  0  0  0
    2.0043   50.9054   29.2146 H   0  0  0  0  0  0
    2.5053   51.8142   27.8323 H   0  0  0  0  0  0
   -1.3843   52.4999   29.5922 H   0  0  0  0  0  0
   -0.3783   51.2965   30.2905 H   0  0  0  0  0  0
    0.1743   54.2629   30.3770 H   0  0  0  0  0  0
   -0.1524   53.1934   31.7205 H   0  0  0  0  0  0
   -0.5172   50.2426   28.0136 H   0  0  0  0  0  0
   -0.0163   52.9203   26.0129 H   0  0  0  0  0  0
   -0.6780   52.3945   20.6649 H   0  0  0  0  0  0
   -0.7148   50.6592   20.7798 H   0  0  0  0  0  0
    1.1905   52.2553   19.0270 H   0  0  0  0  0  0
   -0.1440   51.2732   18.5014 H   0  0  0  0  0  0
    2.0764   50.0959   18.2649 H   0  0  0  0  0  0
    0.9427   49.2200   19.2590 H   0  0  0  0  0  0
    3.3117   50.8853   20.2144 H   0  0  0  0  0  0
    3.1036   49.1710   20.3617 H   0  0  0  0  0  0
    1.2906   49.4091   21.9695 H   0  0  0  0  0  0
    2.6531   50.3284   22.5309 H   0  0  0  0  0  0
    2.4355   52.9125   20.8476 H   0  0  0  0  0  0
    1.1048   53.6965   21.6463 H   0  0  0  0  0  0
    2.2735   53.3304   26.3563 H   0  0  0  0  0  0
    4.4401   54.4489   26.1759 H   0  0  0  0  0  0
    5.4867   54.7766   23.9601 H   0  0  0  0  0  0
    4.3026   54.0509   21.9240 H   0  0  0  0  0  0
    4.6083   52.4483   29.3250 H   0  0  0  0  0  0
    4.3044   53.1866   30.8971 H   0  0  0  0  0  0
    3.8777   51.5129   30.6274 H   0  0  0  0  0  0
  1  2  1  0  0  0
  1 31  1  0  0  0
  1 32  1  0  0  0
  1 33  1  0  0  0
  2  8  1  0  0  0
  2  3  1  0  0  0
  2 30  1  0  0  0
  3  4  1  0  0  0
  3 34  1  0  0  0
  3 35  1  0  0  0
  4  5  1  0  0  0
  4  6  1  0  0  0
  4  9  1  0  0  0
  6  7  1  0  0  0
  6 36  1  0  0  0
  6 37  1  0  0  0
  7  8  1  0  0  0
  7 38  1  0  0  0
  7 39  1  0  0  0
  9 10  1  0  0  0
  9 40  1  0  0  0
 10 11  2  0  0  0
 10 12  1  0  0  0
 12 13  1  0  0  0
 12 41  1  0  0  0
 13 23  1  0  0  0
 13 14  2  0  0  0
 14 15  1  0  0  0
 14 28  1  0  0  0
 15 20  1  0  0  0
 15 16  1  0  0  0
 15 21  1  0  0  0
 16 17  1  0  0  0
 16 42  1  0  0  0
 16 43  1  0  0  0
 17 18  1  0  0  0
 17 44  1  0  0  0
 17 45  1  0  0  0
 18 19  1  0  0  0
 18 46  1  0  0  0
 18 47  1  0  0  0
 19 20  1  0  0  0
 19 48  1  0  0  0
 19 49  1  0  0  0
 20 50  1  0  0  0
 20 51  1  0  0  0
 21 22  1  0  0  0
 21 52  1  0  0  0
 21 53  1  0  0  0
 22 27  2  0  0  0
 22 23  1  0  0  0
 23 24  2  0  0  0
 24 25  1  0  0  0
 24 54  1  0  0  0
 25 26  2  0  0  0
 25 55  1  0  0  0
 26 27  1  0  0  0
 26 56  1  0  0  0
 27 57  1  0  0  0
 28 29  3  0  0  0
 30 58  1  0  0  0
 30 59  1  0  0  0
 30 60  1  0  0  0
M  END
> <i_i_glide_confnum>
66

> <i_i_glide_lignum>
5851

> <i_i_glide_posenum>
166

> <i_i_glide_rotatable_bonds>
5

> <i_m_Source_File_Index>
5543

> <b_m_subgroup_collapsed>
0

> <r_i_docking_score>
-2.70791

> <r_i_glide_ecoul>
0.107497

> <r_i_glide_eff_state_penalty>
0

> <r_i_glide_einternal>
7.78149

> <r_i_glide_emodel>
-37.0277

> <r_i_glide_energy>
-40.5981

> <r_i_glide_erotb>
0.504604

> <r_i_glide_esite>
-0.102381

> <r_i_glide_evdw>
-40.7056

> <r_i_glide_gscore>
-2.70791

> <r_i_glide_hbond>
-0.221562

> <r_i_glide_ligand_efficiency>
-0.0933762

> <r_i_glide_ligand_efficiency_ln>
-0.620043

> <r_i_glide_ligand_efficiency_sa>
-0.286881

> <r_i_glide_lipo>
-2.3559

> <r_i_glide_metal>
0

> <r_i_glide_rewards>
1.48648

> <s_i_glide_gridfile>
wee1_glide-grid

> <s_m_Source_File>
wee1_decoys_glide_SP.sdf

> <s_m_Source_Path>
/Users/zhangxujun/Desktop

> <s_m_entry_id>
5818

> <s_m_entry_name>
wee1_decoys_glide_SP.5543

> <s_m_subgroup_title>
wee1_decoys_glide_SP

> <s_m_subgroupid>
wee1_decoys_glide_SP


$$$$
