@<TRIPOS>MOLECULE
ZINC39609096_371
76   81    1
SMALL
USER_CHARGES


@<TRIPOS>ATOM
      1 C1          6.7006   54.4957   25.5961 C.ar      1 UNK         0.0000 
      2 C2          6.7079   54.4792   26.9894 C.ar      1 UNK         0.0000 
      3 C3          5.5099   54.4784   27.6929 C.ar      1 UNK         0.0000 
      4 C4          4.3014   54.4949   26.9976 C.ar      1 UNK         0.0000 
      5 C5          4.2940   54.4948   25.5994 C.ar      1 UNK         0.0000 
      6 C6          5.4955   54.4965   24.8977 C.ar      1 UNK         0.0000 
      7 C7          2.9964   54.5805   27.7634 C.3       1 UNK         0.0000 
      8 O8          2.6268   53.3195   28.2967 O.3       1 UNK         0.0000 
      9 C9          1.2938   53.3081   28.8082 C.3       1 UNK         0.0000 
     10 H10         0.6984   54.1375   28.4118 H         1 UNK         0.0000 
     11 C11         1.3387   53.4756   30.3329 C.3       1 UNK         0.0000 
     12 C12         0.3043   52.4969   30.8938 C.3       1 UNK         0.0000 
     13 C13        -0.4156   51.8994   29.6816 C.3       1 UNK         0.0000 
     14 C14         0.5868   51.9683   28.5240 C.3       1 UNK         0.0000 
     15 H15         1.2990   51.1460   28.6279 H         1 UNK         0.0000 
     16 N16        -0.1234   51.9048   27.2408 N.am      1 UNK         0.0000 
     17 C17         0.3573   52.1998   26.0155 C.2       1 UNK         0.0000 
     18 O18         1.5048   52.5869   25.8261 O.2       1 UNK         0.0000 
     19 C19        -0.6076   52.1832   24.8005 C.3       1 UNK         0.0000 
     20 H20        -0.8470   53.2289   24.6004 H         1 UNK         0.0000 
     21 C21        -1.9222   51.4789   25.1656 C.3       1 UNK         0.0000 
     22 N22        -2.4600   51.0536   23.8784 N.am      1 UNK         0.0000 
     23 C23        -1.4729   51.2098   22.8032 C.3       1 UNK         0.0000 
     24 C24        -0.1155   51.4617   23.5139 C.3       1 UNK         0.0000 
     25 C25         0.8973   52.3088   22.6979 C.3       1 UNK         0.0000 
     26 C26         1.2060   51.6629   21.3327 C.3       1 UNK         0.0000 
     27 N27         1.8359   50.2764   21.5948 N.4       1 UNK         0.0000 
     28 C28         0.9958   49.3546   22.5112 C.3       1 UNK         0.0000 
     29 C29         0.6222   50.1164   23.8026 C.3       1 UNK         0.0000 
     30 C30        -3.7572   50.7100   23.6513 C.2       1 UNK         0.0000 
     31 O31        -4.1598   50.4968   22.5063 O.2       1 UNK         0.0000 
     32 C32        -4.7958   50.5707   24.8032 C.3       1 UNK         0.0000 
     33 H33        -5.4627   49.7511   24.5347 H         1 UNK         0.0000 
     34 C34        -5.5876   51.9052   24.9110 C.3       1 UNK         0.0000 
     35 O35        -6.5236   51.8151   25.9901 O.3       1 UNK         0.0000 
     36 C36        -5.9471   51.3884   27.1706 C.ar      1 UNK         0.0000 
     37 C37        -6.5843   51.7162   28.3685 C.ar      1 UNK         0.0000 
     38 C38        -6.0350   51.2901   29.5822 C.ar      1 UNK         0.0000 
     39 C39        -4.8487   50.5496   29.5975 C.ar      1 UNK         0.0000 
     40 C40        -4.2158   50.2157   28.3989 C.ar      1 UNK         0.0000 
     41 C41        -4.7791   50.6114   27.1857 C.ar      1 UNK         0.0000 
     42 O42        -4.1117   50.2608   26.0296 O.3       1 UNK         0.0000 
     43 H43         7.6243   54.4964   25.0402 H         1 UNK         0.0000 
     44 H44         7.6395   54.4749   27.5331 H         1 UNK         0.0000 
     45 H45         5.5196   54.4819   28.7736 H         1 UNK         0.0000 
     46 H46         3.3600   54.4994   25.0553 H         1 UNK         0.0000 
     47 H47         5.4934   54.4994   23.8188 H         1 UNK         0.0000 
     48 H48         3.0693   55.3334   28.5492 H         1 UNK         0.0000 
     49 H49         2.2259   54.8967   27.0650 H         1 UNK         0.0000 
     50 H50         2.3309   53.2537   30.7290 H         1 UNK         0.0000 
     51 H51         1.0911   54.5001   30.6152 H         1 UNK         0.0000 
     52 H52         0.7980   51.7092   31.4656 H         1 UNK         0.0000 
     53 H53        -0.3965   52.9849   31.5737 H         1 UNK         0.0000 
     54 H54        -0.8018   50.8968   29.8520 H         1 UNK         0.0000 
     55 H55        -1.2950   52.4973   29.4477 H         1 UNK         0.0000 
     56 H56        -1.0165   51.4403   27.2838 H         1 UNK         0.0000 
     57 H57        -1.7070   50.5594   25.7164 H         1 UNK         0.0000 
     58 H58        -2.5760   52.1611   25.7144 H         1 UNK         0.0000 
     59 H59        -1.7481   52.1210   22.2699 H         1 UNK         0.0000 
     60 H60        -1.4635   50.4197   22.0525 H         1 UNK         0.0000 
     61 H61         0.4799   53.2967   22.5037 H         1 UNK         0.0000 
     62 H62         1.8117   52.5027   23.2627 H         1 UNK         0.0000 
     63 H63         0.3226   51.5025   20.7132 H         1 UNK         0.0000 
     64 H64         1.9411   52.2336   20.7619 H         1 UNK         0.0000 
     65 H65         2.0244   49.8140   20.7148 H         1 UNK         0.0000 
     66 H66         0.1378   49.0202   21.9279 H         1 UNK         0.0000 
     67 H67         1.6319   48.4968   22.7276 H         1 UNK         0.0000 
     68 H68         1.5061   50.2642   24.4197 H         1 UNK         0.0000 
     69 H69        -0.0199   49.4648   24.3995 H         1 UNK         0.0000 
     70 H70        -4.9116   52.7406   25.1052 H         1 UNK         0.0000 
     71 H71        -6.1428   52.1138   23.9952 H         1 UNK         0.0000 
     72 H72        -7.4997   52.2882   28.3519 H         1 UNK         0.0000 
     73 H73        -6.5305   51.5288   30.5112 H         1 UNK         0.0000 
     74 H74        -4.4145   50.2276   30.5348 H         1 UNK         0.0000 
     75 H75        -3.2961   49.6507   28.4147 H         1 UNK         0.0000 
     76 H76         2.7374   50.4157   22.0292 H         1 UNK         0.0000 
@<TRIPOS>BOND
     1    1    6 ar   
     2    1    2 ar   
     3    1   43 1    
     4    2    3 ar   
     5    2   44 1    
     6    3    4 ar   
     7    3   45 1    
     8    4    5 ar   
     9    4    7 1    
    10    5    6 ar   
    11    5   46 1    
    12    6   47 1    
    13    7    8 1    
    14    7   48 1    
    15    7   49 1    
    16    8    9 1    
    17    9   10 1    
    18    9   14 1    
    19    9   11 1    
    20   11   12 1    
    21   11   50 1    
    22   11   51 1    
    23   12   13 1    
    24   12   52 1    
    25   12   53 1    
    26   13   14 1    
    27   13   54 1    
    28   13   55 1    
    29   14   15 1    
    30   14   16 1    
    31   16   17 am   BACKBONE|DICT|INTERRES
    32   16   56 1    
    33   17   18 2    
    34   17   19 1    
    35   19   20 1    
    36   19   24 1    
    37   19   21 1    
    38   21   22 1    
    39   21   57 1    
    40   21   58 1    
    41   22   23 1    
    42   22   30 am   BACKBONE|DICT|INTERRES
    43   23   24 1    
    44   23   59 1    
    45   23   60 1    
    46   24   29 1    
    47   24   25 1    
    48   25   26 1    
    49   25   61 1    
    50   25   62 1    
    51   26   27 1    
    52   26   63 1    
    53   26   64 1    
    54   27   28 1    
    55   27   65 1    
    56   27   76 1    
    57   28   29 1    
    58   28   66 1    
    59   28   67 1    
    60   29   68 1    
    61   29   69 1    
    62   30   31 2    
    63   30   32 1    
    64   32   33 1    
    65   32   42 1    
    66   32   34 1    
    67   34   35 1    
    68   34   70 1    
    69   34   71 1    
    70   35   36 1    
    71   36   41 ar   
    72   36   37 ar   
    73   37   38 ar   
    74   37   72 1    
    75   38   39 ar   
    76   38   73 1    
    77   39   40 ar   
    78   39   74 1    
    79   40   41 ar   
    80   40   75 1    
    81   41   42 1    
@<TRIPOS>SUBSTRUCTURE
     1 UNK         1 GROUP             0       ****    0 ROOT    
