ZINC39653015_5538
                    3D
 Schrodinger Suite 2024-2.
 70 73  0  0  1  0            999 V2000
    2.9843   52.6651   30.5471 C   0  0  0  0  0  0
    3.9235   53.5961   30.0172 O   0  0  0  0  0  0
    3.9995   53.7542   28.6461 C   0  0  0  0  0  0
    3.0517   53.2458   27.7483 C   0  0  0  0  0  0
    3.2194   53.3812   26.3691 C   0  0  0  0  0  0
    4.3273   54.0780   25.8776 C   0  0  0  0  0  0
    5.2879   54.6044   26.7589 C   0  0  0  0  0  0
    5.1025   54.4383   28.1344 C   0  0  0  0  0  0
    6.4290   55.2793   26.3645 O   0  0  0  0  0  0
    6.6747   55.4694   24.9759 C   0  0  0  0  0  0
    2.2364   52.6908   25.4309 C   0  0  0  0  0  0
    1.2591   53.5973   24.6898 C   0  0  0  0  0  0
   -0.0274   52.9046   24.5768 N   0  0  0  0  0  0
   -0.5543   52.3879   23.4650 C   0  0  0  0  0  0
   -0.0297   52.4951   22.3582 O   0  0  0  0  0  0
   -1.9116   51.6681   23.6657 C   0  0  1  0  0  0
   -2.4160   52.1192   24.5218 H   0  0  0  0  0  0
   -2.7905   51.6989   22.4084 C   0  0  0  0  0  0
   -2.3118   50.5428   21.6431 N   0  0  0  0  0  0
   -1.6198   49.5677   22.5053 C   0  0  0  0  0  0
   -1.7092   50.1490   23.9406 C   0  0  0  0  0  0
   -0.5155   49.7908   24.8719 C   0  0  0  0  0  0
   -0.3355   48.2865   25.0352 C   0  0  0  0  0  0
   -1.6200   47.7260   25.6818 N   0  3  0  0  0  0
   -2.9180   48.0772   24.9215 C   0  0  0  0  0  0
   -2.9586   49.6068   24.7062 C   0  0  0  0  0  0
   -2.1310   50.6326   20.2987 C   0  0  0  0  0  0
   -2.4828   51.6182   19.6446 O   0  0  0  0  0  0
   -1.4374   49.4909   19.5968 C   0  0  0  0  0  0
   -0.3004   49.7421   18.8188 C   0  0  0  0  0  0
    0.3649   48.6930   18.1885 C   0  0  0  0  0  0
   -0.1169   47.3838   18.3115 C   0  0  0  0  0  0
   -1.2643   47.1366   19.0730 C   0  0  0  0  0  0
   -1.9230   48.1826   19.7108 C   0  0  0  0  0  0
    0.6054   46.2153   17.6436 C   0  0  0  0  0  0
    1.8367   46.5388   17.2444 F   0  0  0  0  0  0
    0.7026   45.1902   18.4929 F   0  0  0  0  0  0
   -0.0957   45.8177   16.5822 F   0  0  0  0  0  0
    3.1838   52.4946   31.6060 H   0  0  0  0  0  0
    1.9612   53.0320   30.4519 H   0  0  0  0  0  0
    3.0633   51.6977   30.0502 H   0  0  0  0  0  0
    2.1915   52.7075   28.1134 H   0  0  0  0  0  0
    4.4493   54.1659   24.8092 H   0  0  0  0  0  0
    5.8379   54.8367   28.8176 H   0  0  0  0  0  0
    7.5917   56.0414   24.8498 H   0  0  0  0  0  0
    6.8017   54.5191   24.4543 H   0  0  0  0  0  0
    5.8765   56.0389   24.5023 H   0  0  0  0  0  0
    1.6765   51.9747   26.0372 H   0  0  0  0  0  0
    2.7434   52.0958   24.6807 H   0  0  0  0  0  0
    1.6659   53.9333   23.7328 H   0  0  0  0  0  0
    1.1068   54.4952   25.2808 H   0  0  0  0  0  0
   -0.5652   52.8374   25.4274 H   0  0  0  0  0  0
   -2.6941   52.6692   21.9213 H   0  0  0  0  0  0
   -3.8116   51.5385   22.7538 H   0  0  0  0  0  0
   -1.9276   48.5280   22.4123 H   0  0  0  0  0  0
   -0.5608   49.6166   22.2415 H   0  0  0  0  0  0
    0.4242   50.1486   24.4508 H   0  0  0  0  0  0
   -0.6043   50.2817   25.8433 H   0  0  0  0  0  0
   -0.1708   47.7548   24.0966 H   0  0  0  0  0  0
    0.4949   48.0970   25.7135 H   0  0  0  0  0  0
   -1.5267   46.7284   25.8105 H   0  0  0  0  0  0
   -2.9118   47.5007   23.9971 H   0  0  0  0  0  0
   -3.7399   47.7268   25.5493 H   0  0  0  0  0  0
   -3.0860   50.1192   25.6621 H   0  0  0  0  0  0
   -3.8698   49.8237   24.1487 H   0  0  0  0  0  0
    0.0860   50.7481   18.7149 H   0  0  0  0  0  0
    1.2533   48.9028   17.6069 H   0  0  0  0  0  0
   -1.6476   46.1306   19.1716 H   0  0  0  0  0  0
   -2.8112   47.9715   20.2902 H   0  0  0  0  0  0
   -1.6846   48.0924   26.6382 H   0  0  0  0  0  0
  1  2  1  0  0  0
  1 39  1  0  0  0
  1 40  1  0  0  0
  1 41  1  0  0  0
  2  3  1  0  0  0
  3  8  2  0  0  0
  3  4  1  0  0  0
  4  5  2  0  0  0
  4 42  1  0  0  0
  5  6  1  0  0  0
  5 11  1  0  0  0
  6  7  2  0  0  0
  6 43  1  0  0  0
  7  8  1  0  0  0
  7  9  1  0  0  0
  8 44  1  0  0  0
  9 10  1  0  0  0
 10 45  1  0  0  0
 10 46  1  0  0  0
 10 47  1  0  0  0
 11 12  1  0  0  0
 11 48  1  0  0  0
 11 49  1  0  0  0
 12 13  1  0  0  0
 12 50  1  0  0  0
 12 51  1  0  0  0
 13 14  1  0  0  0
 13 52  1  0  0  0
 14 15  2  0  0  0
 14 16  1  0  0  0
 16 17  1  0  0  0
 16 21  1  0  0  0
 16 18  1  0  0  0
 18 19  1  0  0  0
 18 53  1  0  0  0
 18 54  1  0  0  0
 19 20  1  0  0  0
 19 27  1  0  0  0
 20 21  1  0  0  0
 20 55  1  0  0  0
 20 56  1  0  0  0
 21 26  1  0  0  0
 21 22  1  0  0  0
 22 23  1  0  0  0
 22 57  1  0  0  0
 22 58  1  0  0  0
 23 24  1  0  0  0
 23 59  1  0  0  0
 23 60  1  0  0  0
 24 25  1  0  0  0
 24 61  1  0  0  0
 24 70  1  0  0  0
 25 26  1  0  0  0
 25 62  1  0  0  0
 25 63  1  0  0  0
 26 64  1  0  0  0
 26 65  1  0  0  0
 27 28  2  0  0  0
 27 29  1  0  0  0
 29 34  2  0  0  0
 29 30  1  0  0  0
 30 31  2  0  0  0
 30 66  1  0  0  0
 31 32  1  0  0  0
 31 67  1  0  0  0
 32 33  2  0  0  0
 32 35  1  0  0  0
 33 34  1  0  0  0
 33 68  1  0  0  0
 34 69  1  0  0  0
 35 36  1  0  0  0
 35 37  1  0  0  0
 35 38  1  0  0  0
M  CHG  1  24   1
M  END
> <i_i_glide_confnum>
12

> <i_i_glide_lignum>
5539

> <i_i_glide_posenum>
62

> <i_i_glide_rotatable_bonds>
10

> <i_m_Source_File_Index>
2785

> <b_m_subgroup_collapsed>
0

> <r_i_docking_score>
-5.02448

> <r_i_glide_ecoul>
-7.59388

> <r_i_glide_eff_state_penalty>
0

> <r_i_glide_einternal>
8.85538

> <r_i_glide_emodel>
-51.4457

> <r_i_glide_energy>
-40.3303

> <r_i_glide_erotb>
0.530889

> <r_i_glide_esite>
-0.155839

> <r_i_glide_evdw>
-32.7364

> <r_i_glide_gscore>
-5.02448

> <r_i_glide_hbond>
-0.586081

> <r_i_glide_ligand_efficiency>
-0.135797

> <r_i_glide_ligand_efficiency_ln>
-1.08969

> <r_i_glide_ligand_efficiency_sa>
-0.452505

> <r_i_glide_lipo>
-2.0095

> <r_i_glide_metal>
0

> <r_i_glide_rewards>
-0.0280469

> <s_i_glide_gridfile>
wee1_glide-grid

> <s_m_Source_File>
wee1_decoys_glide_SP.sdf

> <s_m_Source_Path>
/Users/zhangxujun/Desktop

> <s_m_entry_id>
3060

> <s_m_entry_name>
wee1_decoys_glide_SP.2785

> <s_m_subgroup_title>
wee1_decoys_glide_SP

> <s_m_subgroupid>
wee1_decoys_glide_SP


$$$$
