ZINC39425991_4399
                    3D
 Schrodinger Suite 2024-2.
 56 59  0  0  1  0            999 V2000
    4.6637   53.9270   26.7839 C   0  0  0  0  0  0
    5.5006   54.3550   28.0011 C   0  0  0  0  0  0
    4.7034   54.5225   29.3093 C   0  0  0  0  0  0
    3.9041   53.0184   29.9664 S   0  0  0  0  0  0
    2.3974   53.0628   29.0741 C   0  0  0  0  0  0
    1.7037   54.1382   28.7892 N   0  0  0  0  0  0
    0.5457   53.8542   28.0839 N   0  0  0  0  0  0
    0.3939   52.5729   27.8607 C   0  0  0  0  0  0
    1.6843   51.6000   28.4820 S   0  0  0  0  0  0
   -0.6640   51.9851   27.1880 N   0  0  0  0  0  0
   -0.6887   52.0634   25.7843 C   0  0  0  0  0  0
   -1.7993   51.6685   25.0884 C   0  0  0  0  0  0
   -3.0905   51.1954   25.8070 C   0  0  1  0  0  0
   -3.3445   50.2309   25.3689 H   0  0  0  0  0  0
   -2.8358   50.9686   27.2996 C   0  0  0  0  0  0
   -1.7122   51.3976   27.9140 C   0  0  0  0  0  0
   -1.5508   51.2971   29.2854 N   0  0  0  0  0  0
   -3.9135   50.4150   28.0628 C   0  0  0  0  0  0
   -4.8192   50.0209   28.6676 N   0  0  0  0  0  0
   -4.3038   52.1177   25.5944 C   0  0  0  0  0  0
   -4.2201   53.4290   26.0809 C   0  0  0  0  0  0
   -5.3105   54.2896   26.0125 C   0  0  0  0  0  0
   -6.4899   53.8655   25.4049 C   0  0  0  0  0  0
   -6.5773   52.5771   24.8800 C   0  0  0  0  0  0
   -5.4973   51.6964   24.9754 C   0  0  0  0  0  0
   -5.6989   50.1009   24.3324 Cl  0  0  0  0  0  0
   -1.8505   51.7402   23.6080 C   0  0  0  0  0  0
   -2.8822   51.5654   22.9633 O   0  0  0  0  0  0
   -0.5809   52.2112   22.8919 C   0  0  0  0  0  0
    0.7276   51.8633   23.6297 C   0  0  0  0  0  0
    0.6201   52.4693   25.0550 C   0  0  0  0  0  0
    1.8709   52.5843   22.8878 C   0  0  0  0  0  0
    0.9274   50.3250   23.6835 C   0  0  0  0  0  0
    5.2766   53.9045   25.8816 H   0  0  0  0  0  0
    4.2468   52.9290   26.9174 H   0  0  0  0  0  0
    3.8357   54.6170   26.6064 H   0  0  0  0  0  0
    5.9940   55.3001   27.7692 H   0  0  0  0  0  0
    6.3027   53.6305   28.1579 H   0  0  0  0  0  0
    3.9582   55.3068   29.1877 H   0  0  0  0  0  0
    5.3818   54.8956   30.0793 H   0  0  0  0  0  0
   -2.0961   50.6153   29.8016 H   0  0  0  0  0  0
   -0.7130   51.6301   29.7377 H   0  0  0  0  0  0
   -3.3081   53.7722   26.5465 H   0  0  0  0  0  0
   -5.2353   55.2795   26.4376 H   0  0  0  0  0  0
   -7.3371   54.5333   25.3372 H   0  0  0  0  0  0
   -7.4945   52.2586   24.4032 H   0  0  0  0  0  0
   -0.6751   53.2945   22.8818 H   0  0  0  0  0  0
   -0.5922   51.8730   21.8555 H   0  0  0  0  0  0
    0.6891   53.5576   25.0613 H   0  0  0  0  0  0
    1.4953   52.0812   25.5784 H   0  0  0  0  0  0
    2.0281   52.1638   21.8930 H   0  0  0  0  0  0
    1.6741   53.6508   22.7623 H   0  0  0  0  0  0
    2.8090   52.4940   23.4317 H   0  0  0  0  0  0
    0.8649   49.8859   22.6876 H   0  0  0  0  0  0
    1.9077   50.0665   24.0822 H   0  0  0  0  0  0
    0.1891   49.8181   24.3054 H   0  0  0  0  0  0
  1  2  1  0  0  0
  1 34  1  0  0  0
  1 35  1  0  0  0
  1 36  1  0  0  0
  2  3  1  0  0  0
  2 37  1  0  0  0
  2 38  1  0  0  0
  3  4  1  0  0  0
  3 39  1  0  0  0
  3 40  1  0  0  0
  4  5  1  0  0  0
  5  9  1  0  0  0
  5  6  2  0  0  0
  6  7  1  0  0  0
  7  8  2  0  0  0
  8  9  1  0  0  0
  8 10  1  0  0  0
 10 16  1  0  0  0
 10 11  1  0  0  0
 11 31  1  0  0  0
 11 12  2  0  0  0
 12 13  1  0  0  0
 12 27  1  0  0  0
 13 14  1  0  0  0
 13 15  1  0  0  0
 13 20  1  0  0  0
 15 16  2  0  0  0
 15 18  1  0  0  0
 16 17  1  0  0  0
 17 41  1  0  0  0
 17 42  1  0  0  0
 18 19  3  0  0  0
 20 25  2  0  0  0
 20 21  1  0  0  0
 21 22  2  0  0  0
 21 43  1  0  0  0
 22 23  1  0  0  0
 22 44  1  0  0  0
 23 24  2  0  0  0
 23 45  1  0  0  0
 24 25  1  0  0  0
 24 46  1  0  0  0
 25 26  1  0  0  0
 27 28  2  0  0  0
 27 29  1  0  0  0
 29 30  1  0  0  0
 29 47  1  0  0  0
 29 48  1  0  0  0
 30 31  1  0  0  0
 30 32  1  0  0  0
 30 33  1  0  0  0
 31 49  1  0  0  0
 31 50  1  0  0  0
 32 51  1  0  0  0
 32 52  1  0  0  0
 32 53  1  0  0  0
 33 54  1  0  0  0
 33 55  1  0  0  0
 33 56  1  0  0  0
M  END
> <i_i_glide_confnum>
32

> <i_i_glide_lignum>
4400

> <i_i_glide_posenum>
48

> <i_i_glide_rotatable_bonds>
6

> <i_m_Source_File_Index>
5348

> <b_m_subgroup_collapsed>
0

> <r_i_docking_score>
-3.96996

> <r_i_glide_ecoul>
-1.77811

> <r_i_glide_eff_state_penalty>
0

> <r_i_glide_einternal>
2.88715

> <r_i_glide_emodel>
-47.7355

> <r_i_glide_energy>
-39.1654

> <r_i_glide_erotb>
0.344036

> <r_i_glide_esite>
-0.218217

> <r_i_glide_evdw>
-37.3873

> <r_i_glide_gscore>
-3.96996

> <r_i_glide_hbond>
-0.0403197

> <r_i_glide_ligand_efficiency>
-0.124061

> <r_i_glide_ligand_efficiency_ln>
-0.888982

> <r_i_glide_ligand_efficiency_sa>
-0.39387

> <r_i_glide_lipo>
-1.81231

> <r_i_glide_metal>
0

> <r_i_glide_rewards>
-0.107071

> <s_i_glide_gridfile>
wee1_glide-grid

> <s_m_Source_File>
wee1_decoys_glide_SP.sdf

> <s_m_Source_Path>
/Users/zhangxujun/Desktop

> <s_m_entry_id>
5623

> <s_m_entry_name>
wee1_decoys_glide_SP.5348

> <s_m_subgroup_title>
wee1_decoys_glide_SP

> <s_m_subgroupid>
wee1_decoys_glide_SP


$$$$
