@<TRIPOS>MOLECULE
ZINC39425991_4399
56   59    1
SMALL
USER_CHARGES


@<TRIPOS>ATOM
      1 C1          4.6637   53.9270   26.7839 C.3       1 UNK         0.0000 
      2 C2          5.5006   54.3550   28.0011 C.3       1 UNK         0.0000 
      3 C3          4.7034   54.5225   29.3093 C.3       1 UNK         0.0000 
      4 S4          3.9041   53.0184   29.9664 S.3       1 UNK         0.0000 
      5 C5          2.3974   53.0628   29.0741 C.2       1 UNK         0.0000 
      6 N6          1.7037   54.1382   28.7892 N.2       1 UNK         0.0000 
      7 N7          0.5457   53.8542   28.0839 N.2       1 UNK         0.0000 
      8 C8          0.3939   52.5729   27.8607 C.2       1 UNK         0.0000 
      9 S9          1.6843   51.6000   28.4820 S.3       1 UNK         0.0000 
     10 N10        -0.6640   51.9851   27.1880 N.pl3     1 UNK         0.0000 
     11 C11        -0.6887   52.0634   25.7843 C.2       1 UNK         0.0000 
     12 C12        -1.7993   51.6685   25.0884 C.2       1 UNK         0.0000 
     13 C13        -3.0905   51.1954   25.8070 C.3       1 UNK         0.0000 
     14 H14        -3.3445   50.2309   25.3689 H         1 UNK         0.0000 
     15 C15        -2.8358   50.9686   27.2996 C.2       1 UNK         0.0000 
     16 C16        -1.7122   51.3976   27.9140 C.2       1 UNK         0.0000 
     17 N17        -1.5508   51.2971   29.2854 N.pl3     1 UNK         0.0000 
     18 C18        -3.9135   50.4150   28.0628 C.1       1 UNK         0.0000 
     19 N19        -4.8192   50.0209   28.6676 N.1       1 UNK         0.0000 
     20 C20        -4.3038   52.1177   25.5944 C.ar      1 UNK         0.0000 
     21 C21        -4.2201   53.4290   26.0809 C.ar      1 UNK         0.0000 
     22 C22        -5.3105   54.2896   26.0125 C.ar      1 UNK         0.0000 
     23 C23        -6.4899   53.8655   25.4049 C.ar      1 UNK         0.0000 
     24 C24        -6.5773   52.5771   24.8800 C.ar      1 UNK         0.0000 
     25 C25        -5.4973   51.6964   24.9754 C.ar      1 UNK         0.0000 
     26 Cl26       -5.6989   50.1009   24.3324 Cl        1 UNK         0.0000 
     27 C27        -1.8505   51.7402   23.6080 C.2       1 UNK         0.0000 
     28 O28        -2.8822   51.5654   22.9633 O.2       1 UNK         0.0000 
     29 C29        -0.5809   52.2112   22.8919 C.3       1 UNK         0.0000 
     30 C30         0.7276   51.8633   23.6297 C.3       1 UNK         0.0000 
     31 C31         0.6201   52.4693   25.0550 C.3       1 UNK         0.0000 
     32 C32         1.8709   52.5843   22.8878 C.3       1 UNK         0.0000 
     33 C33         0.9274   50.3250   23.6835 C.3       1 UNK         0.0000 
     34 H34         5.2766   53.9045   25.8816 H         1 UNK         0.0000 
     35 H35         4.2468   52.9290   26.9174 H         1 UNK         0.0000 
     36 H36         3.8357   54.6170   26.6064 H         1 UNK         0.0000 
     37 H37         5.9940   55.3001   27.7692 H         1 UNK         0.0000 
     38 H38         6.3027   53.6305   28.1579 H         1 UNK         0.0000 
     39 H39         3.9582   55.3068   29.1877 H         1 UNK         0.0000 
     40 H40         5.3818   54.8956   30.0793 H         1 UNK         0.0000 
     41 H41        -2.0961   50.6153   29.8016 H         1 UNK         0.0000 
     42 H42        -0.7130   51.6301   29.7377 H         1 UNK         0.0000 
     43 H43        -3.3081   53.7722   26.5465 H         1 UNK         0.0000 
     44 H44        -5.2353   55.2795   26.4376 H         1 UNK         0.0000 
     45 H45        -7.3371   54.5333   25.3372 H         1 UNK         0.0000 
     46 H46        -7.4945   52.2586   24.4032 H         1 UNK         0.0000 
     47 H47        -0.6751   53.2945   22.8818 H         1 UNK         0.0000 
     48 H48        -0.5922   51.8730   21.8555 H         1 UNK         0.0000 
     49 H49         0.6891   53.5576   25.0613 H         1 UNK         0.0000 
     50 H50         1.4953   52.0812   25.5784 H         1 UNK         0.0000 
     51 H51         2.0281   52.1638   21.8930 H         1 UNK         0.0000 
     52 H52         1.6741   53.6508   22.7623 H         1 UNK         0.0000 
     53 H53         2.8090   52.4940   23.4317 H         1 UNK         0.0000 
     54 H54         0.8649   49.8859   22.6876 H         1 UNK         0.0000 
     55 H55         1.9077   50.0665   24.0822 H         1 UNK         0.0000 
     56 H56         0.1891   49.8181   24.3054 H         1 UNK         0.0000 
@<TRIPOS>BOND
     1    1    2 1    
     2    1   34 1    
     3    1   35 1    
     4    1   36 1    
     5    2    3 1    
     6    2   37 1    
     7    2   38 1    
     8    3    4 1    
     9    3   39 1    
    10    3   40 1    
    11    4    5 1    
    12    5    9 1    
    13    5    6 2    
    14    6    7 1    
    15    7    8 2    
    16    8    9 1    
    17    8   10 1    
    18   10   16 1    
    19   10   11 1    
    20   11   31 1    
    21   11   12 2    
    22   12   13 1    
    23   12   27 1    
    24   13   14 1    
    25   13   15 1    
    26   13   20 1    
    27   15   16 2    
    28   15   18 1    
    29   16   17 1    
    30   17   41 1    
    31   17   42 1    
    32   18   19 3    
    33   20   25 ar   
    34   20   21 ar   
    35   21   22 ar   
    36   21   43 1    
    37   22   23 ar   
    38   22   44 1    
    39   23   24 ar   
    40   23   45 1    
    41   24   25 ar   
    42   24   46 1    
    43   25   26 1    
    44   27   28 2    
    45   27   29 1    
    46   29   30 1    
    47   29   47 1    
    48   29   48 1    
    49   30   31 1    
    50   30   32 1    
    51   30   33 1    
    52   31   49 1    
    53   31   50 1    
    54   32   51 1    
    55   32   52 1    
    56   32   53 1    
    57   33   54 1    
    58   33   55 1    
    59   33   56 1    
@<TRIPOS>SUBSTRUCTURE
     1 UNK         1 GROUP             0       ****    0 ROOT    
