ZINC32697618_2874
                    3D
 Schrodinger Suite 2024-2.
 59 62  0  0  1  0            999 V2000
    6.5869   56.5211   20.3540 C   0  0  0  0  0  0
    7.0963   55.3030   21.1395 C   0  0  0  0  0  0
    6.1242   54.8754   22.0907 O   0  0  0  0  0  0
    5.1048   54.0495   21.7451 C   0  0  0  0  0  0
    4.9650   53.5781   20.6131 O   0  0  0  0  0  0
    4.1526   53.7985   22.8564 C   0  0  0  0  0  0
    4.3515   54.0972   24.2486 C   0  0  0  0  0  0
    3.2062   53.8213   25.0284 C   0  0  0  0  0  0
    1.8972   53.2046   24.0686 S   0  0  0  0  0  0
    2.8912   53.1971   22.6453 C   0  0  0  0  0  0
    2.4644   52.6357   21.4382 N   0  0  0  0  0  0
    1.2733   52.0967   21.1030 C   0  0  0  0  0  0
    0.2703   52.0964   21.8165 O   0  0  0  0  0  0
    1.2440   51.4388   19.7135 C   0  0  0  0  0  0
   -0.4230   51.0996   19.0397 S   0  0  0  0  0  0
   -0.7851   52.5983   18.1774 C   0  0  0  0  0  0
    0.1190   53.6038   17.9090 N   0  0  0  0  0  0
    1.0879   53.5750   18.1938 H   0  0  0  0  0  0
   -0.5575   54.6222   17.2817 C   0  0  0  0  0  0
   -0.1893   55.8916   16.8269 C   0  0  0  0  0  0
   -1.2044   56.6625   16.2537 C   0  0  0  0  0  0
   -2.5168   56.1959   16.1278 C   0  0  0  0  0  0
   -2.8682   54.9179   16.5779 C   0  0  0  0  0  0
   -1.8784   54.1278   17.1757 C   0  0  0  0  0  0
   -1.9855   52.8789   17.7296 N   0  0  0  0  0  0
   -3.5709   57.0745   15.4800 C   0  0  0  0  0  0
    3.0072   54.0750   26.4488 C   0  0  0  0  0  0
    3.7053   54.8959   27.0404 O   0  0  0  0  0  0
    2.0099   53.3712   27.0328 N   0  0  0  0  0  0
    1.4723   53.5152   28.3251 C   0  0  0  0  0  0
    1.5806   54.6931   29.0840 C   0  0  0  0  0  0
    0.9977   54.7653   30.3459 C   0  0  0  0  0  0
    0.3048   53.6681   30.8518 C   0  0  0  0  0  0
    0.1707   52.5059   30.0975 C   0  0  0  0  0  0
    0.7522   52.4302   28.8335 C   0  0  0  0  0  0
    5.6823   54.5386   24.8596 C   0  0  0  0  0  0
    7.3547   56.8947   19.6763 H   0  0  0  0  0  0
    5.7114   56.2718   19.7526 H   0  0  0  0  0  0
    6.3043   57.3281   21.0299 H   0  0  0  0  0  0
    8.0013   55.5712   21.6834 H   0  0  0  0  0  0
    7.3646   54.4973   20.4543 H   0  0  0  0  0  0
    3.1684   52.6676   20.7119 H   0  0  0  0  0  0
    1.7249   50.4673   19.8283 H   0  0  0  0  0  0
    1.8536   51.9812   18.9923 H   0  0  0  0  0  0
    0.8190   56.2655   16.9202 H   0  0  0  0  0  0
   -0.9570   57.6530   15.8925 H   0  0  0  0  0  0
   -3.8794   54.5521   16.4821 H   0  0  0  0  0  0
   -3.1309   57.6926   14.6945 H   0  0  0  0  0  0
   -4.0309   57.7285   16.2212 H   0  0  0  0  0  0
   -4.3493   56.4757   15.0061 H   0  0  0  0  0  0
    1.5811   52.6523   26.4712 H   0  0  0  0  0  0
    2.0967   55.5618   28.7067 H   0  0  0  0  0  0
    1.0796   55.6710   30.9320 H   0  0  0  0  0  0
   -0.1465   53.7162   31.8334 H   0  0  0  0  0  0
   -0.3890   51.6712   30.4984 H   0  0  0  0  0  0
    0.6392   51.5215   28.2599 H   0  0  0  0  0  0
    6.5385   54.0809   24.3609 H   0  0  0  0  0  0
    5.8148   55.6192   24.8242 H   0  0  0  0  0  0
    5.7998   54.2205   25.8932 H   0  0  0  0  0  0
  1  2  1  0  0  0
  1 37  1  0  0  0
  1 38  1  0  0  0
  1 39  1  0  0  0
  2  3  1  0  0  0
  2 40  1  0  0  0
  2 41  1  0  0  0
  3  4  1  0  0  0
  4  5  2  0  0  0
  4  6  1  0  0  0
  6 10  2  0  0  0
  6  7  1  0  0  0
  7  8  2  0  0  0
  7 36  1  0  0  0
  8  9  1  0  0  0
  8 27  1  0  0  0
  9 10  1  0  0  0
 10 11  1  0  0  0
 11 12  1  0  0  0
 11 42  1  0  0  0
 12 13  2  0  0  0
 12 14  1  0  0  0
 14 15  1  0  0  0
 14 43  1  0  0  0
 14 44  1  0  0  0
 15 16  1  0  0  0
 16 25  2  0  0  0
 16 17  1  0  0  0
 17 18  1  0  0  0
 17 19  1  0  0  0
 19 24  2  0  0  0
 19 20  1  0  0  0
 20 21  2  0  0  0
 20 45  1  0  0  0
 21 22  1  0  0  0
 21 46  1  0  0  0
 22 23  2  0  0  0
 22 26  1  0  0  0
 23 24  1  0  0  0
 23 47  1  0  0  0
 24 25  1  0  0  0
 26 48  1  0  0  0
 26 49  1  0  0  0
 26 50  1  0  0  0
 27 28  2  0  0  0
 27 29  1  0  0  0
 29 30  1  0  0  0
 29 51  1  0  0  0
 30 35  2  0  0  0
 30 31  1  0  0  0
 31 32  2  0  0  0
 31 52  1  0  0  0
 32 33  1  0  0  0
 32 53  1  0  0  0
 33 34  2  0  0  0
 33 54  1  0  0  0
 34 35  1  0  0  0
 34 55  1  0  0  0
 35 56  1  0  0  0
 36 57  1  0  0  0
 36 58  1  0  0  0
 36 59  1  0  0  0
M  END
> <i_i_glide_confnum>
167

> <i_i_glide_lignum>
2875

> <i_i_glide_posenum>
285

> <i_i_glide_rotatable_bonds>
11

> <i_m_Source_File_Index>
1865

> <b_m_subgroup_collapsed>
0

> <r_i_docking_score>
-5.52463

> <r_i_glide_ecoul>
-5.25091

> <r_i_glide_eff_state_penalty>
0

> <r_i_glide_einternal>
3.8359

> <r_i_glide_emodel>
-72.3889

> <r_i_glide_energy>
-54.0101

> <r_i_glide_erotb>
0.791471

> <r_i_glide_esite>
-0.0628605

> <r_i_glide_evdw>
-48.7592

> <r_i_glide_gscore>
-5.52463

> <r_i_glide_hbond>
0

> <r_i_glide_ligand_efficiency>
-0.157847

> <r_i_glide_ligand_efficiency_ln>
-1.21278

> <r_i_glide_ligand_efficiency_sa>
-0.516327

> <r_i_glide_lipo>
-2.53793

> <r_i_glide_metal>
0

> <r_i_glide_rewards>
-0.489723

> <s_i_glide_gridfile>
wee1_glide-grid

> <s_m_Source_File>
wee1_decoys_glide_SP.sdf

> <s_m_Source_Path>
/Users/zhangxujun/Desktop

> <s_m_entry_id>
2140

> <s_m_entry_name>
wee1_decoys_glide_SP.1865

> <s_m_subgroup_title>
wee1_decoys_glide_SP

> <s_m_subgroupid>
wee1_decoys_glide_SP


$$$$
