ZINC14661903_3165
                    3D
 Schrodinger Suite 2024-2.
 51 53  0  0  1  0            999 V2000
    1.8260   55.9213   29.8082 C   0  0  0  0  0  0
    2.7652   54.8848   30.0721 O   0  0  0  0  0  0
    2.5356   53.6520   29.3920 C   0  0  0  0  0  0
    2.7350   53.7202   27.8659 C   0  0  0  0  0  0
    4.0849   54.0571   27.5380 O   0  0  0  0  0  0
    4.4431   54.1878   26.2062 C   0  0  0  0  0  0
    3.5263   54.0967   25.1464 C   0  0  0  0  0  0
    3.9408   54.2412   23.8261 C   0  0  0  0  0  0
    5.2871   54.4963   23.5182 C   0  0  0  0  0  0
    6.2048   54.5801   24.5753 C   0  0  0  0  0  0
    5.7917   54.4201   25.9005 C   0  0  0  0  0  0
    7.1035   54.4966   27.2818 Br  0  0  0  0  0  0
    5.7463   54.7062   22.0891 C   0  0  0  0  0  0
    6.8053   55.2969   21.8627 O   0  0  0  0  0  0
    4.9268   54.1713   21.1489 N   0  0  0  0  0  0
    4.9397   54.1644   19.7746 C   0  0  0  0  0  0
    5.8690   55.1281   18.7758 S   0  0  0  0  0  0
    4.0390   53.3406   19.1517 N   0  0  0  0  0  0
    3.2192   52.3812   19.7554 C   0  0  0  0  0  0
    1.8567   52.0991   19.4680 C   0  0  0  0  0  0
    1.4155   51.0645   20.3264 C   0  0  0  0  0  0
    2.3774   50.5615   21.1701 C   0  0  0  0  0  0
    3.9045   51.2967   20.9453 S   0  0  0  0  0  0
    1.8774   49.4736   22.0766 C   0  0  0  0  0  0
    0.3591   49.6077   21.8871 C   0  0  0  0  0  0
    0.1298   50.2950   20.5296 C   0  0  0  0  0  0
    0.9829   52.7489   18.4760 C   0  0  0  0  0  0
   -0.2284   52.5255   18.3904 O   0  0  0  0  0  0
    1.6597   53.6077   17.6781 O   0  0  0  0  0  0
    0.9846   54.3576   16.6798 C   0  0  0  0  0  0
    2.0255   56.7695   30.4637 H   0  0  0  0  0  0
    1.8945   56.2821   28.7818 H   0  0  0  0  0  0
    0.8037   55.5938   30.0013 H   0  0  0  0  0  0
    1.5381   53.2779   29.6288 H   0  0  0  0  0  0
    3.2338   52.9218   29.8024 H   0  0  0  0  0  0
    2.0427   54.4485   27.4428 H   0  0  0  0  0  0
    2.4855   52.7496   27.4331 H   0  0  0  0  0  0
    2.4785   53.9123   25.3227 H   0  0  0  0  0  0
    3.1852   54.1820   23.0552 H   0  0  0  0  0  0
    7.2520   54.7660   24.3740 H   0  0  0  0  0  0
    4.1336   53.6906   21.5418 H   0  0  0  0  0  0
    3.7851   53.5897   18.2057 H   0  0  0  0  0  0
    2.1545   49.6192   23.1223 H   0  0  0  0  0  0
    2.2488   48.4958   21.7704 H   0  0  0  0  0  0
   -0.0468   50.2387   22.6800 H   0  0  0  0  0  0
   -0.1539   48.6479   21.9576 H   0  0  0  0  0  0
   -0.0036   49.5459   19.7478 H   0  0  0  0  0  0
   -0.7622   50.9219   20.5409 H   0  0  0  0  0  0
    1.6968   54.9856   16.1441 H   0  0  0  0  0  0
    0.4993   53.6996   15.9569 H   0  0  0  0  0  0
    0.2274   55.0058   17.1236 H   0  0  0  0  0  0
  1  2  1  0  0  0
  1 31  1  0  0  0
  1 32  1  0  0  0
  1 33  1  0  0  0
  2  3  1  0  0  0
  3  4  1  0  0  0
  3 34  1  0  0  0
  3 35  1  0  0  0
  4  5  1  0  0  0
  4 36  1  0  0  0
  4 37  1  0  0  0
  5  6  1  0  0  0
  6 11  2  0  0  0
  6  7  1  0  0  0
  7  8  2  0  0  0
  7 38  1  0  0  0
  8  9  1  0  0  0
  8 39  1  0  0  0
  9 10  2  0  0  0
  9 13  1  0  0  0
 10 11  1  0  0  0
 10 40  1  0  0  0
 11 12  1  0  0  0
 13 14  2  0  0  0
 13 15  1  0  0  0
 15 16  1  0  0  0
 15 41  1  0  0  0
 16 17  2  0  0  0
 16 18  1  0  0  0
 18 19  1  0  0  0
 18 42  1  0  0  0
 19 23  1  0  0  0
 19 20  2  0  0  0
 20 21  1  0  0  0
 20 27  1  0  0  0
 21 26  1  0  0  0
 21 22  2  0  0  0
 22 23  1  0  0  0
 22 24  1  0  0  0
 24 25  1  0  0  0
 24 43  1  0  0  0
 24 44  1  0  0  0
 25 26  1  0  0  0
 25 45  1  0  0  0
 25 46  1  0  0  0
 26 47  1  0  0  0
 26 48  1  0  0  0
 27 28  2  0  0  0
 27 29  1  0  0  0
 29 30  1  0  0  0
 30 49  1  0  0  0
 30 50  1  0  0  0
 30 51  1  0  0  0
M  END
> <i_i_glide_confnum>
230

> <i_i_glide_lignum>
3166

> <i_i_glide_posenum>
77

> <i_i_glide_rotatable_bonds>
11

> <i_m_Source_File_Index>
949

> <b_m_subgroup_collapsed>
0

> <r_i_docking_score>
-5.35049

> <r_i_glide_ecoul>
-4.08515

> <r_i_glide_eff_state_penalty>
0

> <r_i_glide_einternal>
8.74015

> <r_i_glide_emodel>
-61.9606

> <r_i_glide_energy>
-49.184

> <r_i_glide_erotb>
0.700111

> <r_i_glide_esite>
-0.0576953

> <r_i_glide_evdw>
-45.0988

> <r_i_glide_gscore>
-5.35049

> <r_i_glide_hbond>
-0.312819

> <r_i_glide_ligand_efficiency>
-0.17835

> <r_i_glide_ligand_efficiency_ln>
-1.21569

> <r_i_glide_ligand_efficiency_sa>
-0.554174

> <r_i_glide_lipo>
-2.39737

> <r_i_glide_metal>
0

> <r_i_glide_rewards>
-0.415005

> <s_i_glide_gridfile>
wee1_glide-grid

> <s_m_Source_File>
wee1_decoys_glide_SP.sdf

> <s_m_Source_Path>
/Users/zhangxujun/Desktop

> <s_m_entry_id>
1224

> <s_m_entry_name>
wee1_decoys_glide_SP.949

> <s_m_subgroup_title>
wee1_decoys_glide_SP

> <s_m_subgroupid>
wee1_decoys_glide_SP


$$$$
