@<TRIPOS>MOLECULE
ZINC13022090_5880
57   60    1
SMALL
USER_CHARGES


@<TRIPOS>ATOM
      1 C1          7.5066   55.2358   21.9599 C.3       1 UNK         0.0000 
      2 C2          6.3033   54.8278   22.7834 C.ar      1 UNK         0.0000 
      3 C3          6.3696   54.8623   24.1761 C.ar      1 UNK         0.0000 
      4 C4          5.2603   54.4968   24.9358 C.ar      1 UNK         0.0000 
      5 C5          4.0731   54.0968   24.3080 C.ar      1 UNK         0.0000 
      6 C6          4.0143   54.0809   22.9082 C.ar      1 UNK         0.0000 
      7 C7          5.1244   54.4382   22.1487 C.ar      1 UNK         0.0000 
      8 C8          2.8850   53.6443   25.1058 C.ar      1 UNK         0.0000 
      9 C9          1.7691   52.9360   24.6412 C.ar      1 UNK         0.0000 
     10 C10         0.9538   52.7070   25.7399 C.ar      1 UNK         0.0000 
     11 N11         1.6172   53.2971   26.8015 N.pl3     1 UNK         0.0000 
     12 N12         2.7842   53.8453   26.4049 N.2       1 UNK         0.0000 
     13 C13         1.2150   53.4052   28.1619 C.ar      1 UNK         0.0000 
     14 C14         0.5558   52.3443   28.8016 C.ar      1 UNK         0.0000 
     15 C15         0.0943   52.4968   30.1073 C.ar      1 UNK         0.0000 
     16 C16         0.3070   53.6957   30.7823 C.ar      1 UNK         0.0000 
     17 C17         0.9813   54.7465   30.1657 C.ar      1 UNK         0.0000 
     18 C18         1.4342   54.6033   28.8565 C.ar      1 UNK         0.0000 
     19 N19        -0.2809   52.0843   25.8655 N.am      1 UNK         0.0000 
     20 C20        -1.0797   51.7005   24.8498 C.2       1 UNK         0.0000 
     21 O21        -0.8495   51.9017   23.6546 O.2       1 UNK         0.0000 
     22 C22        -2.3583   50.9660   25.2541 C.3       1 UNK         0.0000 
     23 S23        -3.8125   52.0659   25.2314 S.3       1 UNK         0.0000 
     24 C24        -4.7811   51.8315   26.7168 C.ar      1 UNK         0.0000 
     25 C25        -5.9766   52.5507   26.9691 C.ar      1 UNK         0.0000 
     26 C26        -6.6687   52.2694   28.1750 C.ar      1 UNK         0.0000 
     27 C27        -6.1589   51.3085   29.0529 C.ar      1 UNK         0.0000 
     28 C28        -4.9776   50.6533   28.7229 C.ar      1 UNK         0.0000 
     29 N29        -4.2978   50.9057   27.5829 N.ar      1 UNK         0.0000 
     30 C30        -4.3785   49.5953   29.6260 C.3       1 UNK         0.0000 
     31 C31        -7.9439   52.9989   28.5921 C.3       1 UNK         0.0000 
     32 C32        -6.4840   53.5912   26.0176 C.2       1 UNK         0.0000 
     33 O33        -7.6812   53.5188   25.6559 O.co2     1 UNK         0.0000 
     34 H34         7.9034   56.1866   22.3101 H         1 UNK         0.0000 
     35 H35         8.2976   54.4969   22.0796 H         1 UNK         0.0000 
     36 H36         7.2732   55.3398   20.9003 H         1 UNK         0.0000 
     37 H37         7.2832   55.1641   24.6672 H         1 UNK         0.0000 
     38 H38         5.3330   54.5096   26.0140 H         1 UNK         0.0000 
     39 H39         3.1111   53.7858   22.3946 H         1 UNK         0.0000 
     40 H40         5.0611   54.4146   21.0701 H         1 UNK         0.0000 
     41 H41         1.5784   52.6195   23.6264 H         1 UNK         0.0000 
     42 H42         0.3944   51.3990   28.3049 H         1 UNK         0.0000 
     43 H43        -0.4344   51.6934   30.6015 H         1 UNK         0.0000 
     44 H44        -0.0560   53.8053   31.7954 H         1 UNK         0.0000 
     45 H45         1.1381   55.6750   30.6957 H         1 UNK         0.0000 
     46 H46         1.9339   55.4367   28.3815 H         1 UNK         0.0000 
     47 H47        -0.6341   51.9593   26.8029 H         1 UNK         0.0000 
     48 H48        -2.2263   50.4834   26.2236 H         1 UNK         0.0000 
     49 H49        -2.5345   50.1609   24.5403 H         1 UNK         0.0000 
     50 H50        -6.6699   51.0725   29.9763 H         1 UNK         0.0000 
     51 H51        -4.7757   49.6550   30.6412 H         1 UNK         0.0000 
     52 H52        -4.5884   48.5996   29.2323 H         1 UNK         0.0000 
     53 H53        -3.2972   49.7106   29.6814 H         1 UNK         0.0000 
     54 H54        -8.1984   52.8251   29.6383 H         1 UNK         0.0000 
     55 H55        -7.8280   54.0761   28.4690 H         1 UNK         0.0000 
     56 H56        -8.7802   52.6846   27.9678 H         1 UNK         0.0000 
     57 O57        -5.6895   54.4967   25.6826 O.co2     1 UNK         0.0000 
@<TRIPOS>BOND
     1    1    2 1    
     2    1   34 1    
     3    1   35 1    
     4    1   36 1    
     5    2    7 ar   
     6    2    3 ar   
     7    3    4 ar   
     8    3   37 1    
     9    4    5 ar   
    10    4   38 1    
    11    5    6 ar   
    12    5    8 1    
    13    6    7 ar   
    14    6   39 1    
    15    7   40 1    
    16    8   12 ar   
    17    8    9 ar   
    18    9   10 ar   
    19    9   41 1    
    20   10   11 ar   
    21   10   19 1    
    22   11   12 ar   
    23   11   13 1    
    24   13   18 ar   
    25   13   14 ar   
    26   14   15 ar   
    27   14   42 1    
    28   15   16 ar   
    29   15   43 1    
    30   16   17 ar   
    31   16   44 1    
    32   17   18 ar   
    33   17   45 1    
    34   18   46 1    
    35   19   20 am   BACKBONE|DICT|INTERRES
    36   19   47 1    
    37   20   21 2    
    38   20   22 1    
    39   22   23 1    
    40   22   48 1    
    41   22   49 1    
    42   23   24 1    
    43   24   29 ar   
    44   24   25 ar   
    45   25   26 ar   
    46   25   32 1    
    47   26   27 ar   
    48   26   31 1    
    49   27   28 ar   
    50   27   50 1    
    51   28   29 ar   
    52   28   30 1    
    53   30   51 1    
    54   30   52 1    
    55   30   53 1    
    56   31   54 1    
    57   31   55 1    
    58   31   56 1    
    59   32   33 2    
    60   32   57 1    
@<TRIPOS>SUBSTRUCTURE
     1 UNK         1 GROUP             0       ****    0 ROOT    
