ZINC00903771_5763
                    3D
 Schrodinger Suite 2024-2.
 65 69  0  0  1  0            999 V2000
    5.0918   54.4784   27.6992 C   0  0  0  0  0  0
    4.2870   54.4917   28.8351 C   0  0  0  0  0  0
    2.9110   54.3038   28.7075 C   0  0  0  0  0  0
    2.3339   54.0939   27.4603 C   0  0  0  0  0  0
    3.1371   54.0932   26.3258 C   0  0  0  0  0  0
    4.5202   54.2907   26.4339 C   0  0  0  0  0  0
    5.3629   54.2972   25.1971 C   0  0  0  0  0  0
    6.6717   54.0965   25.2076 N   0  0  0  0  0  0
    7.0596   54.0997   23.8845 N   0  0  0  0  0  0
    5.9403   54.3869   23.2254 N   0  0  0  0  0  0
    4.8561   54.4951   23.9972 N   0  0  0  0  0  0
    5.9047   54.6000   21.7803 C   0  0  0  0  0  0
    5.1015   53.5526   20.9652 C   0  0  0  0  0  0
    4.8759   52.4739   21.5144 O   0  0  0  0  0  0
    4.6783   53.8609   19.6891 N   0  0  0  0  0  0
    5.3614   54.9122   19.0028 C   0  0  0  0  0  0
    4.6383   55.9922   18.4794 C   0  0  0  0  0  0
    5.2914   57.0098   17.7882 C   0  0  0  0  0  0
    6.6709   56.9484   17.6077 C   0  0  0  0  0  0
    7.4005   55.8678   18.0959 C   0  0  0  0  0  0
    6.7473   54.8468   18.7797 C   0  0  0  0  0  0
    7.4828   58.2155   16.7644 Cl  0  0  0  0  0  0
    3.4568   53.2387   19.0281 C   0  0  1  0  0  0
    2.7109   53.9843   19.2823 H   0  0  0  0  0  0
    3.4763   53.2683   17.5030 C   0  0  0  0  0  0
    4.6114   52.8958   16.7735 C   0  0  0  0  0  0
    4.5997   52.9339   15.3825 C   0  0  0  0  0  0
    3.4510   53.3474   14.7142 C   0  0  0  0  0  0
    2.3125   53.7168   15.4259 C   0  0  0  0  0  0
    2.3244   53.6735   16.8176 C   0  0  0  0  0  0
    3.4390   53.3880   13.3631 F   0  0  0  0  0  0
    2.7450   51.9844   19.6313 C   0  0  0  0  0  0
    2.1616   52.0940   20.7116 O   0  0  0  0  0  0
    2.7043   50.8610   18.8952 N   0  0  0  0  0  0
    2.1627   49.5786   19.3379 C   0  0  0  0  0  0
    0.6205   49.5295   19.3934 C   0  0  1  0  0  0
    0.2315   50.3507   19.9995 H   0  0  0  0  0  0
   -0.0939   49.2941   18.0609 C   0  0  0  0  0  0
   -1.3536   48.5387   18.4249 C   0  0  0  0  0  0
   -1.0435   47.9358   19.7944 C   0  0  0  0  0  0
    0.2987   48.3211   20.0817 O   0  0  0  0  0  0
    1.8993   54.3359   30.0981 Cl  0  0  0  0  0  0
    6.1575   54.6302   27.8071 H   0  0  0  0  0  0
    4.7321   54.6513   29.8056 H   0  0  0  0  0  0
    1.2674   53.9424   27.3709 H   0  0  0  0  0  0
    2.6767   53.9322   25.3615 H   0  0  0  0  0  0
    6.9336   54.6306   21.4288 H   0  0  0  0  0  0
    5.4798   55.5891   21.6194 H   0  0  0  0  0  0
    3.5669   56.0488   18.6097 H   0  0  0  0  0  0
    4.7307   57.8458   17.3940 H   0  0  0  0  0  0
    8.4685   55.8174   17.9391 H   0  0  0  0  0  0
    7.3240   54.0055   19.1317 H   0  0  0  0  0  0
    5.4970   52.5467   17.2857 H   0  0  0  0  0  0
    5.4749   52.6369   14.8243 H   0  0  0  0  0  0
    1.4262   54.0343   14.8974 H   0  0  0  0  0  0
    1.4382   53.9598   17.3659 H   0  0  0  0  0  0
    3.2735   50.8238   18.0547 H   0  0  0  0  0  0
    2.5949   49.3031   20.3022 H   0  0  0  0  0  0
    2.5283   48.8375   18.6256 H   0  0  0  0  0  0
    0.5343   48.6952   17.3978 H   0  0  0  0  0  0
   -0.2635   50.2278   17.5227 H   0  0  0  0  0  0
   -1.5918   47.7738   17.6836 H   0  0  0  0  0  0
   -2.2068   49.2155   18.4907 H   0  0  0  0  0  0
   -1.1315   46.8483   19.8002 H   0  0  0  0  0  0
   -1.7083   48.3263   20.5657 H   0  0  0  0  0  0
  1  6  2  0  0  0
  1  2  1  0  0  0
  1 43  1  0  0  0
  2  3  2  0  0  0
  2 44  1  0  0  0
  3  4  1  0  0  0
  3 42  1  0  0  0
  4  5  2  0  0  0
  4 45  1  0  0  0
  5  6  1  0  0  0
  5 46  1  0  0  0
  6  7  1  0  0  0
  7 11  2  0  0  0
  7  8  1  0  0  0
  8  9  2  0  0  0
  9 10  1  0  0  0
 10 11  1  0  0  0
 10 12  1  0  0  0
 12 13  1  0  0  0
 12 47  1  0  0  0
 12 48  1  0  0  0
 13 14  2  0  0  0
 13 15  1  0  0  0
 15 16  1  0  0  0
 15 23  1  0  0  0
 16 21  2  0  0  0
 16 17  1  0  0  0
 17 18  2  0  0  0
 17 49  1  0  0  0
 18 19  1  0  0  0
 18 50  1  0  0  0
 19 20  2  0  0  0
 19 22  1  0  0  0
 20 21  1  0  0  0
 20 51  1  0  0  0
 21 52  1  0  0  0
 23 24  1  0  0  0
 23 25  1  0  0  0
 23 32  1  0  0  0
 25 30  2  0  0  0
 25 26  1  0  0  0
 26 27  2  0  0  0
 26 53  1  0  0  0
 27 28  1  0  0  0
 27 54  1  0  0  0
 28 29  2  0  0  0
 28 31  1  0  0  0
 29 30  1  0  0  0
 29 55  1  0  0  0
 30 56  1  0  0  0
 32 33  2  0  0  0
 32 34  1  0  0  0
 34 35  1  0  0  0
 34 57  1  0  0  0
 35 36  1  0  0  0
 35 58  1  0  0  0
 35 59  1  0  0  0
 36 37  1  0  0  0
 36 41  1  0  0  0
 36 38  1  0  0  0
 38 39  1  0  0  0
 38 60  1  0  0  0
 38 61  1  0  0  0
 39 40  1  0  0  0
 39 62  1  0  0  0
 39 63  1  0  0  0
 40 41  1  0  0  0
 40 64  1  0  0  0
 40 65  1  0  0  0
M  END
> <i_i_glide_confnum>
542

> <i_i_glide_lignum>
5764

> <i_i_glide_posenum>
134

> <i_i_glide_rotatable_bonds>
11

> <i_m_Source_File_Index>
223

> <b_m_subgroup_collapsed>
0

> <r_i_docking_score>
-4.70298

> <r_i_glide_ecoul>
-5.31675

> <r_i_glide_eff_state_penalty>
0

> <r_i_glide_einternal>
16.4567

> <r_i_glide_emodel>
-53.1646

> <r_i_glide_energy>
-48.4318

> <r_i_glide_erotb>
0.51189

> <r_i_glide_esite>
-0.138676

> <r_i_glide_evdw>
-43.1151

> <r_i_glide_gscore>
-4.70298

> <r_i_glide_hbond>
-0.082428

> <r_i_glide_ligand_efficiency>
-0.117574

> <r_i_glide_ligand_efficiency_ln>
-1.00301

> <r_i_glide_ligand_efficiency_sa>
-0.402099

> <r_i_glide_lipo>
-1.93181

> <r_i_glide_metal>
0

> <r_i_glide_rewards>
-0.108686

> <s_i_glide_gridfile>
wee1_glide-grid

> <s_m_Source_File>
wee1_decoys_glide_SP.sdf

> <s_m_Source_Path>
/Users/zhangxujun/Desktop

> <s_m_entry_id>
498

> <s_m_entry_name>
wee1_decoys_glide_SP.223

> <s_m_subgroup_title>
wee1_decoys_glide_SP

> <s_m_subgroupid>
wee1_decoys_glide_SP


$$$$
