ZINC14564093_2352
                    3D
 Schrodinger Suite 2024-2.
 51 53  0  0  1  0            999 V2000
    4.1889   53.8915   18.9720 C   0  0  0  0  0  0
    5.2041   54.4019   19.9764 C   0  0  0  0  0  0
    6.3239   55.1111   19.5401 C   0  0  0  0  0  0
    7.2728   55.5558   20.4595 C   0  0  0  0  0  0
    7.1045   55.2972   21.8202 C   0  0  0  0  0  0
    5.9667   54.6005   22.2752 C   0  0  0  0  0  0
    5.0313   54.1475   21.3396 C   0  0  0  0  0  0
    5.6777   54.3113   23.6244 N   0  0  0  0  0  0
    6.2092   54.8621   24.7369 C   0  0  0  0  0  0
    7.1044   55.6969   24.7400 O   0  0  0  0  0  0
    5.6542   54.4024   26.0579 C   0  0  0  0  0  0
    6.4767   54.4391   27.1924 C   0  0  0  0  0  0
    5.9927   54.0558   28.4365 C   0  0  0  0  0  0
    4.6755   53.6303   28.5746 C   0  0  0  0  0  0
    3.8380   53.6033   27.4559 C   0  0  0  0  0  0
    4.3246   53.9811   26.2021 C   0  0  0  0  0  0
    2.5254   53.1302   27.5471 N   0  0  0  0  0  0
    1.4619   53.5941   28.2775 C   0  0  0  0  0  0
    1.5044   54.9232   29.2848 S   0  0  0  0  0  0
    0.2607   52.9543   28.1203 N   0  0  0  0  0  0
   -0.0174   51.7392   27.5791 C   0  0  0  0  0  0
    0.8289   50.8967   27.2817 O   0  0  0  0  0  0
   -1.4153   51.4698   27.3593 C   0  0  0  0  0  0
   -2.2465   52.3450   26.7514 C   0  0  0  0  0  0
   -3.6845   52.1443   26.4789 C   0  0  0  0  0  0
   -4.4201   51.1112   27.0742 C   0  0  0  0  0  0
   -5.7749   50.9609   26.7875 C   0  0  0  0  0  0
   -6.3952   51.8376   25.8995 C   0  0  0  0  0  0
   -5.6728   52.8624   25.2941 C   0  0  0  0  0  0
   -4.3198   53.0142   25.5858 C   0  0  0  0  0  0
   -8.0739   51.6524   25.5455 Cl  0  0  0  0  0  0
    4.6886   53.5365   18.0695 H   0  0  0  0  0  0
    3.6256   53.0462   19.3695 H   0  0  0  0  0  0
    3.4970   54.6867   18.6944 H   0  0  0  0  0  0
    6.4680   55.3066   18.4870 H   0  0  0  0  0  0
    8.1492   56.0858   20.1148 H   0  0  0  0  0  0
    7.8924   55.6317   22.4821 H   0  0  0  0  0  0
    4.1539   53.6052   21.6637 H   0  0  0  0  0  0
    4.9344   53.6476   23.7711 H   0  0  0  0  0  0
    7.5046   54.7652   27.1309 H   0  0  0  0  0  0
    6.6579   54.0968   29.2816 H   0  0  0  0  0  0
    4.3124   53.3196   29.5434 H   0  0  0  0  0  0
    3.6577   53.9541   25.3508 H   0  0  0  0  0  0
    2.3015   52.4079   26.8779 H   0  0  0  0  0  0
   -0.5269   53.4316   28.5290 H   0  0  0  0  0  0
   -1.7456   50.4970   27.6941 H   0  0  0  0  0  0
   -1.8490   53.2962   26.4228 H   0  0  0  0  0  0
   -3.9546   50.4194   27.7628 H   0  0  0  0  0  0
   -6.3405   50.1665   27.2526 H   0  0  0  0  0  0
   -6.1574   53.5332   24.5989 H   0  0  0  0  0  0
   -3.7674   53.8102   25.1056 H   0  0  0  0  0  0
  1  2  1  0  0  0
  1 32  1  0  0  0
  1 33  1  0  0  0
  1 34  1  0  0  0
  2  7  2  0  0  0
  2  3  1  0  0  0
  3  4  2  0  0  0
  3 35  1  0  0  0
  4  5  1  0  0  0
  4 36  1  0  0  0
  5  6  2  0  0  0
  5 37  1  0  0  0
  6  7  1  0  0  0
  6  8  1  0  0  0
  7 38  1  0  0  0
  8  9  1  0  0  0
  8 39  1  0  0  0
  9 10  2  0  0  0
  9 11  1  0  0  0
 11 16  2  0  0  0
 11 12  1  0  0  0
 12 13  2  0  0  0
 12 40  1  0  0  0
 13 14  1  0  0  0
 13 41  1  0  0  0
 14 15  2  0  0  0
 14 42  1  0  0  0
 15 16  1  0  0  0
 15 17  1  0  0  0
 16 43  1  0  0  0
 17 18  1  0  0  0
 17 44  1  0  0  0
 18 19  2  0  0  0
 18 20  1  0  0  0
 20 21  1  0  0  0
 20 45  1  0  0  0
 21 22  2  0  0  0
 21 23  1  0  0  0
 23 24  2  0  0  0
 23 46  1  0  0  0
 24 25  1  0  0  0
 24 47  1  0  0  0
 25 30  2  0  0  0
 25 26  1  0  0  0
 26 27  2  0  0  0
 26 48  1  0  0  0
 27 28  1  0  0  0
 27 49  1  0  0  0
 28 29  2  0  0  0
 28 31  1  0  0  0
 29 30  1  0  0  0
 29 50  1  0  0  0
 30 51  1  0  0  0
M  END
> <i_i_glide_confnum>
139

> <i_i_glide_lignum>
2353

> <i_i_glide_posenum>
190

> <i_i_glide_rotatable_bonds>
9

> <i_m_Source_File_Index>
4650

> <b_m_subgroup_collapsed>
0

> <r_i_docking_score>
-5.36793

> <r_i_glide_ecoul>
-2.8139

> <r_i_glide_eff_state_penalty>
0

> <r_i_glide_einternal>
10.6774

> <r_i_glide_emodel>
-60.5006

> <r_i_glide_energy>
-51.2121

> <r_i_glide_erotb>
0.792069

> <r_i_glide_esite>
-0.0177761

> <r_i_glide_evdw>
-48.3982

> <r_i_glide_gscore>
-5.36793

> <r_i_glide_hbond>
-0.277926

> <r_i_glide_ligand_efficiency>
-0.173159

> <r_i_glide_ligand_efficiency_ln>
-1.21063

> <r_i_glide_ligand_efficiency_sa>
-0.543958

> <r_i_glide_lipo>
-2.39669

> <r_i_glide_metal>
0

> <r_i_glide_rewards>
-0.625615

> <s_i_glide_gridfile>
wee1_glide-grid

> <s_m_Source_File>
wee1_decoys_glide_SP.sdf

> <s_m_Source_Path>
/Users/zhangxujun/Desktop

> <s_m_entry_id>
4925

> <s_m_entry_name>
wee1_decoys_glide_SP.4650

> <s_m_subgroup_title>
wee1_decoys_glide_SP

> <s_m_subgroupid>
wee1_decoys_glide_SP


$$$$
