@<TRIPOS>MOLECULE
ZINC27825393_4721
32   34    1
SMALL
USER_CHARGES


@<TRIPOS>ATOM
      1 C1          0.6005   52.1553   22.0407 C.3       1 UNK         0.0000 
      2 C2          1.2335   52.6911   23.3114 C.ar      1 UNK         0.0000 
      3 C3          0.9240   52.1103   24.5396 C.ar      1 UNK         0.0000 
      4 C4          1.5072   52.5969   25.7060 C.ar      1 UNK         0.0000 
      5 C5          2.4144   53.6677   25.6622 C.ar      1 UNK         0.0000 
      6 C6          2.7014   54.2504   24.4214 C.ar      1 UNK         0.0000 
      7 C7          2.1149   53.7701   23.2540 C.ar      1 UNK         0.0000 
      8 C8          3.0863   54.2267   26.9353 C.3       1 UNK         0.0000 
      9 H9          2.8790   55.2950   26.9060 H         1 UNK         0.0000 
     10 C10         2.5663   53.6774   28.2704 C.2       1 UNK         0.0000 
     11 C11         3.3646   53.0020   29.2001 C.2       1 UNK         0.0000 
     12 N12         2.7605   52.5617   30.2850 N.2       1 UNK         0.0000 
     13 C13         1.4921   52.8716   30.2829 C.2       1 UNK         0.0000 
     14 N14         0.6337   52.5427   31.2864 N.pl3     1 UNK         0.0000 
     15 S15         0.9429   53.7643   28.8998 S.3       1 UNK         0.0000 
     16 O16         4.7118   52.8023   29.0351 O.3       1 UNK         0.0000 
     17 C17         5.2748   53.4271   27.9638 C.2       1 UNK         0.0000 
     18 C18         4.6241   54.0956   26.9811 C.2       1 UNK         0.0000 
     19 C19         5.4081   54.7585   25.9868 C.1       1 UNK         0.0000 
     20 N20         6.0918   55.2965   25.2240 N.1       1 UNK         0.0000 
     21 N21         6.6314   53.2978   28.0813 N.pl3     1 UNK         0.0000 
     22 H22        -0.4370   51.8658   22.2177 H         1 UNK         0.0000 
     23 H23         0.5865   52.9066   21.2491 H         1 UNK         0.0000 
     24 H24         1.1434   51.2770   21.6871 H         1 UNK         0.0000 
     25 H25         0.2406   51.2750   24.5910 H         1 UNK         0.0000 
     26 H26         1.2635   52.1064   26.6353 H         1 UNK         0.0000 
     27 H27         3.3791   55.0876   24.3512 H         1 UNK         0.0000 
     28 H28         2.3515   54.2342   22.3064 H         1 UNK         0.0000 
     29 H29         0.9513   52.0966   32.1357 H         1 UNK         0.0000 
     30 H30         7.2401   53.5708   27.3246 H         1 UNK         0.0000 
     31 H31         7.0498   53.1336   28.9846 H         1 UNK         0.0000 
     32 H32        -0.3713   52.5147   31.1627 H         1 UNK         0.0000 
@<TRIPOS>BOND
     1    1    2 1    
     2    1   22 1    
     3    1   23 1    
     4    1   24 1    
     5    2    7 ar   
     6    2    3 ar   
     7    3    4 ar   
     8    3   25 1    
     9    4    5 ar   
    10    4   26 1    
    11    5    6 ar   
    12    5    8 1    
    13    6    7 ar   
    14    6   27 1    
    15    7   28 1    
    16    8    9 1    
    17    8   18 1    
    18    8   10 1    
    19   10   15 1    
    20   10   11 2    
    21   11   12 1    
    22   11   16 1    
    23   12   13 2    
    24   13   14 1    
    25   13   15 1    
    26   14   29 1    
    27   14   32 1    
    28   16   17 1    
    29   17   18 2    
    30   17   21 1    
    31   18   19 1    
    32   19   20 3    
    33   21   30 1    
    34   21   31 1    
@<TRIPOS>SUBSTRUCTURE
     1 UNK         1 GROUP             0       ****    0 ROOT    
