ZINC45599405_3998
                    3D
 Schrodinger Suite 2024-2.
 59 64  0  0  1  0            999 V2000
   -0.0503   52.2716   28.5389 C   0  0  0  0  0  0
    0.9527   52.6462   27.6413 C   0  0  0  0  0  0
    2.1619   52.9961   28.2478 C   0  0  0  0  0  0
    2.0088   52.8436   29.9838 S   0  0  0  0  0  0
    0.3586   52.3441   29.8567 C   0  0  0  0  0  0
    3.4497   53.4241   27.6613 C   0  0  0  0  0  0
    4.5710   53.3720   28.3424 N   0  0  0  0  0  0
    5.5701   53.9532   27.5796 N   0  0  0  0  0  0
    5.0246   54.3506   26.4635 C   0  0  0  0  0  0
    3.6820   54.0139   26.4238 N   0  0  0  0  0  0
    2.7453   54.3155   25.3353 C   0  0  0  0  0  0
    2.6654   53.2264   24.2497 C   0  0  2  0  0  0
    3.6766   52.9184   24.0115 H   0  0  0  0  0  0
    1.9358   53.6628   22.9787 C   0  0  0  0  0  0
    1.3554   52.3838   22.4046 C   0  0  0  0  0  0
    1.5179   51.3534   23.5230 C   0  0  0  0  0  0
    1.9042   52.1043   24.6705 O   0  0  0  0  0  0
    5.8984   55.3265   25.2810 S   0  0  0  0  0  0
    6.5273   54.0185   24.2036 C   0  0  0  0  0  0
    6.1275   54.1917   22.7497 C   0  0  0  0  0  0
    5.4094   53.1787   22.2157 N   0  0  0  0  0  0
    5.0969   53.2492   20.9029 C   0  0  0  0  0  0
    5.4817   54.3663   20.1095 C   0  0  0  0  0  0
    5.2738   54.7437   18.7324 C   0  0  0  0  0  0
    5.8841   55.9581   18.4220 C   0  0  0  0  0  0
    6.7021   56.6759   19.7934 S   0  0  0  0  0  0
    6.2406   55.3495   20.8152 C   0  0  0  0  0  0
    6.5845   55.2925   22.1050 N   0  0  0  0  0  0
    5.8487   56.6513   17.0780 C   0  0  0  0  0  0
    4.4262   57.0501   16.6430 C   0  0  0  0  0  0
    3.5457   55.8780   16.1602 C   0  0  0  0  0  0
    3.2360   54.7681   17.1881 C   0  0  0  0  0  0
    4.4496   53.9717   17.7128 C   0  0  0  0  0  0
    4.4620   52.1113   20.4089 N   0  0  0  0  0  0
   -1.0364   51.9541   28.2367 H   0  0  0  0  0  0
    0.7802   52.6435   26.5800 H   0  0  0  0  0  0
   -0.2173   52.1063   30.7422 H   0  0  0  0  0  0
    1.7598   54.4794   25.7669 H   0  0  0  0  0  0
    3.0527   55.2594   24.8814 H   0  0  0  0  0  0
    1.1291   54.3488   23.2358 H   0  0  0  0  0  0
    2.5799   54.2203   22.2963 H   0  0  0  0  0  0
    0.3066   52.5192   22.1338 H   0  0  0  0  0  0
    1.8911   52.0698   21.5103 H   0  0  0  0  0  0
    0.6073   50.7923   23.7292 H   0  0  0  0  0  0
    2.2958   50.6205   23.2968 H   0  0  0  0  0  0
    7.6141   54.0004   24.2629 H   0  0  0  0  0  0
    6.1725   53.0667   24.5791 H   0  0  0  0  0  0
    6.4881   57.5360   17.0860 H   0  0  0  0  0  0
    6.2654   55.9980   16.3116 H   0  0  0  0  0  0
    3.9264   57.5853   17.4539 H   0  0  0  0  0  0
    4.5074   57.7712   15.8277 H   0  0  0  0  0  0
    2.5984   56.2876   15.8084 H   0  0  0  0  0  0
    4.0112   55.4253   15.2833 H   0  0  0  0  0  0
    2.6844   55.1873   18.0292 H   0  0  0  0  0  0
    2.5474   54.0645   16.7151 H   0  0  0  0  0  0
    5.0777   53.6736   16.8712 H   0  0  0  0  0  0
    4.0780   53.0312   18.1093 H   0  0  0  0  0  0
    4.4086   51.9546   19.4078 H   0  0  0  0  0  0
    4.2796   51.3548   21.0461 H   0  0  0  0  0  0
  1  5  2  0  0  0
  1  2  1  0  0  0
  1 35  1  0  0  0
  2  3  2  0  0  0
  2 36  1  0  0  0
  3  4  1  0  0  0
  3  6  1  0  0  0
  4  5  1  0  0  0
  5 37  1  0  0  0
  6 10  1  0  0  0
  6  7  2  0  0  0
  7  8  1  0  0  0
  8  9  2  0  0  0
  9 10  1  0  0  0
  9 18  1  0  0  0
 10 11  1  0  0  0
 11 12  1  0  0  0
 11 38  1  0  0  0
 11 39  1  0  0  0
 12 13  1  0  0  0
 12 17  1  0  0  0
 12 14  1  0  0  0
 14 15  1  0  0  0
 14 40  1  0  0  0
 14 41  1  0  0  0
 15 16  1  0  0  0
 15 42  1  0  0  0
 15 43  1  0  0  0
 16 17  1  0  0  0
 16 44  1  0  0  0
 16 45  1  0  0  0
 18 19  1  0  0  0
 19 20  1  0  0  0
 19 46  1  0  0  0
 19 47  1  0  0  0
 20 28  2  0  0  0
 20 21  1  0  0  0
 21 22  2  0  0  0
 22 23  1  0  0  0
 22 34  1  0  0  0
 23 27  2  0  0  0
 23 24  1  0  0  0
 24 33  1  0  0  0
 24 25  2  0  0  0
 25 26  1  0  0  0
 25 29  1  0  0  0
 26 27  1  0  0  0
 27 28  1  0  0  0
 29 30  1  0  0  0
 29 48  1  0  0  0
 29 49  1  0  0  0
 30 31  1  0  0  0
 30 50  1  0  0  0
 30 51  1  0  0  0
 31 32  1  0  0  0
 31 52  1  0  0  0
 31 53  1  0  0  0
 32 33  1  0  0  0
 32 54  1  0  0  0
 32 55  1  0  0  0
 33 56  1  0  0  0
 33 57  1  0  0  0
 34 58  1  0  0  0
 34 59  1  0  0  0
M  END
> <i_i_glide_confnum>
128

> <i_i_glide_lignum>
3999

> <i_i_glide_posenum>
100

> <i_i_glide_rotatable_bonds>
6

> <i_m_Source_File_Index>
49

> <b_m_subgroup_collapsed>
0

> <r_i_docking_score>
-5.87532

> <r_i_glide_ecoul>
-2.7169

> <r_i_glide_eff_state_penalty>
0

> <r_i_glide_einternal>
4.89814

> <r_i_glide_emodel>
-67.357

> <r_i_glide_energy>
-50.7176

> <r_i_glide_erotb>
0.492362

> <r_i_glide_esite>
-0.0477314

> <r_i_glide_evdw>
-48.0007

> <r_i_glide_gscore>
-5.87532

> <r_i_glide_hbond>
-0.0415408

> <r_i_glide_ligand_efficiency>
-0.17804

> <r_i_glide_ligand_efficiency_ln>
-1.30664

> <r_i_glide_ligand_efficiency_sa>
-0.57107

> <r_i_glide_lipo>
-2.15227

> <r_i_glide_metal>
0

> <r_i_glide_rewards>
-1.31857

> <s_i_glide_gridfile>
wee1_glide-grid

> <s_m_Source_File>
wee1_decoys_glide_SP.sdf

> <s_m_Source_Path>
/Users/zhangxujun/Desktop

> <s_m_entry_id>
324

> <s_m_entry_name>
wee1_decoys_glide_SP.49

> <s_m_subgroup_title>
wee1_decoys_glide_SP

> <s_m_subgroupid>
wee1_decoys_glide_SP


$$$$
