@<TRIPOS>MOLECULE
ZINC49263305_3893
37   38    1
SMALL
USER_CHARGES


@<TRIPOS>ATOM
      1 C1          6.7049   53.6985   28.1481 C.3       1 UNK         0.0000 
      2 C2          5.8453   54.3415   27.0523 C.3       1 UNK         0.0000 
      3 H3          5.6367   55.3741   27.3275 H         1 UNK         0.0000 
      4 C4          6.5845   54.3642   25.7078 C.3       1 UNK         0.0000 
      5 C5          5.7607   55.0498   24.6213 C.3       1 UNK         0.0000 
      6 C6          4.4111   54.3386   24.4204 C.3       1 UNK         0.0000 
      7 C7          3.6204   54.0966   25.7296 C.3       1 UNK         0.0000 
      8 H8          3.2838   55.0900   26.0297 H         1 UNK         0.0000 
      9 C9          4.4957   53.6188   26.9177 C.3       1 UNK         0.0000 
     10 N10         2.4256   53.2965   25.4816 N.am      1 UNK         0.0000 
     11 C11         1.4413   53.0347   26.3510 C.2       1 UNK         0.0000 
     12 O12         1.3860   53.4884   27.4945 O.2       1 UNK         0.0000 
     13 N13         0.5010   52.2616   25.7769 N.am      1 UNK         0.0000 
     14 C14        -0.7795   52.0120   26.2898 C.ar      1 UNK         0.0000 
     15 C15        -0.9624   51.5295   27.5929 C.ar      1 UNK         0.0000 
     16 C16        -2.2488   51.2966   28.0777 C.ar      1 UNK         0.0000 
     17 C17        -3.3573   51.5332   27.2677 C.ar      1 UNK         0.0000 
     18 C18        -3.1827   52.0107   25.9692 C.ar      1 UNK         0.0000 
     19 C19        -1.8991   52.2510   25.4733 C.ar      1 UNK         0.0000 
     20 Br20       -1.7157   52.9045   23.6868 Br        1 UNK         0.0000 
     21 F21        -4.6024   51.3066   27.7433 F         1 UNK         0.0000 
     22 H22         6.9352   52.6554   27.9232 H         1 UNK         0.0000 
     23 H23         6.1850   53.7268   29.1040 H         1 UNK         0.0000 
     24 H24         7.6496   54.2274   28.2756 H         1 UNK         0.0000 
     25 H25         7.5127   54.8965   25.8279 H         1 UNK         0.0000 
     26 H26         6.8559   53.3505   25.4069 H         1 UNK         0.0000 
     27 H27         6.3188   55.0675   23.6842 H         1 UNK         0.0000 
     28 H28         5.5920   56.0927   24.8936 H         1 UNK         0.0000 
     29 H29         4.6322   53.3718   23.9631 H         1 UNK         0.0000 
     30 H30         3.8053   54.8968   23.7055 H         1 UNK         0.0000 
     31 H31         4.7256   52.5649   26.7612 H         1 UNK         0.0000 
     32 H32         3.9587   53.6653   27.8658 H         1 UNK         0.0000 
     33 H33         2.4371   52.7732   24.6200 H         1 UNK         0.0000 
     34 H34         0.6533   51.9566   24.8286 H         1 UNK         0.0000 
     35 H35        -0.1128   51.3213   28.2275 H         1 UNK         0.0000 
     36 H36        -2.3846   50.9060   29.0752 H         1 UNK         0.0000 
     37 H37        -4.0463   52.1927   25.3467 H         1 UNK         0.0000 
@<TRIPOS>BOND
     1    1    2 1    
     2    1   22 1    
     3    1   23 1    
     4    1   24 1    
     5    2    3 1    
     6    2    9 1    
     7    2    4 1    
     8    4    5 1    
     9    4   25 1    
    10    4   26 1    
    11    5    6 1    
    12    5   27 1    
    13    5   28 1    
    14    6    7 1    
    15    6   29 1    
    16    6   30 1    
    17    7    8 1    
    18    7    9 1    
    19    7   10 1    
    20    9   31 1    
    21    9   32 1    
    22   10   11 am   BACKBONE|DICT|INTERRES
    23   10   33 1    
    24   11   12 2    
    25   11   13 am   BACKBONE|DICT|INTERRES
    26   13   14 1    
    27   13   34 1    
    28   14   19 ar   
    29   14   15 ar   
    30   15   16 ar   
    31   15   35 1    
    32   16   17 ar   
    33   16   36 1    
    34   17   18 ar   
    35   17   21 1    
    36   18   19 ar   
    37   18   37 1    
    38   19   20 1    
@<TRIPOS>SUBSTRUCTURE
     1 UNK         1 GROUP             0       ****    0 ROOT    
