ZINC12446477_111
                    3D
 Schrodinger Suite 2024-2.
 57 60  0  0  1  0            999 V2000
   -0.2350   49.6236   22.9419 C   0  0  0  0  0  0
    0.0553   50.4394   24.0387 C   0  0  0  0  0  0
   -0.4147   50.0865   25.3109 C   0  0  0  0  0  0
   -1.3841   48.1043   24.4215 C   0  0  0  0  0  0
   -0.9929   48.4562   23.1200 C   0  0  0  0  0  0
   -1.3866   47.5930   21.9218 C   0  0  0  0  0  0
   -2.5621   48.0184   21.4657 F   0  0  0  0  0  0
   -0.4958   47.6791   20.9327 F   0  0  0  0  0  0
   -1.5121   46.3117   22.2680 F   0  0  0  0  0  0
   -0.2295   50.9375   26.4414 N   0  0  0  0  0  0
   -1.0445   50.7822   27.6536 C   0  0  0  0  0  0
   -1.2124   52.0975   28.3818 C   0  0  0  0  0  0
    0.1330   52.6780   28.8191 C   0  0  0  0  0  0
    1.0789   52.7593   27.6065 C   0  0  2  0  0  0
    0.6593   53.5261   26.9588 H   0  0  0  0  0  0
    1.1044   51.4821   26.7439 C   0  0  0  0  0  0
    2.4117   53.2742   27.8460 N   0  0  0  0  0  0
    3.3175   52.8532   28.7362 C   0  0  0  0  0  0
    3.1104   51.9597   29.5594 O   0  0  0  0  0  0
    4.6935   53.5212   28.6648 C   0  0  0  0  0  0
    4.8394   54.7534   27.7286 C   0  0  0  0  0  0
    5.3020   54.4534   26.3126 C   0  0  0  0  0  0
    4.6656   54.3086   25.0729 C   0  0  0  0  0  0
    5.7219   54.0968   24.1575 C   0  0  0  0  0  0
    6.8966   54.1196   24.7386 N   0  0  0  0  0  0
    6.6319   54.3155   26.0289 N   0  0  0  0  0  0
    7.3621   54.3440   26.7257 H   0  0  0  0  0  0
    5.5363   53.8000   22.6734 C   0  0  0  0  0  0
    4.0846   54.1095   22.2410 C   0  0  0  0  0  0
    3.0397   53.6170   23.2598 C   0  0  0  0  0  0
    3.1989   54.2860   24.6432 C   0  0  0  0  0  0
    0.1003   49.9191   21.9568 H   0  0  0  0  0  0
    0.6005   51.3598   23.8855 H   0  0  0  0  0  0
   -1.9480   47.2186   24.6796 H   0  0  0  0  0  0
   -0.4902   50.0970   28.2838 H   0  0  0  0  0  0
   -2.0147   50.3460   27.4106 H   0  0  0  0  0  0
   -1.8635   51.9604   29.2454 H   0  0  0  0  0  0
   -1.6953   52.7731   27.6805 H   0  0  0  0  0  0
    0.5452   52.0207   29.5860 H   0  0  0  0  0  0
   -0.0065   53.6609   29.2701 H   0  0  0  0  0  0
    1.6164   51.6982   25.8081 H   0  0  0  0  0  0
    1.6459   50.6994   27.2799 H   0  0  0  0  0  0
    2.7246   53.9828   27.1998 H   0  0  0  0  0  0
    5.5022   52.8001   28.5400 H   0  0  0  0  0  0
    4.7919   53.9040   29.6798 H   0  0  0  0  0  0
    5.5587   55.4324   28.1882 H   0  0  0  0  0  0
    3.8998   55.2967   27.6787 H   0  0  0  0  0  0
    5.7458   52.7459   22.4863 H   0  0  0  0  0  0
    6.2358   54.3737   22.0638 H   0  0  0  0  0  0
    3.8929   53.6559   21.2674 H   0  0  0  0  0  0
    3.9623   55.1826   22.0865 H   0  0  0  0  0  0
    3.0973   52.5316   23.3579 H   0  0  0  0  0  0
    2.0374   53.8198   22.8786 H   0  0  0  0  0  0
    2.8131   55.2971   24.5863 H   0  0  0  0  0  0
    2.5719   53.7685   25.3600 H   0  0  0  0  0  0
   -1.0871   48.9218   25.4519 N   0  3  0  0  0  0
   -1.3553   48.6453   26.3948 H   0  0  0  0  0  0
  1  5  2  0  0  0
  1  2  1  0  0  0
  1 32  1  0  0  0
  2  3  2  0  0  0
  2 33  1  0  0  0
  3 10  1  0  0  0
  3 56  1  0  0  0
  4  5  1  0  0  0
  4 34  1  0  0  0
  4 56  2  0  0  0
  5  6  1  0  0  0
  6  7  1  0  0  0
  6  8  1  0  0  0
  6  9  1  0  0  0
 10 16  1  0  0  0
 10 11  1  0  0  0
 11 12  1  0  0  0
 11 35  1  0  0  0
 11 36  1  0  0  0
 12 13  1  0  0  0
 12 37  1  0  0  0
 12 38  1  0  0  0
 13 14  1  0  0  0
 13 39  1  0  0  0
 13 40  1  0  0  0
 14 15  1  0  0  0
 14 16  1  0  0  0
 14 17  1  0  0  0
 16 41  1  0  0  0
 16 42  1  0  0  0
 17 18  1  0  0  0
 17 43  1  0  0  0
 18 19  2  0  0  0
 18 20  1  0  0  0
 20 21  1  0  0  0
 20 44  1  0  0  0
 20 45  1  0  0  0
 21 22  1  0  0  0
 21 46  1  0  0  0
 21 47  1  0  0  0
 22 26  1  0  0  0
 22 23  2  0  0  0
 23 31  1  0  0  0
 23 24  1  0  0  0
 24 25  2  0  0  0
 24 28  1  0  0  0
 25 26  1  0  0  0
 26 27  1  0  0  0
 28 29  1  0  0  0
 28 48  1  0  0  0
 28 49  1  0  0  0
 29 30  1  0  0  0
 29 50  1  0  0  0
 29 51  1  0  0  0
 30 31  1  0  0  0
 30 52  1  0  0  0
 30 53  1  0  0  0
 31 54  1  0  0  0
 31 55  1  0  0  0
 56 57  1  0  0  0
M  CHG  1  56   1
M  END
> <i_i_glide_confnum>
161

> <i_i_glide_lignum>
112

> <i_i_glide_posenum>
119

> <i_i_glide_rotatable_bonds>
7

> <i_m_Source_File_Index>
3329

> <b_m_subgroup_collapsed>
0

> <r_i_docking_score>
-5.27189

> <r_i_glide_ecoul>
-2.66298

> <r_i_glide_eff_state_penalty>
0

> <r_i_glide_einternal>
7.10899

> <r_i_glide_emodel>
-44.6086

> <r_i_glide_energy>
-33.7296

> <r_i_glide_erotb>
0.554989

> <r_i_glide_esite>
-0.154409

> <r_i_glide_evdw>
-31.0666

> <r_i_glide_gscore>
-5.27189

> <r_i_glide_hbond>
-0.38529

> <r_i_glide_ligand_efficiency>
-0.17573

> <r_i_glide_ligand_efficiency_ln>
-1.19783

> <r_i_glide_ligand_efficiency_sa>
-0.546033

> <r_i_glide_lipo>
-2.52875

> <r_i_glide_metal>
0

> <r_i_glide_rewards>
-0.805649

> <s_i_glide_gridfile>
wee1_glide-grid

> <s_m_Source_File>
wee1_decoys_glide_SP.sdf

> <s_m_Source_Path>
/Users/zhangxujun/Desktop

> <s_m_entry_id>
3604

> <s_m_entry_name>
wee1_decoys_glide_SP.3329

> <s_m_subgroup_title>
wee1_decoys_glide_SP

> <s_m_subgroupid>
wee1_decoys_glide_SP


$$$$
