@<TRIPOS>MOLECULE
ZINC38932073_5858
45   48    1
SMALL
USER_CHARGES


@<TRIPOS>ATOM
      1 C1         -0.0385   53.5547   31.5395 C.3       1 UNK         0.0000 
      2 C2          0.8757   53.7925   30.3512 C.ar      1 UNK         0.0000 
      3 C3          1.3692   55.0717   30.0814 C.ar      1 UNK         0.0000 
      4 C4          2.2030   55.2786   28.9844 C.ar      1 UNK         0.0000 
      5 C5          2.5299   54.2078   28.1507 C.ar      1 UNK         0.0000 
      6 C6          2.0419   52.9272   28.4239 C.ar      1 UNK         0.0000 
      7 C7          1.2116   52.7221   29.5224 C.ar      1 UNK         0.0000 
      8 S8          3.5491   54.4923   26.7284 S.3       1 UNK         0.0000 
      9 C9          2.7287   53.5697   25.3850 C.3       1 UNK         0.0000 
     10 C10         3.2650   53.6968   23.9661 C.2       1 UNK         0.0000 
     11 C11         2.6766   53.4124   22.7990 C.2       1 UNK         0.0000 
     12 C12         1.3387   52.8300   22.3509 C.3       1 UNK         0.0000 
     13 H13         0.7113   53.6459   22.0040 H         1 UNK         0.0000 
     14 C14         1.5981   51.9744   21.1048 C.2       1 UNK         0.0000 
     15 C15         2.8058   51.9176   20.4946 C.2       1 UNK         0.0000 
     16 O16         3.9297   52.5947   20.8749 O.3       1 UNK         0.0000 
     17 C17         3.6923   53.7189   21.7447 C.3       1 UNK         0.0000 
     18 H18         3.4098   54.5577   21.1064 H         1 UNK         0.0000 
     19 N19         4.8389   54.0975   22.5107 N.2       1 UNK         0.0000 
     20 N20         4.5443   54.0961   23.7558 N.2       1 UNK         0.0000 
     21 N21         3.1043   51.1813   19.3786 N.pl3     1 UNK         0.0000 
     22 C22         0.5028   51.2223   20.5781 C.1       1 UNK         0.0000 
     23 N23        -0.4021   50.6436   20.1484 N.1       1 UNK         0.0000 
     24 C24         0.5736   52.1172   23.4712 C.ar      1 UNK         0.0000 
     25 C25        -0.5331   52.7248   24.0781 C.ar      1 UNK         0.0000 
     26 C26        -1.2062   52.0885   25.1229 C.ar      1 UNK         0.0000 
     27 C27        -0.7838   50.8334   25.5617 C.ar      1 UNK         0.0000 
     28 C28         0.3035   50.2126   24.9517 C.ar      1 UNK         0.0000 
     29 C29         0.9797   50.8500   23.9113 C.ar      1 UNK         0.0000 
     30 F30         0.7043   48.9925   25.3704 F         1 UNK         0.0000 
     31 H31         0.5017   53.0646   32.3515 H         1 UNK         0.0000 
     32 H32        -0.4866   54.4774   31.9081 H         1 UNK         0.0000 
     33 H33        -0.8608   52.8962   31.2543 H         1 UNK         0.0000 
     34 H34         1.1122   55.9049   30.7206 H         1 UNK         0.0000 
     35 H35         2.5854   56.2683   28.7799 H         1 UNK         0.0000 
     36 H36         2.2936   52.0899   27.7927 H         1 UNK         0.0000 
     37 H37         0.8262   51.7330   29.7271 H         1 UNK         0.0000 
     38 H38         2.7387   52.5099   25.6334 H         1 UNK         0.0000 
     39 H39         1.6816   53.8743   25.3797 H         1 UNK         0.0000 
     40 H40         2.3942   50.6483   18.8981 H         1 UNK         0.0000 
     41 H41         4.0616   51.0417   19.0519 H         1 UNK         0.0000 
     42 H42        -0.8672   53.6999   23.7555 H         1 UNK         0.0000 
     43 H43        -2.0539   52.5640   25.5946 H         1 UNK         0.0000 
     44 H44        -1.3006   50.3328   26.3699 H         1 UNK         0.0000 
     45 H45         1.8270   50.3570   23.4573 H         1 UNK         0.0000 
@<TRIPOS>BOND
     1    1    2 1    
     2    1   31 1    
     3    1   32 1    
     4    1   33 1    
     5    2    7 ar   
     6    2    3 ar   
     7    3    4 ar   
     8    3   34 1    
     9    4    5 ar   
    10    4   35 1    
    11    5    6 ar   
    12    5    8 1    
    13    6    7 ar   
    14    6   36 1    
    15    7   37 1    
    16    8    9 1    
    17    9   10 1    
    18    9   38 1    
    19    9   39 1    
    20   10   20 1    
    21   10   11 2    
    22   11   17 1    
    23   11   12 1    
    24   12   13 1    
    25   12   14 1    
    26   12   24 1    
    27   14   15 2    
    28   14   22 1    
    29   15   16 1    
    30   15   21 1    
    31   16   17 1    
    32   17   18 1    
    33   17   19 1    
    34   19   20 2    
    35   21   40 1    
    36   21   41 1    
    37   22   23 3    
    38   24   29 ar   
    39   24   25 ar   
    40   25   26 ar   
    41   25   42 1    
    42   26   27 ar   
    43   26   43 1    
    44   27   28 ar   
    45   27   44 1    
    46   28   29 ar   
    47   28   30 1    
    48   29   45 1    
@<TRIPOS>SUBSTRUCTURE
     1 UNK         1 GROUP             0       ****    0 ROOT    
