@<TRIPOS>MOLECULE
ZINC67265316_6228
58   59    1
SMALL
USER_CHARGES


@<TRIPOS>ATOM
      1 C1          1.3873   56.0688   30.0208 C.3       1 UNK         0.0000 
      2 C2          1.2511   54.5413   30.1977 C.3       1 UNK         0.0000 
      3 C3         -0.0246   54.0179   29.5227 C.3       1 UNK         0.0000 
      4 C4          2.5202   53.7640   29.7667 C.3       1 UNK         0.0000 
      5 N5          2.9072   54.0828   28.2970 N.4       1 UNK         0.0000 
      6 C6          4.4125   54.4208   28.1957 C.3       1 UNK         0.0000 
      7 C7          4.7350   54.8133   26.7470 C.3       1 UNK         0.0000 
      8 C8          4.3438   53.7476   25.7140 C.3       1 UNK         0.0000 
      9 C9          2.8811   53.2965   25.9084 C.3       1 UNK         0.0000 
     10 C10         2.5446   52.9077   27.3593 C.3       1 UNK         0.0000 
     11 N11         4.6454   54.0991   24.3255 N.am      1 UNK         0.0000 
     12 C12         5.8738   54.2802   23.8069 C.2       1 UNK         0.0000 
     13 O13         6.8966   54.2836   24.4916 O.2       1 UNK         0.0000 
     14 C14         5.9356   54.4968   22.3154 C.ar      1 UNK         0.0000 
     15 C15         6.9631   55.2781   21.7606 C.ar      1 UNK         0.0000 
     16 C16         7.0893   55.4191   20.3751 C.ar      1 UNK         0.0000 
     17 C17         6.1505   54.8049   19.5333 C.ar      1 UNK         0.0000 
     18 C18         5.1155   54.0292   20.0705 C.ar      1 UNK         0.0000 
     19 C19         5.0191   53.8732   21.4537 C.ar      1 UNK         0.0000 
     20 N20         4.2295   53.2971   19.2655 N.am      1 UNK         0.0000 
     21 C21         3.7202   53.6633   18.0731 C.2       1 UNK         0.0000 
     22 O22         3.8922   54.7608   17.5429 O.2       1 UNK         0.0000 
     23 C23         2.8553   52.6212   17.3758 C.3       1 UNK         0.0000 
     24 N24         8.2288   56.0967   19.9057 N.am      1 UNK         0.0000 
     25 C25         8.4321   56.6602   18.6964 C.2       1 UNK         0.0000 
     26 O26         7.5977   56.7353   17.7969 O.2       1 UNK         0.0000 
     27 C27         9.8095   57.2765   18.4858 C.3       1 UNK         0.0000 
     28 H28         1.4064   56.3635   28.9709 H         1 UNK         0.0000 
     29 H29         2.2976   56.4495   30.4810 H         1 UNK         0.0000 
     30 H30         0.5535   56.5946   30.4865 H         1 UNK         0.0000 
     31 H31         1.1050   54.3530   31.2635 H         1 UNK         0.0000 
     32 H32        -0.0563   54.2483   28.4582 H         1 UNK         0.0000 
     33 H33        -0.1279   52.9374   29.6393 H         1 UNK         0.0000 
     34 H34        -0.8954   54.4738   29.9905 H         1 UNK         0.0000 
     35 H35         3.3705   54.0422   30.3908 H         1 UNK         0.0000 
     36 H36         2.4054   52.6826   29.8681 H         1 UNK         0.0000 
     37 H37         4.5997   55.2667   28.8601 H         1 UNK         0.0000 
     38 H38         4.9797   53.5510   28.5339 H         1 UNK         0.0000 
     39 H39         4.1729   55.6967   26.4811 H         1 UNK         0.0000 
     40 H40         5.7922   55.0701   26.6763 H         1 UNK         0.0000 
     41 H41         4.9805   52.8968   25.9618 H         1 UNK         0.0000 
     42 H42         2.6617   52.4619   25.2452 H         1 UNK         0.0000 
     43 H43         2.2091   54.0981   25.6008 H         1 UNK         0.0000 
     44 H44         3.1047   52.0381   27.7016 H         1 UNK         0.0000 
     45 H45         1.4754   52.7183   27.4646 H         1 UNK         0.0000 
     46 H46         3.8636   54.1316   23.6900 H         1 UNK         0.0000 
     47 H47         7.6991   55.7324   22.4121 H         1 UNK         0.0000 
     48 H48         6.2567   54.8574   18.4611 H         1 UNK         0.0000 
     49 H49         4.2399   53.2371   21.8508 H         1 UNK         0.0000 
     50 H50         3.9340   52.4016   19.6241 H         1 UNK         0.0000 
     51 H51         1.8264   52.6876   17.7307 H         1 UNK         0.0000 
     52 H52         2.8614   52.7846   16.2967 H         1 UNK         0.0000 
     53 H53         3.2282   51.6115   17.5622 H         1 UNK         0.0000 
     54 H54         8.9864   56.1820   20.5664 H         1 UNK         0.0000 
     55 H55        10.0456   57.9812   19.2817 H         1 UNK         0.0000 
     56 H56        10.5713   56.4984   18.4784 H         1 UNK         0.0000 
     57 H57         9.8515   57.8087   17.5355 H         1 UNK         0.0000 
     58 H58         2.3802   54.8990   28.0169 H         1 UNK         0.0000 
@<TRIPOS>BOND
     1    1    2 1    
     2    1   28 1    
     3    1   29 1    
     4    1   30 1    
     5    2    3 1    
     6    2    4 1    
     7    2   31 1    
     8    3   32 1    
     9    3   33 1    
    10    3   34 1    
    11    4    5 1    
    12    4   35 1    
    13    4   36 1    
    14    5   10 1    
    15    5    6 1    
    16    5   58 1    
    17    6    7 1    
    18    6   37 1    
    19    6   38 1    
    20    7    8 1    
    21    7   39 1    
    22    7   40 1    
    23    8    9 1    
    24    8   11 1    
    25    8   41 1    
    26    9   10 1    
    27    9   42 1    
    28    9   43 1    
    29   10   44 1    
    30   10   45 1    
    31   11   12 am   BACKBONE|DICT|INTERRES
    32   11   46 1    
    33   12   13 2    
    34   12   14 1    
    35   14   19 ar   
    36   14   15 ar   
    37   15   16 ar   
    38   15   47 1    
    39   16   17 ar   
    40   16   24 1    
    41   17   18 ar   
    42   17   48 1    
    43   18   19 ar   
    44   18   20 1    
    45   19   49 1    
    46   20   21 am   BACKBONE|DICT|INTERRES
    47   20   50 1    
    48   21   22 2    
    49   21   23 1    
    50   23   51 1    
    51   23   52 1    
    52   23   53 1    
    53   24   25 am   BACKBONE|DICT|INTERRES
    54   24   54 1    
    55   25   26 2    
    56   25   27 1    
    57   27   55 1    
    58   27   56 1    
    59   27   57 1    
@<TRIPOS>SUBSTRUCTURE
     1 UNK         1 GROUP             0       ****    0 ROOT    
