ZINC44136281_2423
                    3D
 Schrodinger Suite 2024-2.
 73 75  0  0  1  0            999 V2000
    7.4291   58.8328   16.7970 C   0  0  0  0  0  0
    7.9480   57.5257   17.3563 C   0  0  0  0  0  0
    7.1676   56.6651   17.9583 N   0  0  0  0  0  0
    7.8008   55.5875   18.3907 C   0  0  0  0  0  0
    9.1655   55.5707   18.1162 C   0  0  0  0  0  0
    9.6070   57.0250   17.2782 S   0  0  0  0  0  0
    7.0688   54.5475   19.1147 C   0  0  0  0  0  0
    5.7993   54.4919   19.5887 C   0  0  0  0  0  0
    4.7885   55.5901   19.2846 C   0  0  0  0  0  0
    5.2995   53.2699   20.4088 C   0  0  1  0  0  0
    5.8608   52.4105   20.0386 H   0  0  0  0  0  0
    5.5044   53.3175   21.9641 C   0  0  0  0  0  0
    4.6477   54.3203   22.7370 C   0  0  1  0  0  0
    4.1961   55.1130   22.1455 H   0  0  0  0  0  0
    4.0310   53.9045   24.0394 C   0  0  1  0  0  0
    4.1432   52.8983   24.4275 H   0  0  0  0  0  0
    5.1933   54.6750   23.9896 O   0  0  0  0  0  0
    2.8247   54.6403   24.5869 C   0  0  0  0  0  0
    1.5158   53.8471   24.5380 C   0  0  0  0  0  0
    1.0681   53.3810   23.1476 C   0  0  0  0  0  0
   -0.3623   52.7639   23.0896 C   0  0  1  0  0  0
   -0.6190   52.7697   22.0298 H   0  0  0  0  0  0
   -0.4747   51.2786   23.5722 C   0  0  1  0  0  0
   -1.5095   50.9690   23.4028 H   0  0  0  0  0  0
    0.4584   50.2388   22.8778 C   0  0  2  0  0  0
    1.4649   50.5138   23.1779 H   0  0  0  0  0  0
    0.3848   50.2577   21.3224 C   0  0  0  0  0  0
   -0.7030   50.4830   20.7902 O   0  0  0  0  0  0
    1.6446   49.9010   20.4521 C   0  0  0  0  0  0
    1.6948   50.7208   19.0982 C   0  0  2  0  0  0
    2.5376   50.3365   18.5132 H   0  0  0  0  0  0
    1.8511   52.2585   19.2200 C   0  0  0  0  0  0
    3.3001   52.7215   19.0490 C   0  0  0  0  0  0
    3.7893   52.8960   17.9332 O   0  0  0  0  0  0
    3.9106   52.9369   20.2423 O   0  0  0  0  0  0
    0.5909   50.4781   18.2434 O   0  0  0  0  0  0
    1.5882   48.3915   20.0687 C   0  0  0  0  0  0
    2.9572   50.1318   21.2411 C   0  0  0  0  0  0
    0.2109   48.8025   23.4075 C   0  0  0  0  0  0
   -0.2599   51.2230   24.9777 O   0  0  0  0  0  0
   -1.4481   53.6505   23.7618 C   0  0  0  0  0  0
    6.3431   58.8990   16.8587 H   0  0  0  0  0  0
    7.6944   58.9568   15.7455 H   0  0  0  0  0  0
    7.8317   59.6918   17.3334 H   0  0  0  0  0  0
    9.9082   54.8273   18.3749 H   0  0  0  0  0  0
    7.7010   53.6954   19.2821 H   0  0  0  0  0  0
    3.8178   55.2970   19.6822 H   0  0  0  0  0  0
    5.1102   56.5381   19.7019 H   0  0  0  0  0  0
    4.6560   55.7032   18.2071 H   0  0  0  0  0  0
    5.2885   52.3145   22.3369 H   0  0  0  0  0  0
    6.5091   53.5239   22.3509 H   0  0  0  0  0  0
    2.7005   55.5959   24.0835 H   0  0  0  0  0  0
    3.0657   54.8952   25.6219 H   0  0  0  0  0  0
    0.7421   54.5191   24.8816 H   0  0  0  0  0  0
    1.5580   53.0138   25.2366 H   0  0  0  0  0  0
    1.8008   52.6878   22.7444 H   0  0  0  0  0  0
    1.1078   54.2429   22.4831 H   0  0  0  0  0  0
    1.4602   52.6184   20.1717 H   0  0  0  0  0  0
    1.2690   52.7649   18.4501 H   0  0  0  0  0  0
    0.6347   49.5648   17.9494 H   0  0  0  0  0  0
    2.2652   48.1565   19.2470 H   0  0  0  0  0  0
    1.9006   47.7423   20.8817 H   0  0  0  0  0  0
    0.5903   48.0679   19.7607 H   0  0  0  0  0  0
    3.8270   50.0963   20.5839 H   0  0  0  0  0  0
    2.9933   51.1046   21.7246 H   0  0  0  0  0  0
    3.0973   49.3832   22.0205 H   0  0  0  0  0  0
    1.1059   48.1997   23.2820 H   0  0  0  0  0  0
   -0.0124   48.7643   24.4747 H   0  0  0  0  0  0
   -0.6160   48.3040   22.8953 H   0  0  0  0  0  0
   -0.4807   50.3415   25.2952 H   0  0  0  0  0  0
   -1.5093   53.4492   24.8342 H   0  0  0  0  0  0
   -1.2352   54.7117   23.6817 H   0  0  0  0  0  0
   -2.4369   53.4612   23.3365 H   0  0  0  0  0  0
  1  2  1  0  0  0
  1 42  1  0  0  0
  1 43  1  0  0  0
  1 44  1  0  0  0
  2  6  1  0  0  0
  2  3  2  0  0  0
  3  4  1  0  0  0
  4  5  2  0  0  0
  4  7  1  0  0  0
  5  6  1  0  0  0
  5 45  1  0  0  0
  7  8  2  0  0  0
  7 46  1  0  0  0
  8  9  1  0  0  0
  8 10  1  0  0  0
  9 47  1  0  0  0
  9 48  1  0  0  0
  9 49  1  0  0  0
 10 11  1  0  0  0
 10 35  1  0  0  0
 10 12  1  0  0  0
 12 13  1  0  0  0
 12 50  1  0  0  0
 12 51  1  0  0  0
 13 14  1  0  0  0
 13 17  1  0  0  0
 13 15  1  0  0  0
 15 16  1  0  0  0
 15 17  1  0  0  0
 15 18  1  0  0  0
 18 19  1  0  0  0
 18 52  1  0  0  0
 18 53  1  0  0  0
 19 20  1  0  0  0
 19 54  1  0  0  0
 19 55  1  0  0  0
 20 21  1  0  0  0
 20 56  1  0  0  0
 20 57  1  0  0  0
 21 22  1  0  0  0
 21 23  1  0  0  0
 21 41  1  0  0  0
 23 24  1  0  0  0
 23 25  1  0  0  0
 23 40  1  0  0  0
 25 26  1  0  0  0
 25 27  1  0  0  0
 25 39  1  0  0  0
 27 28  2  0  0  0
 27 29  1  0  0  0
 29 30  1  0  0  0
 29 37  1  0  0  0
 29 38  1  0  0  0
 30 31  1  0  0  0
 30 32  1  0  0  0
 30 36  1  0  0  0
 32 33  1  0  0  0
 32 58  1  0  0  0
 32 59  1  0  0  0
 33 34  2  0  0  0
 33 35  1  0  0  0
 36 60  1  0  0  0
 37 61  1  0  0  0
 37 62  1  0  0  0
 37 63  1  0  0  0
 38 64  1  0  0  0
 38 65  1  0  0  0
 38 66  1  0  0  0
 39 67  1  0  0  0
 39 68  1  0  0  0
 39 69  1  0  0  0
 40 70  1  0  0  0
 41 71  1  0  0  0
 41 72  1  0  0  0
 41 73  1  0  0  0
M  END
> <i_i_glide_confnum>
34

> <i_i_glide_lignum>
2424

> <i_i_glide_posenum>
123

> <i_i_glide_rotatable_bonds>
4

> <i_m_Source_File_Index>
3791

> <b_m_subgroup_collapsed>
0

> <r_i_docking_score>
-2.73136

> <r_i_glide_ecoul>
-1.41868

> <r_i_glide_eff_state_penalty>
0

> <r_i_glide_einternal>
4.00329

> <r_i_glide_emodel>
-27.302

> <r_i_glide_energy>
-21.7247

> <r_i_glide_erotb>
0.1672

> <r_i_glide_esite>
-0.0381557

> <r_i_glide_evdw>
-20.306

> <r_i_glide_gscore>
-2.73136

> <r_i_glide_hbond>
0

> <r_i_glide_ligand_efficiency>
-0.080334

> <r_i_glide_ligand_efficiency_ln>
-0.603433

> <r_i_glide_ligand_efficiency_sa>
-0.260251

> <r_i_glide_lipo>
-1.57962

> <r_i_glide_metal>
0

> <r_i_glide_rewards>
-0.0526743

> <s_i_glide_gridfile>
wee1_glide-grid

> <s_m_Source_File>
wee1_decoys_glide_SP.sdf

> <s_m_Source_Path>
/Users/zhangxujun/Desktop

> <s_m_entry_id>
4066

> <s_m_entry_name>
wee1_decoys_glide_SP.3791

> <s_m_subgroup_title>
wee1_decoys_glide_SP

> <s_m_subgroupid>
wee1_decoys_glide_SP


$$$$
