ZINC54382984_4596
                    3D
 Schrodinger Suite 2024-2.
 51 52  0  0  1  0            999 V2000
   -1.1446   51.5419   29.6789 C   0  0  0  0  0  0
    0.0463   51.4673   28.7125 C   0  0  1  0  0  0
    0.5746   50.5478   28.9562 H   0  0  0  0  0  0
   -0.4062   51.3796   27.2517 C   0  0  0  0  0  0
   -1.1512   52.4217   26.6930 C   0  0  0  0  0  0
   -1.5907   52.3458   25.3765 C   0  0  0  0  0  0
   -1.2828   51.2225   24.6066 C   0  0  0  0  0  0
   -0.5261   50.1826   25.1508 C   0  0  0  0  0  0
   -0.0903   50.2620   26.4704 C   0  0  0  0  0  0
   -1.8896   51.1226   22.9276 S   0  0  0  0  0  0
   -2.0953   52.4963   22.4556 O   0  0  0  0  0  0
   -1.0263   50.1901   22.1968 O   0  0  0  0  0  0
   -3.4707   50.3659   23.0788 N   0  0  0  0  0  0
   -4.5221   51.0514   23.8583 C   0  0  0  0  0  0
    0.9367   52.6100   28.9115 N   0  0  0  0  0  0
    2.2625   52.5555   28.7509 C   0  0  0  0  0  0
    2.9713   51.6977   29.2831 O   0  0  0  0  0  0
    2.6870   53.5243   27.9197 N   0  0  0  0  0  0
    4.0081   53.7548   27.5169 C   0  0  0  0  0  0
    5.0851   53.6705   28.4077 C   0  0  0  0  0  0
    6.3769   53.9390   27.9645 C   0  0  0  0  0  0
    6.5967   54.2903   26.6345 C   0  0  0  0  0  0
    5.5328   54.3721   25.7300 C   0  0  0  0  0  0
    4.2339   54.1161   26.1855 C   0  0  0  0  0  0
    5.7815   54.7464   24.2650 C   0  0  0  0  0  0
    6.5519   56.0646   24.1264 C   0  0  0  0  0  0
    6.4924   53.6398   23.4704 C   0  0  0  0  0  0
   -1.8832   50.7676   29.4704 H   0  0  0  0  0  0
   -0.8337   51.4238   30.7197 H   0  0  0  0  0  0
   -1.6478   52.4965   29.6008 H   0  0  0  0  0  0
   -1.3839   53.2946   27.2812 H   0  0  0  0  0  0
   -2.1702   53.1558   24.9584 H   0  0  0  0  0  0
   -0.2865   49.3076   24.5647 H   0  0  0  0  0  0
    0.4757   49.4405   26.8825 H   0  0  0  0  0  0
   -3.4504   49.3454   23.1581 H   0  0  0  0  0  0
   -5.5008   50.6509   23.5863 H   0  0  0  0  0  0
   -4.3651   50.8606   24.9210 H   0  0  0  0  0  0
   -4.4957   52.1276   23.6803 H   0  0  0  0  0  0
    0.4915   53.5134   28.8715 H   0  0  0  0  0  0
    1.9810   54.0195   27.3990 H   0  0  0  0  0  0
    4.9250   53.4052   29.4408 H   0  0  0  0  0  0
    7.2067   53.8848   28.6558 H   0  0  0  0  0  0
    7.5982   54.4957   26.3077 H   0  0  0  0  0  0
    3.4038   54.1861   25.4981 H   0  0  0  0  0  0
    4.8122   54.8968   23.7880 H   0  0  0  0  0  0
    5.9659   56.8954   24.5127 H   0  0  0  0  0  0
    6.7490   56.2575   23.0711 H   0  0  0  0  0  0
    7.5117   56.0501   24.6357 H   0  0  0  0  0  0
    5.8378   52.7861   23.3057 H   0  0  0  0  0  0
    6.7758   53.9981   22.4819 H   0  0  0  0  0  0
    7.4035   53.2990   23.9650 H   0  0  0  0  0  0
  1  2  1  0  0  0
  1 28  1  0  0  0
  1 29  1  0  0  0
  1 30  1  0  0  0
  2  3  1  0  0  0
  2  4  1  0  0  0
  2 15  1  0  0  0
  4  9  2  0  0  0
  4  5  1  0  0  0
  5  6  2  0  0  0
  5 31  1  0  0  0
  6  7  1  0  0  0
  6 32  1  0  0  0
  7  8  2  0  0  0
  7 10  1  0  0  0
  8  9  1  0  0  0
  8 33  1  0  0  0
  9 34  1  0  0  0
 10 11  2  0  0  0
 10 12  2  0  0  0
 10 13  1  0  0  0
 13 14  1  0  0  0
 13 35  1  0  0  0
 14 36  1  0  0  0
 14 37  1  0  0  0
 14 38  1  0  0  0
 15 16  1  0  0  0
 15 39  1  0  0  0
 16 17  2  0  0  0
 16 18  1  0  0  0
 18 19  1  0  0  0
 18 40  1  0  0  0
 19 24  2  0  0  0
 19 20  1  0  0  0
 20 21  2  0  0  0
 20 41  1  0  0  0
 21 22  1  0  0  0
 21 42  1  0  0  0
 22 23  2  0  0  0
 22 43  1  0  0  0
 23 24  1  0  0  0
 23 25  1  0  0  0
 24 44  1  0  0  0
 25 26  1  0  0  0
 25 27  1  0  0  0
 25 45  1  0  0  0
 26 46  1  0  0  0
 26 47  1  0  0  0
 26 48  1  0  0  0
 27 49  1  0  0  0
 27 50  1  0  0  0
 27 51  1  0  0  0
M  END
> <i_i_glide_confnum>
16

> <i_i_glide_lignum>
4597

> <i_i_glide_posenum>
351

> <i_i_glide_rotatable_bonds>
8

> <i_m_Source_File_Index>
4594

> <b_m_subgroup_collapsed>
0

> <r_i_docking_score>
-3.60547

> <r_i_glide_ecoul>
-2.82074

> <r_i_glide_eff_state_penalty>
0

> <r_i_glide_einternal>
9.80533

> <r_i_glide_emodel>
-38.1007

> <r_i_glide_energy>
-37.1096

> <r_i_glide_erotb>
0.823352

> <r_i_glide_esite>
0

> <r_i_glide_evdw>
-34.2889

> <r_i_glide_gscore>
-3.60547

> <r_i_glide_hbond>
-0.176602

> <r_i_glide_ligand_efficiency>
-0.138672

> <r_i_glide_ligand_efficiency_ln>
-0.846733

> <r_i_glide_ligand_efficiency_sa>
-0.410815

> <r_i_glide_lipo>
-2.50133

> <r_i_glide_metal>
0

> <r_i_glide_rewards>
0.386668

> <s_i_glide_gridfile>
wee1_glide-grid

> <s_m_Source_File>
wee1_decoys_glide_SP.sdf

> <s_m_Source_Path>
/Users/zhangxujun/Desktop

> <s_m_entry_id>
4869

> <s_m_entry_name>
wee1_decoys_glide_SP.4594

> <s_m_subgroup_title>
wee1_decoys_glide_SP

> <s_m_subgroupid>
wee1_decoys_glide_SP


$$$$
