@<TRIPOS>MOLECULE
ZINC67470880_4613
48   49    1
SMALL
USER_CHARGES


@<TRIPOS>ATOM
      1 C1          1.9268   55.3247   29.3760 C.3       1 UNK         0.0000 
      2 C2          2.0480   53.9330   28.7147 C.3       1 UNK         0.0000 
      3 H3          2.7378   53.3028   29.2757 H         1 UNK         0.0000 
      4 C4          0.7308   53.1201   28.7187 C.2       1 UNK         0.0000 
      5 O5         -0.0952   53.2840   29.6209 O.2       1 UNK         0.0000 
      6 N6          0.5829   52.2369   27.7087 N.am      1 UNK         0.0000 
      7 N7         -0.4875   51.3427   27.6988 N.am      1 UNK         0.0000 
      8 C8         -1.2851   51.4344   26.6205 C.2       1 UNK         0.0000 
      9 O9         -1.6527   52.4967   26.1128 O.2       1 UNK         0.0000 
     10 N10        -1.5304   50.2236   26.0869 N.am      1 UNK         0.0000 
     11 C11        -1.6538   49.8923   24.6560 C.3       1 UNK         0.0000 
     12 C12        -1.8294   48.3517   24.5854 C.3       1 UNK         0.0000 
     13 C13        -2.9680   50.4821   24.0669 C.3       1 UNK         0.0000 
     14 C14        -0.3978   50.3709   23.8626 C.ar      1 UNK         0.0000 
     15 C15         0.7027   49.5226   23.6587 C.ar      1 UNK         0.0000 
     16 C16         1.8311   49.9642   22.9719 C.ar      1 UNK         0.0000 
     17 C17         1.8844   51.2665   22.4889 C.ar      1 UNK         0.0000 
     18 C18         0.8068   52.1258   22.6738 C.ar      1 UNK         0.0000 
     19 C19        -0.3257   51.6790   23.3509 C.ar      1 UNK         0.0000 
     20 Cl20        3.3027   51.8223   21.6774 Cl        1 UNK         0.0000 
     21 O21         2.4786   54.0974   27.3562 O.3       1 UNK         0.0000 
     22 C22         3.8169   54.2168   27.0230 C.ar      1 UNK         0.0000 
     23 C23         4.8791   54.1771   27.9441 C.ar      1 UNK         0.0000 
     24 C24         6.2006   54.2808   27.5073 C.ar      1 UNK         0.0000 
     25 C25         6.4787   54.4364   26.1507 C.ar      1 UNK         0.0000 
     26 C26         5.4350   54.4960   25.2305 C.ar      1 UNK         0.0000 
     27 C27         4.1139   54.3817   25.6633 C.ar      1 UNK         0.0000 
     28 F28         3.1168   54.4252   24.7484 F         1 UNK         0.0000 
     29 H29         1.5804   55.2560   30.4080 H         1 UNK         0.0000 
     30 H30         2.8855   55.8431   29.3856 H         1 UNK         0.0000 
     31 H31         1.2228   55.9571   28.8330 H         1 UNK         0.0000 
     32 H32         1.3473   51.9590   27.1097 H         1 UNK         0.0000 
     33 H33        -0.2262   50.4390   28.0692 H         1 UNK         0.0000 
     34 H34        -1.4370   49.4258   26.7081 H         1 UNK         0.0000 
     35 H35        -1.8448   47.9957   23.5544 H         1 UNK         0.0000 
     36 H36        -1.0367   47.8174   25.1115 H         1 UNK         0.0000 
     37 H37        -2.7620   48.0303   25.0525 H         1 UNK         0.0000 
     38 H38        -3.0749   50.2348   23.0101 H         1 UNK         0.0000 
     39 H39        -3.8470   50.0927   24.5823 H         1 UNK         0.0000 
     40 H40        -3.0297   51.5658   24.1522 H         1 UNK         0.0000 
     41 H41         0.7155   48.5145   24.0428 H         1 UNK         0.0000 
     42 H42         2.6721   49.2989   22.8376 H         1 UNK         0.0000 
     43 H43         0.8551   53.1397   22.3042 H         1 UNK         0.0000 
     44 H44        -1.1330   52.3786   23.4993 H         1 UNK         0.0000 
     45 H45         4.7078   54.0676   29.0027 H         1 UNK         0.0000 
     46 H46         7.0083   54.2428   28.2246 H         1 UNK         0.0000 
     47 H47         7.5002   54.4994   25.8078 H         1 UNK         0.0000 
     48 H48         5.6468   54.6137   24.1777 H         1 UNK         0.0000 
@<TRIPOS>BOND
     1    1    2 1    
     2    1   29 1    
     3    1   30 1    
     4    1   31 1    
     5    2    3 1    
     6    2    4 1    
     7    2   21 1    
     8    4    5 2    
     9    4    6 am   BACKBONE|DICT|INTERRES
    10    6    7 1    
    11    6   32 1    
    12    7    8 am   BACKBONE|DICT|INTERRES
    13    7   33 1    
    14    8    9 2    
    15    8   10 am   BACKBONE|DICT|INTERRES
    16   10   11 1    
    17   10   34 1    
    18   11   12 1    
    19   11   13 1    
    20   11   14 1    
    21   12   35 1    
    22   12   36 1    
    23   12   37 1    
    24   13   38 1    
    25   13   39 1    
    26   13   40 1    
    27   14   19 ar   
    28   14   15 ar   
    29   15   16 ar   
    30   15   41 1    
    31   16   17 ar   
    32   16   42 1    
    33   17   18 ar   
    34   17   20 1    
    35   18   19 ar   
    36   18   43 1    
    37   19   44 1    
    38   21   22 1    
    39   22   27 ar   
    40   22   23 ar   
    41   23   24 ar   
    42   23   45 1    
    43   24   25 ar   
    44   24   46 1    
    45   25   26 ar   
    46   25   47 1    
    47   26   27 ar   
    48   26   48 1    
    49   27   28 1    
@<TRIPOS>SUBSTRUCTURE
     1 UNK         1 GROUP             0       ****    0 ROOT    
