ZINC40330491_1585
                    3D
 Schrodinger Suite 2024-2.
 45 46  0  0  1  0            999 V2000
    0.2013   49.4102   25.4308 C   0  0  0  0  0  0
   -0.3421   50.4865   26.3845 C   0  0  0  0  0  0
   -0.7270   51.8179   25.7056 C   0  0  0  0  0  0
    0.4187   52.4848   25.0761 N   0  0  0  0  0  0
    0.6339   52.4806   23.7172 C   0  0  0  0  0  0
    1.7916   53.1512   23.4098 C   0  0  0  0  0  0
    2.2568   53.6426   24.6246 C   0  0  0  0  0  0
    1.5043   53.1153   25.6831 C   0  0  0  0  0  0
    1.6772   53.2752   27.1277 C   0  0  0  0  0  0
    0.6751   53.2939   27.8444 O   0  0  0  0  0  0
    2.9344   53.3547   27.6624 N   0  0  0  0  0  0
    4.2008   53.2401   26.9160 C   0  0  0  0  0  0
    4.9311   54.5749   27.0915 C   0  0  1  0  0  0
    4.3106   55.3998   26.7508 H   0  0  0  0  0  0
    5.3320   54.7243   28.5749 C   0  0  0  0  0  0
    4.0772   54.6025   29.4687 C   0  0  0  0  0  0
    3.1023   53.4370   29.1376 C   0  0  2  0  0  0
    2.1524   53.7196   29.5989 H   0  0  0  0  0  0
    3.4913   52.1013   29.8023 C   0  0  0  0  0  0
    6.1781   54.5575   26.2025 C   0  0  0  0  0  0
    7.1044   53.8087   26.4698 O   0  0  0  0  0  0
    6.2234   55.3572   25.1372 N   0  0  0  0  0  0
    2.3470   53.3069   22.1795 N   0  0  0  0  0  0
    0.4475   48.4976   25.9781 H   0  0  0  0  0  0
    1.1058   49.7398   24.9184 H   0  0  0  0  0  0
   -0.5355   49.1468   24.6699 H   0  0  0  0  0  0
   -1.2301   50.0962   26.8827 H   0  0  0  0  0  0
    0.3792   50.6578   27.1835 H   0  0  0  0  0  0
   -1.4813   51.6393   24.9378 H   0  0  0  0  0  0
   -1.1931   52.5070   26.4088 H   0  0  0  0  0  0
   -0.0581   51.9690   23.0650 H   0  0  0  0  0  0
    3.1212   54.2809   24.7126 H   0  0  0  0  0  0
    4.7983   52.4527   27.3708 H   0  0  0  0  0  0
    4.0992   52.8970   25.8934 H   0  0  0  0  0  0
    5.8030   55.6899   28.7733 H   0  0  0  0  0  0
    5.9879   53.9078   28.8817 H   0  0  0  0  0  0
    3.5213   55.5380   29.3901 H   0  0  0  0  0  0
    4.3899   54.5024   30.5058 H   0  0  0  0  0  0
    3.5556   52.2107   30.8854 H   0  0  0  0  0  0
    2.7529   51.3273   29.5874 H   0  0  0  0  0  0
    4.4706   51.7536   29.4724 H   0  0  0  0  0  0
    5.4505   55.9611   24.9053 H   0  0  0  0  0  0
    7.0302   55.3164   24.5307 H   0  0  0  0  0  0
    3.2501   53.7389   22.0494 H   0  0  0  0  0  0
    1.8280   53.1108   21.3349 H   0  0  0  0  0  0
  1  2  1  0  0  0
  1 24  1  0  0  0
  1 25  1  0  0  0
  1 26  1  0  0  0
  2  3  1  0  0  0
  2 27  1  0  0  0
  2 28  1  0  0  0
  3  4  1  0  0  0
  3 29  1  0  0  0
  3 30  1  0  0  0
  4  8  1  0  0  0
  4  5  1  0  0  0
  5  6  2  0  0  0
  5 31  1  0  0  0
  6  7  1  0  0  0
  6 23  1  0  0  0
  7  8  2  0  0  0
  7 32  1  0  0  0
  8  9  1  0  0  0
  9 10  2  0  0  0
  9 11  1  0  0  0
 11 17  1  0  0  0
 11 12  1  0  0  0
 12 13  1  0  0  0
 12 33  1  0  0  0
 12 34  1  0  0  0
 13 14  1  0  0  0
 13 15  1  0  0  0
 13 20  1  0  0  0
 15 16  1  0  0  0
 15 35  1  0  0  0
 15 36  1  0  0  0
 16 17  1  0  0  0
 16 37  1  0  0  0
 16 38  1  0  0  0
 17 18  1  0  0  0
 17 19  1  0  0  0
 19 39  1  0  0  0
 19 40  1  0  0  0
 19 41  1  0  0  0
 20 21  2  0  0  0
 20 22  1  0  0  0
 22 42  1  0  0  0
 22 43  1  0  0  0
 23 44  1  0  0  0
 23 45  1  0  0  0
M  END
> <i_i_glide_confnum>
11

> <i_i_glide_lignum>
1586

> <i_i_glide_posenum>
167

> <i_i_glide_rotatable_bonds>
5

> <i_m_Source_File_Index>
5733

> <b_m_subgroup_collapsed>
0

> <r_i_docking_score>
-5.48494

> <r_i_glide_ecoul>
-1.8475

> <r_i_glide_eff_state_penalty>
0

> <r_i_glide_einternal>
2.6851

> <r_i_glide_emodel>
-45.6665

> <r_i_glide_energy>
-34.6566

> <r_i_glide_erotb>
0.64068

> <r_i_glide_esite>
0

> <r_i_glide_evdw>
-32.8091

> <r_i_glide_gscore>
-5.48494

> <r_i_glide_hbond>
0

> <r_i_glide_ligand_efficiency>
-0.261188

> <r_i_glide_ligand_efficiency_ln>
-1.35614

> <r_i_glide_ligand_efficiency_sa>
-0.720597

> <r_i_glide_lipo>
-1.72348

> <r_i_glide_metal>
0

> <r_i_glide_rewards>
-2.48457

> <s_i_glide_gridfile>
wee1_glide-grid

> <s_m_Source_File>
wee1_decoys_glide_SP.sdf

> <s_m_Source_Path>
/Users/zhangxujun/Desktop

> <s_m_entry_id>
6008

> <s_m_entry_name>
wee1_decoys_glide_SP.5733

> <s_m_subgroup_title>
wee1_decoys_glide_SP

> <s_m_subgroupid>
wee1_decoys_glide_SP


$$$$
