@<TRIPOS>MOLECULE
ZINC23449540_3434
55   59    1
SMALL
USER_CHARGES


@<TRIPOS>ATOM
      1 C1          1.4251   53.6784   22.9587 C.3       1 UNK         0.0000 
      2 C2          2.9224   54.0334   23.0829 C.3       1 UNK         0.0000 
      3 H3          3.0437   55.0223   22.6411 H         1 UNK         0.0000 
      4 C4          3.4086   54.1641   24.5494 C.2       1 UNK         0.0000 
      5 O5          4.3737   54.8859   24.7927 O.2       1 UNK         0.0000 
      6 N6          2.7306   53.5077   25.5174 N.am      1 UNK         0.0000 
      7 C7          2.9646   53.5363   26.9727 C.3       1 UNK         0.0000 
      8 C8          2.0814   52.4495   27.6703 C.3       1 UNK         0.0000 
      9 C9          2.2564   52.4467   29.2140 C.3       1 UNK         0.0000 
     10 C10         1.8557   53.8336   29.7735 C.3       1 UNK         0.0000 
     11 C11         2.7638   54.9192   29.1400 C.3       1 UNK         0.0000 
     12 C12         2.5423   54.8957   27.6061 C.3       1 UNK         0.0000 
     13 C13         4.2565   54.6142   29.4418 C.3       1 UNK         0.0000 
     14 C14         4.6439   53.2305   28.9004 C.3       1 UNK         0.0000 
     15 C15         3.7366   52.1679   29.5710 C.3       1 UNK         0.0000 
     16 C16         4.4584   53.2961   27.3703 C.3       1 UNK         0.0000 
     17 S17         3.9436   52.8965   22.0811 S.3       1 UNK         0.0000 
     18 C18         5.1370   53.9901   21.3614 C.ar      1 UNK         0.0000 
     19 N19         5.8308   54.8861   22.0225 N.2       1 UNK         0.0000 
     20 N20         6.6426   55.5528   21.1128 N.2       1 UNK         0.0000 
     21 C21         6.4085   55.0415   19.9284 C.ar      1 UNK         0.0000 
     22 N22         5.4502   54.0477   20.0194 N.pl3     1 UNK         0.0000 
     23 N23         4.8940   53.2967   18.9881 N.3       1 UNK         0.0000 
     24 C24         7.1204   55.4674   18.6787 C.ar      1 UNK         0.0000 
     25 C25         7.6313   54.4686   17.8387 C.ar      1 UNK         0.0000 
     26 C26         8.3322   54.7950   16.6773 C.ar      1 UNK         0.0000 
     27 C27         8.5283   56.1317   16.3364 C.ar      1 UNK         0.0000 
     28 C28         8.0233   57.1380   17.1599 C.ar      1 UNK         0.0000 
     29 C29         7.3244   56.8161   18.3255 C.ar      1 UNK         0.0000 
     30 Cl30        6.7043   58.1200   19.2774 Cl        1 UNK         0.0000 
     31 Cl31        9.3913   56.5398   14.8988 Cl        1 UNK         0.0000 
     32 H32         0.7980   54.3793   23.5118 H         1 UNK         0.0000 
     33 H33         1.1049   53.6995   21.9167 H         1 UNK         0.0000 
     34 H34         1.2165   52.6744   23.3317 H         1 UNK         0.0000 
     35 H35         1.9794   52.9041   25.2221 H         1 UNK         0.0000 
     36 H36         2.3032   51.4602   27.2827 H         1 UNK         0.0000 
     37 H37         1.0286   52.6158   27.4322 H         1 UNK         0.0000 
     38 H38         1.6154   51.6803   29.6550 H         1 UNK         0.0000 
     39 H39         0.8058   54.0395   29.5527 H         1 UNK         0.0000 
     40 H40         1.9257   53.8395   30.8608 H         1 UNK         0.0000 
     41 H41         2.4961   55.9006   29.5354 H         1 UNK         0.0000 
     42 H42         1.4856   55.0712   27.4049 H         1 UNK         0.0000 
     43 H43         3.1043   55.6963   27.1318 H         1 UNK         0.0000 
     44 H44         4.4487   54.6375   30.4989 H         1 UNK         0.0000 
     45 H45         4.9187   55.3565   29.0089 H         1 UNK         0.0000 
     46 H46         5.6893   53.0238   29.1228 H         1 UNK         0.0000 
     47 H47         4.0257   51.1649   29.2814 H         1 UNK         0.0000 
     48 H48         3.8700   52.1972   30.6549 H         1 UNK         0.0000 
     49 H49         5.0821   54.1107   26.9998 H         1 UNK         0.0000 
     50 H50         4.8796   52.4329   26.8820 H         1 UNK         0.0000 
     51 H51         5.1288   52.3072   19.0013 H         1 UNK         0.0000 
     52 H52         3.9084   53.4751   18.8643 H         1 UNK         0.0000 
     53 H53         7.4886   53.4269   18.0813 H         1 UNK         0.0000 
     54 H54         8.7208   54.0089   16.0446 H         1 UNK         0.0000 
     55 H55         8.1684   58.1749   16.8891 H         1 UNK         0.0000 
@<TRIPOS>BOND
     1    1    2 1    
     2    1   32 1    
     3    1   33 1    
     4    1   34 1    
     5    2    3 1    
     6    2    4 1    
     7    2   17 1    
     8    4    5 2    
     9    4    6 am   BACKBONE|DICT|INTERRES
    10    6    7 1    
    11    6   35 1    
    12    7   12 1    
    13    7   16 1    
    14    7    8 1    
    15    8    9 1    
    16    8   36 1    
    17    8   37 1    
    18    9   15 1    
    19    9   10 1    
    20    9   38 1    
    21   10   11 1    
    22   10   39 1    
    23   10   40 1    
    24   11   12 1    
    25   11   13 1    
    26   11   41 1    
    27   12   42 1    
    28   12   43 1    
    29   13   14 1    
    30   13   44 1    
    31   13   45 1    
    32   14   15 1    
    33   14   16 1    
    34   14   46 1    
    35   15   47 1    
    36   15   48 1    
    37   16   49 1    
    38   16   50 1    
    39   17   18 1    
    40   18   22 ar   
    41   18   19 ar   
    42   19   20 ar   
    43   20   21 ar   
    44   21   22 ar   
    45   21   24 1    
    46   22   23 1    
    47   23   51 1    
    48   23   52 1    
    49   24   29 ar   
    50   24   25 ar   
    51   25   26 ar   
    52   25   53 1    
    53   26   27 ar   
    54   26   54 1    
    55   27   28 ar   
    56   27   31 1    
    57   28   29 ar   
    58   28   55 1    
    59   29   30 1    
@<TRIPOS>SUBSTRUCTURE
     1 UNK         1 GROUP             0       ****    0 ROOT    
