@<TRIPOS>MOLECULE
ZINC13319895_3225
69   72    1
SMALL
USER_CHARGES


@<TRIPOS>ATOM
      1 C1         -5.8686   44.1596   25.4152 C.3       1 UNK         0.0000 
      2 C2         -4.8601   45.2932   25.4272 C.ar      1 UNK         0.0000 
      3 C3         -4.7953   46.2158   24.3798 C.ar      1 UNK         0.0000 
      4 C4         -3.8445   47.2393   24.4200 C.ar      1 UNK         0.0000 
      5 C5         -2.9669   47.3149   25.5163 C.ar      1 UNK         0.0000 
      6 N6         -3.0208   46.4150   26.5305 N.ar      1 UNK         0.0000 
      7 C7         -3.9522   45.4313   26.4814 C.ar      1 UNK         0.0000 
      8 N8         -2.0104   48.3327   25.6811 N.am      1 UNK         0.0000 
      9 C9         -1.4050   49.0709   24.7206 C.2       1 UNK         0.0000 
     10 O10        -1.5502   48.8295   23.5211 O.2       1 UNK         0.0000 
     11 C11        -0.5944   50.2015   25.1928 C.2       1 UNK         0.0000 
     12 C12         0.3877   50.7509   24.4225 C.2       1 UNK         0.0000 
     13 N13         1.1111   51.8275   24.8777 N.pl3     1 UNK         0.0000 
     14 C14         0.9717   52.4223   26.1079 C.2       1 UNK         0.0000 
     15 C15         0.0416   51.9600   26.9832 C.2       1 UNK         0.0000 
     16 C16        -0.9590   50.8449   26.5720 C.3       1 UNK         0.0000 
     17 H17        -0.8487   50.0969   27.3514 H         1 UNK         0.0000 
     18 C18        -2.4153   51.3229   26.6590 C.ar      1 UNK         0.0000 
     19 C19        -3.2845   50.8380   27.6355 C.ar      1 UNK         0.0000 
     20 C20        -4.6086   51.2948   27.7156 C.ar      1 UNK         0.0000 
     21 C21        -5.0515   52.2539   26.7901 C.ar      1 UNK         0.0000 
     22 C22        -4.1835   52.7623   25.8104 C.ar      1 UNK         0.0000 
     23 C23        -2.8675   52.2830   25.7586 C.ar      1 UNK         0.0000 
     24 O24        -4.6659   53.7305   24.9490 O.3       1 UNK         0.0000 
     25 C25        -3.8751   54.1070   23.8260 C.3       1 UNK         0.0000 
     26 O26        -6.3647   52.6714   26.8118 O.3       1 UNK         0.0000 
     27 C27        -6.6081   53.8408   27.5776 C.3       1 UNK         0.0000 
     28 O28        -5.5096   50.8570   28.6705 O.3       1 UNK         0.0000 
     29 C29        -5.0819   49.9042   29.6423 C.3       1 UNK         0.0000 
     30 C30        -0.0502   52.5136   28.3539 C.2       1 UNK         0.0000 
     31 O31        -0.8372   52.0965   29.2002 O.2       1 UNK         0.0000 
     32 C32         0.8962   53.6745   28.6931 C.3       1 UNK         0.0000 
     33 C33         2.2749   53.5755   27.9895 C.3       1 UNK         0.0000 
     34 C34         2.0232   53.4810   26.4526 C.3       1 UNK         0.0000 
     35 C35         3.0352   54.8850   28.2774 C.3       1 UNK         0.0000 
     36 C36         3.0436   52.3311   28.5052 C.3       1 UNK         0.0000 
     37 C37         0.9123   50.2490   23.0779 C.3       1 UNK         0.0000 
     38 H38        -6.7828   44.4604   25.9280 H         1 UNK         0.0000 
     39 H39        -6.1198   43.8639   24.3947 H         1 UNK         0.0000 
     40 H40        -5.4719   43.2711   25.9103 H         1 UNK         0.0000 
     41 H41        -5.4788   46.1530   23.5455 H         1 UNK         0.0000 
     42 H42        -3.8242   47.9673   23.6242 H         1 UNK         0.0000 
     43 H43        -3.9533   44.7350   27.3056 H         1 UNK         0.0000 
     44 H44        -1.6958   48.4509   26.6452 H         1 UNK         0.0000 
     45 H45         1.7502   52.2599   24.2284 H         1 UNK         0.0000 
     46 H46        -2.9039   50.0994   28.3299 H         1 UNK         0.0000 
     47 H47        -2.1682   52.6463   25.0232 H         1 UNK         0.0000 
     48 H48        -4.3956   54.8930   23.2818 H         1 UNK         0.0000 
     49 H49        -2.8987   54.4964   24.0811 H         1 UNK         0.0000 
     50 H50        -3.6953   53.2540   23.1742 H         1 UNK         0.0000 
     51 H51        -7.6340   54.1681   27.4143 H         1 UNK         0.0000 
     52 H52        -6.4955   53.6435   28.6441 H         1 UNK         0.0000 
     53 H53        -5.9502   54.6647   27.2938 H         1 UNK         0.0000 
     54 H54        -5.9078   49.6780   30.3166 H         1 UNK         0.0000 
     55 H55        -4.7727   48.9666   29.1770 H         1 UNK         0.0000 
     56 H56        -4.2591   50.2877   30.2496 H         1 UNK         0.0000 
     57 H57         0.3840   54.5737   28.3470 H         1 UNK         0.0000 
     58 H58         0.9816   53.7661   29.7765 H         1 UNK         0.0000 
     59 H59         1.6764   54.4133   26.0091 H         1 UNK         0.0000 
     60 H60         2.9856   53.2325   26.0003 H         1 UNK         0.0000 
     61 H61         3.9944   54.9098   27.7579 H         1 UNK         0.0000 
     62 H62         2.4634   55.7596   27.9661 H         1 UNK         0.0000 
     63 H63         3.2425   54.9967   29.3417 H         1 UNK         0.0000 
     64 H64         4.0474   52.2931   28.0801 H         1 UNK         0.0000 
     65 H65         3.1547   52.3651   29.5909 H         1 UNK         0.0000 
     66 H66         2.5457   51.3912   28.2582 H         1 UNK         0.0000 
     67 H67         0.3380   50.6937   22.2617 H         1 UNK         0.0000 
     68 H68         1.9665   50.4902   22.9280 H         1 UNK         0.0000 
     69 H69         0.8435   49.1618   22.9983 H         1 UNK         0.0000 
@<TRIPOS>BOND
     1    1    2 1    
     2    1   38 1    
     3    1   39 1    
     4    1   40 1    
     5    2    7 ar   
     6    2    3 ar   
     7    3    4 ar   
     8    3   41 1    
     9    4    5 ar   
    10    4   42 1    
    11    5    6 ar   
    12    5    8 1    
    13    6    7 ar   
    14    7   43 1    
    15    8    9 am   BACKBONE|DICT|INTERRES
    16    8   44 1    
    17    9   10 2    
    18    9   11 1    
    19   11   16 1    
    20   11   12 2    
    21   12   13 1    
    22   12   37 1    
    23   13   14 1    
    24   13   45 1    
    25   14   34 1    
    26   14   15 2    
    27   15   16 1    
    28   15   30 1    
    29   16   17 1    
    30   16   18 1    
    31   18   23 ar   
    32   18   19 ar   
    33   19   20 ar   
    34   19   46 1    
    35   20   21 ar   
    36   20   28 1    
    37   21   22 ar   
    38   21   26 1    
    39   22   23 ar   
    40   22   24 1    
    41   23   47 1    
    42   24   25 1    
    43   25   48 1    
    44   25   49 1    
    45   25   50 1    
    46   26   27 1    
    47   27   51 1    
    48   27   52 1    
    49   27   53 1    
    50   28   29 1    
    51   29   54 1    
    52   29   55 1    
    53   29   56 1    
    54   30   31 2    
    55   30   32 1    
    56   32   33 1    
    57   32   57 1    
    58   32   58 1    
    59   33   34 1    
    60   33   35 1    
    61   33   36 1    
    62   34   59 1    
    63   34   60 1    
    64   35   61 1    
    65   35   62 1    
    66   35   63 1    
    67   36   64 1    
    68   36   65 1    
    69   36   66 1    
    70   37   67 1    
    71   37   68 1    
    72   37   69 1    
@<TRIPOS>SUBSTRUCTURE
     1 UNK         1 GROUP             0       ****    0 ROOT    
