@<TRIPOS>MOLECULE
ZINC62427326_1661
31   33    1
SMALL
USER_CHARGES


@<TRIPOS>ATOM
      1 C1          1.9981   52.3717   27.6950 C.ar      1 UNK         0.0000 
      2 C2          2.8673   53.1298   28.4837 C.ar      1 UNK         0.0000 
      3 N3          3.2607   54.1747   27.7686 N.2       1 UNK         0.0000 
      4 N4          2.7051   54.0967   26.5056 N.2       1 UNK         0.0000 
      5 N5          1.9315   53.0064   26.4768 N.pl3     1 UNK         0.0000 
      6 C6          1.2860   52.6321   25.3023 C.2       1 UNK         0.0000 
      7 C7          0.0813   51.9127   25.1599 C.2       1 UNK         0.0000 
      8 C8         -0.2273   51.6462   23.8024 C.2       1 UNK         0.0000 
      9 C9          0.7183   52.1878   22.9212 C.2       1 UNK         0.0000 
     10 S10         1.9617   53.0517   23.7533 S.3       1 UNK         0.0000 
     11 C11         0.6650   52.0976   21.4016 C.3       1 UNK         0.0000 
     12 C12        -0.3872   51.0510   20.9815 C.3       1 UNK         0.0000 
     13 C13        -1.6893   51.1847   21.7883 C.3       1 UNK         0.0000 
     14 C14        -1.4656   50.9007   23.2900 C.3       1 UNK         0.0000 
     15 C15        -0.6998   51.3886   26.2443 C.2       1 UNK         0.0000 
     16 O16        -1.4881   52.0804   26.8821 O.2       1 UNK         0.0000 
     17 N17        -0.4706   50.0967   26.4816 N.am      1 UNK         0.0000 
     18 C18         3.3205   52.8443   29.8502 C.2       1 UNK         0.0000 
     19 O19         3.8894   53.7639   30.4809 O.co2     1 UNK         0.0000 
     20 O20         3.1042   51.6968   30.2990 O.co2     1 UNK         0.0000 
     21 H21         1.4853   51.4438   27.8969 H         1 UNK         0.0000 
     22 H22         0.3952   53.0663   20.9841 H         1 UNK         0.0000 
     23 H23         1.6384   51.8357   20.9853 H         1 UNK         0.0000 
     24 H24        -0.5910   51.1526   19.9144 H         1 UNK         0.0000 
     25 H25         0.0191   50.0474   21.1136 H         1 UNK         0.0000 
     26 H26        -2.0939   52.1899   21.6623 H         1 UNK         0.0000 
     27 H27        -2.4453   50.5040   21.3952 H         1 UNK         0.0000 
     28 H28        -1.3359   49.8286   23.4455 H         1 UNK         0.0000 
     29 H29        -2.3589   51.1806   23.8524 H         1 UNK         0.0000 
     30 H30         0.1912   49.5848   25.9189 H         1 UNK         0.0000 
     31 H31        -0.9456   49.5963   27.2366 H         1 UNK         0.0000 
@<TRIPOS>BOND
     1    1    5 ar   
     2    1    2 ar   
     3    1   21 1    
     4    2    3 ar   
     5    2   18 1    
     6    3    4 ar   
     7    4    5 ar   
     8    5    6 1    
     9    6   10 1    
    10    6    7 2    
    11    7    8 1    
    12    7   15 1    
    13    8   14 1    
    14    8    9 2    
    15    9   10 1    
    16    9   11 1    
    17   11   12 1    
    18   11   22 1    
    19   11   23 1    
    20   12   13 1    
    21   12   24 1    
    22   12   25 1    
    23   13   14 1    
    24   13   26 1    
    25   13   27 1    
    26   14   28 1    
    27   14   29 1    
    28   15   16 2    
    29   15   17 am   BACKBONE|DICT|INTERRES
    30   17   30 1    
    31   17   31 1    
    32   18   19 2    
    33   18   20 1    
@<TRIPOS>SUBSTRUCTURE
     1 UNK         1 GROUP             0       ****    0 ROOT    
