@<TRIPOS>MOLECULE
ZINC49504644_3185
68   71    1
SMALL
USER_CHARGES


@<TRIPOS>ATOM
      1 C1          0.4602   45.4190   17.6186 C.3       1 UNK         0.0000 
      2 N2          1.0947   46.7376   17.6328 N.pl3     1 UNK         0.0000 
      3 C3          2.3134   46.8978   16.8332 C.3       1 UNK         0.0000 
      4 C4          0.8260   47.6557   18.6858 C.ar      1 UNK         0.0000 
      5 C5          1.5464   48.8523   18.8041 C.ar      1 UNK         0.0000 
      6 C6          1.3317   49.7197   19.8692 C.ar      1 UNK         0.0000 
      7 C7          0.4090   49.4104   20.8803 C.ar      1 UNK         0.0000 
      8 C8         -0.3810   48.2668   20.7112 C.ar      1 UNK         0.0000 
      9 C9         -0.1689   47.3996   19.6410 C.ar      1 UNK         0.0000 
     10 C10         0.2369   50.2776   22.1592 C.3       1 UNK         0.0000 
     11 H11        -0.7693   50.6844   22.0419 H         1 UNK         0.0000 
     12 C12         0.2394   49.3986   23.4661 C.3       1 UNK         0.0000 
     13 N13        -0.0386   50.0784   24.7363 N.am      1 UNK         0.0000 
     14 C14        -1.2194   50.6674   25.0423 C.2       1 UNK         0.0000 
     15 O15        -2.1904   50.6448   24.2808 O.2       1 UNK         0.0000 
     16 C16        -1.2547   51.4474   26.3186 C.2       1 UNK         0.0000 
     17 O17        -2.0260   52.4007   26.4522 O.2       1 UNK         0.0000 
     18 N18        -0.4112   51.0458   27.2956 N.am      1 UNK         0.0000 
     19 C19        -0.2615   51.7006   28.6008 C.3       1 UNK         0.0000 
     20 C20         1.1763   52.0888   28.8990 C.2       1 UNK         0.0000 
     21 C21         2.1381   52.4951   27.9567 C.2       1 UNK         0.0000 
     22 C22         3.3897   52.7483   28.5019 C.2       1 UNK         0.0000 
     23 S23         3.4165   52.4979   30.2087 S.3       1 UNK         0.0000 
     24 C24         1.7320   52.0976   30.1764 C.2       1 UNK         0.0000 
     25 N25         1.1517   51.4472   22.1805 N.3       1 UNK         0.0000 
     26 C26         0.7300   52.5885   23.0112 C.3       1 UNK         0.0000 
     27 C27         1.7072   53.8040   22.9876 C.3       1 UNK         0.0000 
     28 N28         3.1496   53.4865   22.9277 N.pl3     1 UNK         0.0000 
     29 C29         3.3948   52.3429   22.0382 C.3       1 UNK         0.0000 
     30 C30         2.5497   51.1291   22.4668 C.3       1 UNK         0.0000 
     31 C31         4.1271   54.0114   23.7694 C.ar      1 UNK         0.0000 
     32 C32         5.4634   54.0726   23.3454 C.ar      1 UNK         0.0000 
     33 C33         6.4660   54.5087   24.2075 C.ar      1 UNK         0.0000 
     34 C34         6.1345   54.9006   25.4992 C.ar      1 UNK         0.0000 
     35 C35         4.8120   54.8848   25.9268 C.ar      1 UNK         0.0000 
     36 C36         3.8127   54.4396   25.0666 C.ar      1 UNK         0.0000 
     37 F37         7.1040   55.2952   26.3494 F         1 UNK         0.0000 
     38 H38         0.7666   44.8452   18.4939 H         1 UNK         0.0000 
     39 H39        -0.6272   45.5058   17.6428 H         1 UNK         0.0000 
     40 H40         0.7287   44.8434   16.7304 H         1 UNK         0.0000 
     41 H41         2.3017   47.8433   16.2896 H         1 UNK         0.0000 
     42 H42         3.1943   46.9053   17.4768 H         1 UNK         0.0000 
     43 H43         2.4475   46.0962   16.1067 H         1 UNK         0.0000 
     44 H44         2.3040   49.1264   18.0843 H         1 UNK         0.0000 
     45 H45         1.9252   50.6200   19.9031 H         1 UNK         0.0000 
     46 H46        -1.1520   48.0176   21.4237 H         1 UNK         0.0000 
     47 H47        -0.7833   46.5149   19.5860 H         1 UNK         0.0000 
     48 H48         1.2007   48.8947   23.5612 H         1 UNK         0.0000 
     49 H49        -0.5045   48.6048   23.3968 H         1 UNK         0.0000 
     50 H50         0.7314   50.1525   25.3823 H         1 UNK         0.0000 
     51 H51         0.1189   50.1977   27.1670 H         1 UNK         0.0000 
     52 H52        -0.6157   50.9978   29.3573 H         1 UNK         0.0000 
     53 H53        -0.8977   52.5806   28.6955 H         1 UNK         0.0000 
     54 H54         1.9280   52.5776   26.9000 H         1 UNK         0.0000 
     55 H55         4.2935   53.0333   27.9838 H         1 UNK         0.0000 
     56 H56         1.2261   51.8608   31.1025 H         1 UNK         0.0000 
     57 H57        -0.2875   52.8968   22.7688 H         1 UNK         0.0000 
     58 H58         0.7599   52.2757   24.0511 H         1 UNK         0.0000 
     59 H59         1.4646   54.4936   23.7950 H         1 UNK         0.0000 
     60 H60         1.5185   54.3713   22.0815 H         1 UNK         0.0000 
     61 H61         4.4405   52.0406   22.0807 H         1 UNK         0.0000 
     62 H62         3.2209   52.6207   20.9970 H         1 UNK         0.0000 
     63 H63         2.7034   50.8680   23.5137 H         1 UNK         0.0000 
     64 H64         2.8737   50.2662   21.8855 H         1 UNK         0.0000 
     65 H65         5.7361   53.7728   22.3447 H         1 UNK         0.0000 
     66 H66         7.4967   54.5334   23.8808 H         1 UNK         0.0000 
     67 H67         4.5664   55.2020   26.9294 H         1 UNK         0.0000 
     68 H68         2.8009   54.3980   25.4363 H         1 UNK         0.0000 
@<TRIPOS>BOND
     1    1    2 1    
     2    1   38 1    
     3    1   39 1    
     4    1   40 1    
     5    2    3 1    
     6    2    4 1    
     7    3   41 1    
     8    3   42 1    
     9    3   43 1    
    10    4    9 ar   
    11    4    5 ar   
    12    5    6 ar   
    13    5   44 1    
    14    6    7 ar   
    15    6   45 1    
    16    7    8 ar   
    17    7   10 1    
    18    8    9 ar   
    19    8   46 1    
    20    9   47 1    
    21   10   11 1    
    22   10   12 1    
    23   10   25 1    
    24   12   13 1    
    25   12   48 1    
    26   12   49 1    
    27   13   14 am   BACKBONE|DICT|INTERRES
    28   13   50 1    
    29   14   15 2    
    30   14   16 1    
    31   16   17 2    
    32   16   18 am   BACKBONE|DICT|INTERRES
    33   18   19 1    
    34   18   51 1    
    35   19   20 1    
    36   19   52 1    
    37   19   53 1    
    38   20   24 2    
    39   20   21 1    
    40   21   22 2    
    41   21   54 1    
    42   22   23 1    
    43   22   55 1    
    44   23   24 1    
    45   24   56 1    
    46   25   30 1    
    47   25   26 1    
    48   26   27 1    
    49   26   57 1    
    50   26   58 1    
    51   27   28 1    
    52   27   59 1    
    53   27   60 1    
    54   28   29 1    
    55   28   31 1    
    56   29   30 1    
    57   29   61 1    
    58   29   62 1    
    59   30   63 1    
    60   30   64 1    
    61   31   36 ar   
    62   31   32 ar   
    63   32   33 ar   
    64   32   65 1    
    65   33   34 ar   
    66   33   66 1    
    67   34   35 ar   
    68   34   37 1    
    69   35   36 ar   
    70   35   67 1    
    71   36   68 1    
@<TRIPOS>SUBSTRUCTURE
     1 UNK         1 GROUP             0       ****    0 ROOT    
