ZINC09937247_3605
                    3D
 Schrodinger Suite 2024-2.
 60 64  0  0  1  0            999 V2000
    5.7769   54.3140   16.0513 C   0  0  0  0  0  0
    5.6701   54.3038   17.5645 C   0  0  0  0  0  0
    4.6111   53.6398   18.1866 C   0  0  0  0  0  0
    4.5273   53.6037   19.5758 C   0  0  0  0  0  0
    5.5034   54.2281   20.3674 C   0  0  0  0  0  0
    6.5742   54.8969   19.7405 C   0  0  0  0  0  0
    6.6435   54.9295   18.3443 C   0  0  0  0  0  0
    7.6786   55.5822   20.5368 C   0  0  0  0  0  0
    5.4478   54.1580   21.7750 N   0  0  0  0  0  0
    4.3472   54.2947   22.5486 C   0  0  0  0  0  0
    3.2295   54.4966   22.0821 O   0  0  0  0  0  0
    4.5325   54.2300   24.0607 C   0  0  0  0  0  0
    5.6999   54.7168   24.7021 C   0  0  0  0  0  0
    5.9248   54.6402   26.0323 N   0  0  0  0  0  0
    4.9731   54.0938   26.7699 C   0  0  0  0  0  0
    3.7230   53.6165   26.2867 C   0  0  0  0  0  0
    3.5037   53.6973   24.8861 C   0  0  0  0  0  0
    2.2081   53.1536   24.3559 C   0  0  0  0  0  0
    0.9679   53.7069   24.0815 C   0  0  0  0  0  0
    0.1293   52.6749   23.6614 C   0  0  0  0  0  0
    0.9056   51.5324   23.6538 C   0  0  0  0  0  0
    2.1616   51.8300   24.0663 O   0  0  0  0  0  0
    2.9419   53.0725   27.3694 C   0  0  0  0  0  0
    3.6131   53.1162   28.5901 C   0  0  0  0  0  0
    5.1983   53.8391   28.4817 S   0  0  0  0  0  0
    3.2173   52.5704   29.8648 C   0  0  0  0  0  0
    3.9041   51.7051   30.4098 O   0  0  0  0  0  0
    2.0631   53.0390   30.3925 N   0  0  0  0  0  0
    1.5195   52.4929   31.6387 C   0  0  0  0  0  0
    0.1910   53.2191   31.7712 C   0  0  0  0  0  0
    0.3682   54.5245   31.0307 C   0  0  0  0  0  0
    1.3099   54.1980   29.8860 C   0  0  0  0  0  0
    1.7037   52.4980   27.2096 N   0  0  0  0  0  0
    6.8608   55.4026   23.9926 C   0  0  0  0  0  0
    6.8217   54.3127   15.7363 H   0  0  0  0  0  0
    5.3214   53.4198   15.6218 H   0  0  0  0  0  0
    5.2844   55.1953   15.6373 H   0  0  0  0  0  0
    3.8591   53.1352   17.5963 H   0  0  0  0  0  0
    3.7041   53.0708   20.0306 H   0  0  0  0  0  0
    7.4658   55.4381   17.8601 H   0  0  0  0  0  0
    8.4913   55.9329   19.9026 H   0  0  0  0  0  0
    7.2775   56.4339   21.0821 H   0  0  0  0  0  0
    8.1150   54.8970   21.2610 H   0  0  0  0  0  0
    6.3352   54.1032   22.2478 H   0  0  0  0  0  0
    0.7051   54.7444   24.1987 H   0  0  0  0  0  0
   -0.9122   52.7527   23.3845 H   0  0  0  0  0  0
    0.7130   50.4993   23.4068 H   0  0  0  0  0  0
    2.1605   52.7302   32.4816 H   0  0  0  0  0  0
    1.3811   51.4156   31.6003 H   0  0  0  0  0  0
   -0.0958   53.3451   32.8144 H   0  0  0  0  0  0
   -0.5850   52.6290   31.2817 H   0  0  0  0  0  0
   -0.5694   54.8964   30.6415 H   0  0  0  0  0  0
    0.7816   55.2898   31.6862 H   0  0  0  0  0  0
    0.7025   53.9311   29.0202 H   0  0  0  0  0  0
    1.9460   55.0605   29.6780 H   0  0  0  0  0  0
    1.2686   52.4268   26.2976 H   0  0  0  0  0  0
    1.2189   52.0472   27.9736 H   0  0  0  0  0  0
    6.5171   56.0968   23.2308 H   0  0  0  0  0  0
    7.4820   55.9915   24.6701 H   0  0  0  0  0  0
    7.5043   54.6562   23.5329 H   0  0  0  0  0  0
  1  2  1  0  0  0
  1 35  1  0  0  0
  1 36  1  0  0  0
  1 37  1  0  0  0
  2  7  2  0  0  0
  2  3  1  0  0  0
  3  4  2  0  0  0
  3 38  1  0  0  0
  4  5  1  0  0  0
  4 39  1  0  0  0
  5  6  2  0  0  0
  5  9  1  0  0  0
  6  7  1  0  0  0
  6  8  1  0  0  0
  7 40  1  0  0  0
  8 41  1  0  0  0
  8 42  1  0  0  0
  8 43  1  0  0  0
  9 10  1  0  0  0
  9 44  1  0  0  0
 10 11  2  0  0  0
 10 12  1  0  0  0
 12 17  2  0  0  0
 12 13  1  0  0  0
 13 14  2  0  0  0
 13 34  1  0  0  0
 14 15  1  0  0  0
 15 25  1  0  0  0
 15 16  2  0  0  0
 16 17  1  0  0  0
 16 23  1  0  0  0
 17 18  1  0  0  0
 18 22  1  0  0  0
 18 19  2  0  0  0
 19 20  1  0  0  0
 19 45  1  0  0  0
 20 21  2  0  0  0
 20 46  1  0  0  0
 21 22  1  0  0  0
 21 47  1  0  0  0
 23 24  2  0  0  0
 23 33  1  0  0  0
 24 25  1  0  0  0
 24 26  1  0  0  0
 26 27  2  0  0  0
 26 28  1  0  0  0
 28 32  1  0  0  0
 28 29  1  0  0  0
 29 30  1  0  0  0
 29 48  1  0  0  0
 29 49  1  0  0  0
 30 31  1  0  0  0
 30 50  1  0  0  0
 30 51  1  0  0  0
 31 32  1  0  0  0
 31 52  1  0  0  0
 31 53  1  0  0  0
 32 54  1  0  0  0
 32 55  1  0  0  0
 33 56  1  0  0  0
 33 57  1  0  0  0
 34 58  1  0  0  0
 34 59  1  0  0  0
 34 60  1  0  0  0
M  END
> <i_i_glide_confnum>
214

> <i_i_glide_lignum>
3606

> <i_i_glide_posenum>
253

> <i_i_glide_rotatable_bonds>
6

> <i_m_Source_File_Index>
2250

> <b_m_subgroup_collapsed>
0

> <r_i_docking_score>
-6.6063

> <r_i_glide_ecoul>
-2.9491

> <r_i_glide_eff_state_penalty>
0

> <r_i_glide_einternal>
5.27722

> <r_i_glide_emodel>
-65.9141

> <r_i_glide_energy>
-49.2189

> <r_i_glide_erotb>
0.539094

> <r_i_glide_esite>
0

> <r_i_glide_evdw>
-46.2698

> <r_i_glide_gscore>
-6.6063

> <r_i_glide_hbond>
-0.32

> <r_i_glide_ligand_efficiency>
-0.194303

> <r_i_glide_ligand_efficiency_ln>
-1.45952

> <r_i_glide_ligand_efficiency_sa>
-0.629466

> <r_i_glide_lipo>
-3.36359

> <r_i_glide_metal>
0

> <r_i_glide_rewards>
-0.70594

> <s_i_glide_gridfile>
wee1_glide-grid

> <s_m_Source_File>
wee1_decoys_glide_SP.sdf

> <s_m_Source_Path>
/Users/zhangxujun/Desktop

> <s_m_entry_id>
2525

> <s_m_entry_name>
wee1_decoys_glide_SP.2250

> <s_m_subgroup_title>
wee1_decoys_glide_SP

> <s_m_subgroupid>
wee1_decoys_glide_SP


$$$$
