@<TRIPOS>MOLECULE
ZINC36351527_1137
54   58    1
SMALL
USER_CHARGES


@<TRIPOS>ATOM
      1 C1         -4.9255   47.8087   27.1209 C.3       1 UNK         0.0000 
      2 N2         -4.0956   48.6328   28.1187 N.4       1 UNK         0.0000 
      3 C3         -4.1020   50.1504   27.8880 C.3       1 UNK         0.0000 
      4 H4         -5.1628   50.4082   27.8806 H         1 UNK         0.0000 
      5 C5         -3.3735   50.9271   28.9697 C.3       1 UNK         0.0000 
      6 C6         -2.0270   51.2697   28.3423 C.3       1 UNK         0.0000 
      7 N7         -2.2584   51.4913   26.9188 N.pl3     1 UNK         0.0000 
      8 C8         -3.3731   50.5922   26.6054 C.3       1 UNK         0.0000 
      9 C9         -1.2798   51.8543   25.9791 C.ar      1 UNK         0.0000 
     10 C10         0.0495   52.0955   26.3498 C.ar      1 UNK         0.0000 
     11 C11         0.9940   52.3667   25.3588 C.ar      1 UNK         0.0000 
     12 C12         0.6024   52.4264   24.0107 C.ar      1 UNK         0.0000 
     13 C13        -0.7607   52.2397   23.7324 C.ar      1 UNK         0.0000 
     14 N14        -1.6864   51.9632   24.6844 N.ar      1 UNK         0.0000 
     15 N15         1.5437   52.6035   22.9593 N.pl3     1 UNK         0.0000 
     16 C16         2.5119   53.6026   23.0425 C.ar      1 UNK         0.0000 
     17 O17         2.5806   54.4434   23.9437 O.2       1 UNK         0.0000 
     18 C18         3.4100   53.4910   21.8938 C.ar      1 UNK         0.0000 
     19 C19         3.2702   52.6083   20.8162 C.ar      1 UNK         0.0000 
     20 C20         4.2329   52.7904   19.8180 C.2       1 UNK         0.0000 
     21 C21         5.1429   53.8124   20.0970 C.2       1 UNK         0.0000 
     22 S22         4.8009   54.4966   21.6696 S.3       1 UNK         0.0000 
     23 C23         6.3085   54.3041   19.2823 C.ar      1 UNK         0.0000 
     24 C24         7.1438   55.3344   19.7383 C.ar      1 UNK         0.0000 
     25 C25         8.2700   55.7112   19.0112 C.ar      1 UNK         0.0000 
     26 C26         8.5741   55.0717   17.8063 C.ar      1 UNK         0.0000 
     27 C27         7.7317   54.0615   17.3337 C.ar      1 UNK         0.0000 
     28 C28         6.6087   53.6832   18.0647 C.ar      1 UNK         0.0000 
     29 C29         9.8194   55.4615   17.0100 C.3       1 UNK         0.0000 
     30 F30         9.5749   55.4270   15.6985 F         1 UNK         0.0000 
     31 F31        10.7962   54.5966   17.2831 F         1 UNK         0.0000 
     32 F32        10.2436   56.6895   17.3180 F         1 UNK         0.0000 
     33 C33         2.1597   51.6792   20.9226 C.ar      1 UNK         0.0000 
     34 N34         1.3601   51.6732   21.9204 N.2       1 UNK         0.0000 
     35 H35        -4.7967   46.7628   27.4028 H         1 UNK         0.0000 
     36 H36        -5.9652   48.1255   27.2159 H         1 UNK         0.0000 
     37 H37        -4.5311   47.9993   26.1219 H         1 UNK         0.0000 
     38 H38        -3.1042   48.3612   28.0901 H         1 UNK         0.0000 
     39 H39        -3.2377   50.3578   29.8916 H         1 UNK         0.0000 
     40 H40        -3.9260   51.8235   29.2388 H         1 UNK         0.0000 
     41 H41        -1.2693   50.4983   28.4797 H         1 UNK         0.0000 
     42 H42        -1.5640   52.1491   28.7841 H         1 UNK         0.0000 
     43 H43        -4.0339   50.9942   25.8365 H         1 UNK         0.0000 
     44 H44        -2.9254   49.7184   26.1281 H         1 UNK         0.0000 
     45 H45         0.3667   52.0242   27.3789 H         1 UNK         0.0000 
     46 H46         2.0292   52.4986   25.6407 H         1 UNK         0.0000 
     47 H47        -1.1286   52.2733   22.7168 H         1 UNK         0.0000 
     48 H48         4.2627   52.1893   18.9189 H         1 UNK         0.0000 
     49 H49         6.9507   55.8349   20.6746 H         1 UNK         0.0000 
     50 H50         8.9152   56.4880   19.3975 H         1 UNK         0.0000 
     51 H51         7.9542   53.5519   16.4069 H         1 UNK         0.0000 
     52 H52         5.9958   52.8770   17.6868 H         1 UNK         0.0000 
     53 H53         1.9835   50.9500   20.1367 H         1 UNK         0.0000 
     54 H54        -4.3978   48.4461   29.0647 H         1 UNK         0.0000 
@<TRIPOS>BOND
     1    1    2 1    
     2    1   35 1    
     3    1   36 1    
     4    1   37 1    
     5    2    3 1    
     6    2   38 1    
     7    2   54 1    
     8    3    4 1    
     9    3    8 1    
    10    3    5 1    
    11    5    6 1    
    12    5   39 1    
    13    5   40 1    
    14    6    7 1    
    15    6   41 1    
    16    6   42 1    
    17    7    8 1    
    18    7    9 1    
    19    8   43 1    
    20    8   44 1    
    21    9   14 ar   
    22    9   10 ar   
    23   10   11 ar   
    24   10   45 1    
    25   11   12 ar   
    26   11   46 1    
    27   12   13 ar   
    28   12   15 1    
    29   13   14 ar   
    30   13   47 1    
    31   15   34 ar   
    32   15   16 ar   
    33   16   17 2    
    34   16   18 ar   
    35   18   22 1    
    36   18   19 ar   
    37   19   20 1    
    38   19   33 ar   
    39   20   21 2    
    40   20   48 1    
    41   21   22 1    
    42   21   23 1    
    43   23   28 ar   
    44   23   24 ar   
    45   24   25 ar   
    46   24   49 1    
    47   25   26 ar   
    48   25   50 1    
    49   26   27 ar   
    50   26   29 1    
    51   27   28 ar   
    52   27   51 1    
    53   28   52 1    
    54   29   30 1    
    55   29   31 1    
    56   29   32 1    
    57   33   34 ar   
    58   33   53 1    
@<TRIPOS>SUBSTRUCTURE
     1 UNK         1 GROUP             0       ****    0 ROOT    
