@<TRIPOS>MOLECULE
ZINC35023493_5800
58   61    1
SMALL
USER_CHARGES


@<TRIPOS>ATOM
      1 C1          5.0858   54.0978   23.8309 C.3       1 UNK         0.0000 
      2 O2          4.4616   53.8808   22.5682 O.3       1 UNK         0.0000 
      3 C3          5.1607   54.1516   21.4057 C.ar      1 UNK         0.0000 
      4 C4          6.2824   54.9979   21.3908 C.ar      1 UNK         0.0000 
      5 C5          6.9406   55.2967   20.2009 C.ar      1 UNK         0.0000 
      6 C6          6.5050   54.7516   18.9867 C.ar      1 UNK         0.0000 
      7 C7          5.3801   53.9135   18.9932 C.ar      1 UNK         0.0000 
      8 C8          4.7053   53.6138   20.1802 C.ar      1 UNK         0.0000 
      9 N9          3.5334   52.8413   20.0558 N.am      1 UNK         0.0000 
     10 C10         3.1552   51.7944   20.8211 C.2       1 UNK         0.0000 
     11 O11         3.8882   51.2830   21.6651 O.2       1 UNK         0.0000 
     12 C12         1.6684   51.3526   20.6871 C.3       1 UNK         0.0000 
     13 H13         1.1958   52.2889   20.3808 H         1 UNK         0.0000 
     14 C14         0.9658   50.9370   22.0322 C.3       1 UNK         0.0000 
     15 H15         1.4276   50.0311   22.4212 H         1 UNK         0.0000 
     16 C16        -0.4925   50.5956   21.7088 C.2       1 UNK         0.0000 
     17 C17        -0.9848   50.3630   20.4732 C.2       1 UNK         0.0000 
     18 C18        -0.1707   50.4293   19.1726 C.3       1 UNK         0.0000 
     19 H19        -0.3594   51.4303   18.7801 H         1 UNK         0.0000 
     20 C20         1.3728   50.3719   19.4914 C.3       1 UNK         0.0000 
     21 H21         1.9273   50.6969   18.6086 H         1 UNK         0.0000 
     22 C22         1.9009   48.9093   19.6858 C.2       1 UNK         0.0000 
     23 O23         2.2081   48.5051   20.8277 O.co2     1 UNK         0.0000 
     24 O24         1.9060   48.1632   18.6831 O.co2     1 UNK         0.0000 
     25 C25        -0.6760   49.4979   18.0577 C.ar      1 UNK         0.0000 
     26 C26        -0.6527   49.9383   16.7295 C.ar      1 UNK         0.0000 
     27 C27        -1.1207   49.1151   15.7084 C.ar      1 UNK         0.0000 
     28 C28        -1.6137   47.8488   16.0138 C.ar      1 UNK         0.0000 
     29 C29        -1.6389   47.3968   17.3310 C.ar      1 UNK         0.0000 
     30 C30        -1.1711   48.2202   18.3516 C.ar      1 UNK         0.0000 
     31 C31         1.0738   51.9074   23.2165 C.ar      1 UNK         0.0000 
     32 C32         0.8935   51.3825   24.5003 C.ar      1 UNK         0.0000 
     33 C33         1.1033   52.1752   25.6220 C.ar      1 UNK         0.0000 
     34 C34         1.5046   53.4952   25.4589 C.ar      1 UNK         0.0000 
     35 C35         1.6287   54.0510   24.1880 C.ar      1 UNK         0.0000 
     36 C36         1.4023   53.2613   23.0665 C.ar      1 UNK         0.0000 
     37 N37         7.2195   55.0559   17.7231 N.pl3     1 UNK         0.0000 
     38 O38         8.2103   55.7795   17.7719 O.co2     1 UNK         0.0000 
     39 O39         6.7916   54.5773   16.6770 O.co2     1 UNK         0.0000 
     40 H40         4.4783   53.6432   24.6127 H         1 UNK         0.0000 
     41 H41         6.0725   53.6341   23.8779 H         1 UNK         0.0000 
     42 H42         5.1774   55.1579   24.0673 H         1 UNK         0.0000 
     43 H43         6.6572   55.4431   22.2996 H         1 UNK         0.0000 
     44 H44         7.8055   55.9446   20.2316 H         1 UNK         0.0000 
     45 H45         5.0265   53.4835   18.0650 H         1 UNK         0.0000 
     46 H46         2.9329   53.0820   19.2822 H         1 UNK         0.0000 
     47 H47        -1.1804   50.4825   22.5346 H         1 UNK         0.0000 
     48 H48        -2.0434   50.1591   20.4006 H         1 UNK         0.0000 
     49 H49        -0.2647   50.9162   16.4850 H         1 UNK         0.0000 
     50 H50        -1.0967   49.4559   14.6839 H         1 UNK         0.0000 
     51 H51        -1.9723   47.2089   15.2212 H         1 UNK         0.0000 
     52 H52        -2.0122   46.4097   17.5599 H         1 UNK         0.0000 
     53 H53        -1.1758   47.8588   19.3693 H         1 UNK         0.0000 
     54 H54         0.6293   50.3427   24.6335 H         1 UNK         0.0000 
     55 H55         0.9871   51.7572   26.6113 H         1 UNK         0.0000 
     56 H56         1.6956   54.0978   26.3334 H         1 UNK         0.0000 
     57 H57         1.9203   55.0839   24.0726 H         1 UNK         0.0000 
     58 H58         1.5283   53.7058   22.0911 H         1 UNK         0.0000 
@<TRIPOS>BOND
     1    1    2 1    
     2    1   40 1    
     3    1   41 1    
     4    1   42 1    
     5    2    3 1    
     6    3    8 ar   
     7    3    4 ar   
     8    4    5 ar   
     9    4   43 1    
    10    5    6 ar   
    11    5   44 1    
    12    6    7 ar   
    13    6   37 1    
    14    7    8 ar   
    15    7   45 1    
    16    8    9 1    
    17    9   10 am   BACKBONE|DICT|INTERRES
    18    9   46 1    
    19   10   11 2    
    20   10   12 1    
    21   12   13 1    
    22   12   20 1    
    23   12   14 1    
    24   14   15 1    
    25   14   16 1    
    26   14   31 1    
    27   16   17 2    
    28   16   47 1    
    29   17   18 1    
    30   17   48 1    
    31   18   19 1    
    32   18   20 1    
    33   18   25 1    
    34   20   21 1    
    35   20   22 1    
    36   22   23 2    
    37   22   24 1    
    38   25   30 ar   
    39   25   26 ar   
    40   26   27 ar   
    41   26   49 1    
    42   27   28 ar   
    43   27   50 1    
    44   28   29 ar   
    45   28   51 1    
    46   29   30 ar   
    47   29   52 1    
    48   30   53 1    
    49   31   36 ar   
    50   31   32 ar   
    51   32   33 ar   
    52   32   54 1    
    53   33   34 ar   
    54   33   55 1    
    55   34   35 ar   
    56   34   56 1    
    57   35   36 ar   
    58   35   57 1    
    59   36   58 1    
    60   37   38 2    
    61   37   39 1    
@<TRIPOS>SUBSTRUCTURE
     1 UNK         1 GROUP             0       ****    0 ROOT    
