@<TRIPOS>MOLECULE
ZINC61327823_1913
40   42    1
SMALL
USER_CHARGES


@<TRIPOS>ATOM
      1 C1         -4.9203   50.4504   29.0178 C.3       1 UNK         0.0000 
      2 N2         -3.6958   50.2933   28.2425 N.am      1 UNK         0.0000 
      3 C3         -3.2610   51.1618   27.3181 C.2       1 UNK         0.0000 
      4 O4         -3.9392   52.0924   26.8777 O.2       1 UNK         0.0000 
      5 N5         -1.9846   50.8969   26.9799 N.am      1 UNK         0.0000 
      6 C6         -1.1649   51.5736   26.0591 C.ar      1 UNK         0.0000 
      7 C7          0.2128   51.4882   26.2621 C.ar      1 UNK         0.0000 
      8 C8          1.0870   52.1597   25.4106 C.ar      1 UNK         0.0000 
      9 C9          0.5992   52.9205   24.3429 C.ar      1 UNK         0.0000 
     10 C10        -0.7772   52.9497   24.1081 C.ar      1 UNK         0.0000 
     11 C11        -1.6585   52.2868   24.9588 C.ar      1 UNK         0.0000 
     12 N12         1.4393   53.6767   23.5004 N.pl3     1 UNK         0.0000 
     13 C13         2.8538   53.3424   23.3261 C.3       1 UNK         0.0000 
     14 H14         2.9354   52.2616   23.4278 H         1 UNK         0.0000 
     15 C15         3.2650   53.6898   21.8782 C.3       1 UNK         0.0000 
     16 C16         4.7437   53.3335   21.6224 C.3       1 UNK         0.0000 
     17 C17         5.7169   54.1668   22.4858 C.3       1 UNK         0.0000 
     18 C18         5.1637   54.3197   23.8954 C.2       1 UNK         0.0000 
     19 C19         3.8427   54.0334   24.2839 C.2       1 UNK         0.0000 
     20 C20         3.6239   54.3893   25.6251 C.2       1 UNK         0.0000 
     21 C21         4.7515   54.8945   26.2545 C.2       1 UNK         0.0000 
     22 S22         6.1115   54.9783   25.1931 S.3       1 UNK         0.0000 
     23 H23        -4.7911   49.9962   30.0014 H         1 UNK         0.0000 
     24 H24        -5.7534   49.9550   28.5159 H         1 UNK         0.0000 
     25 H25        -5.1783   51.5014   29.1626 H         1 UNK         0.0000 
     26 H26        -3.1035   49.5003   28.4750 H         1 UNK         0.0000 
     27 H27        -1.5403   50.1476   27.4971 H         1 UNK         0.0000 
     28 H28         0.6112   50.9208   27.0919 H         1 UNK         0.0000 
     29 H29         2.1441   52.0969   25.6051 H         1 UNK         0.0000 
     30 H30        -1.1860   53.5068   23.2818 H         1 UNK         0.0000 
     31 H31        -2.7174   52.3385   24.7553 H         1 UNK         0.0000 
     32 H32         1.0076   54.0903   22.6868 H         1 UNK         0.0000 
     33 H33         2.6350   53.1490   21.1694 H         1 UNK         0.0000 
     34 H34         3.1046   54.7514   21.6811 H         1 UNK         0.0000 
     35 H35         4.8986   52.2713   21.8204 H         1 UNK         0.0000 
     36 H36         4.9826   53.4706   20.5664 H         1 UNK         0.0000 
     37 H37         6.7020   53.7024   22.5012 H         1 UNK         0.0000 
     38 H38         5.8353   55.1515   22.0328 H         1 UNK         0.0000 
     39 H39         2.6766   54.2668   26.1284 H         1 UNK         0.0000 
     40 H40         4.8454   55.2194   27.2802 H         1 UNK         0.0000 
@<TRIPOS>BOND
     1    1    2 1    
     2    1   23 1    
     3    1   24 1    
     4    1   25 1    
     5    2    3 am   BACKBONE|DICT|INTERRES
     6    2   26 1    
     7    3    4 2    
     8    3    5 am   BACKBONE|DICT|INTERRES
     9    5    6 1    
    10    5   27 1    
    11    6   11 ar   
    12    6    7 ar   
    13    7    8 ar   
    14    7   28 1    
    15    8    9 ar   
    16    8   29 1    
    17    9   10 ar   
    18    9   12 1    
    19   10   11 ar   
    20   10   30 1    
    21   11   31 1    
    22   12   13 1    
    23   12   32 1    
    24   13   14 1    
    25   13   19 1    
    26   13   15 1    
    27   15   16 1    
    28   15   33 1    
    29   15   34 1    
    30   16   17 1    
    31   16   35 1    
    32   16   36 1    
    33   17   18 1    
    34   17   37 1    
    35   17   38 1    
    36   18   22 1    
    37   18   19 2    
    38   19   20 1    
    39   20   21 2    
    40   20   39 1    
    41   21   22 1    
    42   21   40 1    
@<TRIPOS>SUBSTRUCTURE
     1 UNK         1 GROUP             0       ****    0 ROOT    
