ZINC39947174_2212
                    3D
 Schrodinger Suite 2024-2.
 60 64  0  0  1  0            999 V2000
   -2.4359   49.8199   24.6031 C   0  0  0  0  0  0
   -1.0278   49.7912   23.9695 C   0  0  1  0  0  0
   -0.8534   48.7632   23.6488 H   0  0  0  0  0  0
   -0.9266   50.6898   22.7207 C   0  0  0  0  0  0
   -1.5391   51.7589   22.6662 O   0  0  0  0  0  0
   -0.0953   50.2884   21.7435 N   0  0  0  0  0  0
    0.2848   51.0582   20.5470 C   0  0  0  0  0  0
    1.1900   52.2772   20.8869 C   0  0  0  0  0  0
    2.5785   51.8714   21.4248 C   0  0  0  0  0  0
    3.3064   50.9368   20.4444 C   0  0  0  0  0  0
    2.4487   49.7214   20.0552 C   0  0  0  0  0  0
    1.0529   50.1492   19.5465 C   0  0  0  0  0  0
   -0.9088   51.5720   19.8293 C   0  0  0  0  0  0
   -1.8413   51.9791   19.2734 N   0  0  0  0  0  0
    0.3033   50.1631   25.1688 S   0  0  0  0  0  0
   -0.0571   51.8653   25.7300 C   0  0  2  0  0  0
   -1.0872   51.8905   26.0851 H   0  0  0  0  0  0
    0.1542   52.8966   24.7346 N   0  0  0  0  0  0
    1.4153   53.4630   24.8755 N   0  0  0  0  0  0
    1.7616   53.2122   26.0655 C   0  0  0  0  0  0
    0.8571   52.3990   26.7288 N   0  0  0  0  0  0
    0.8950   51.8533   28.0854 C   0  0  0  0  0  0
    0.5521   52.8013   29.2249 C   0  0  0  0  0  0
   -0.4266   51.7380   28.8290 C   0  0  0  0  0  0
    3.0136   53.6971   26.6127 C   0  0  0  0  0  0
    4.1046   54.0670   25.9041 C   0  0  0  0  0  0
    4.3906   54.0970   24.4561 C   0  0  0  0  0  0
    5.5860   54.4977   23.9919 C   0  0  0  0  0  0
    6.5740   54.9362   24.9613 C   0  0  0  0  0  0
    6.3424   54.9026   26.3003 C   0  0  0  0  0  0
    5.1099   54.4661   26.7922 C   0  0  0  0  0  0
    4.7077   54.3696   28.0368 N   0  3  0  0  0  0
    3.3216   53.8712   28.0862 C   0  0  0  0  0  0
   -3.1992   49.4986   23.8920 H   0  0  0  0  0  0
   -2.4871   49.1473   25.4603 H   0  0  0  0  0  0
   -2.7169   50.8148   24.9510 H   0  0  0  0  0  0
    0.3711   49.4009   21.8548 H   0  0  0  0  0  0
    0.7095   52.9151   21.6293 H   0  0  0  0  0  0
    1.3237   52.8963   19.9970 H   0  0  0  0  0  0
    2.4687   51.3796   22.3931 H   0  0  0  0  0  0
    3.1797   52.7630   21.5999 H   0  0  0  0  0  0
    4.2523   50.6041   20.8745 H   0  0  0  0  0  0
    3.5622   51.4929   19.5412 H   0  0  0  0  0  0
    2.3454   49.0564   20.9140 H   0  0  0  0  0  0
    2.9625   49.1431   19.2842 H   0  0  0  0  0  0
    1.1763   50.6638   18.5908 H   0  0  0  0  0  0
    0.4737   49.2477   19.3352 H   0  0  0  0  0  0
   -0.0265   52.6636   23.7661 H   0  0  0  0  0  0
    1.6402   51.0706   28.2421 H   0  0  0  0  0  0
    1.0745   52.6966   30.1763 H   0  0  0  0  0  0
    0.3139   53.8412   28.9967 H   0  0  0  0  0  0
   -1.3533   52.0295   28.3351 H   0  0  0  0  0  0
   -0.5802   50.8968   29.5031 H   0  0  0  0  0  0
    3.6675   53.7748   23.7227 H   0  0  0  0  0  0
    5.8019   54.5017   22.9319 H   0  0  0  0  0  0
    7.5044   55.3240   24.5878 H   0  0  0  0  0  0
    7.1038   55.2482   26.9847 H   0  0  0  0  0  0
    2.7045   54.6213   28.5813 H   0  0  0  0  0  0
    3.3235   52.9379   28.6496 H   0  0  0  0  0  0
    5.2653   54.6076   28.8552 H   0  0  0  0  0  0
  1  2  1  0  0  0
  1 34  1  0  0  0
  1 35  1  0  0  0
  1 36  1  0  0  0
  2  3  1  0  0  0
  2  4  1  0  0  0
  2 15  1  0  0  0
  4  5  2  0  0  0
  4  6  1  0  0  0
  6  7  1  0  0  0
  6 37  1  0  0  0
  7 12  1  0  0  0
  7  8  1  0  0  0
  7 13  1  0  0  0
  8  9  1  0  0  0
  8 38  1  0  0  0
  8 39  1  0  0  0
  9 10  1  0  0  0
  9 40  1  0  0  0
  9 41  1  0  0  0
 10 11  1  0  0  0
 10 42  1  0  0  0
 10 43  1  0  0  0
 11 12  1  0  0  0
 11 44  1  0  0  0
 11 45  1  0  0  0
 12 46  1  0  0  0
 12 47  1  0  0  0
 13 14  3  0  0  0
 15 16  1  0  0  0
 16 17  1  0  0  0
 16 21  1  0  0  0
 16 18  1  0  0  0
 18 19  1  0  0  0
 18 48  1  0  0  0
 19 20  2  0  0  0
 20 21  1  0  0  0
 20 25  1  0  0  0
 21 22  1  0  0  0
 22 24  1  0  0  0
 22 23  1  0  0  0
 22 49  1  0  0  0
 23 24  1  0  0  0
 23 50  1  0  0  0
 23 51  1  0  0  0
 24 52  1  0  0  0
 24 53  1  0  0  0
 25 33  1  0  0  0
 25 26  2  0  0  0
 26 31  1  0  0  0
 26 27  1  0  0  0
 27 28  2  0  0  0
 27 54  1  0  0  0
 28 29  1  0  0  0
 28 55  1  0  0  0
 29 30  2  0  0  0
 29 56  1  0  0  0
 30 31  1  0  0  0
 30 57  1  0  0  0
 31 32  2  0  0  0
 32 33  1  0  0  0
 32 60  1  0  0  0
 33 58  1  0  0  0
 33 59  1  0  0  0
M  CHG  1  32   1
M  END
> <i_i_glide_confnum>
105

> <i_i_glide_lignum>
2213

> <i_i_glide_posenum>
226

> <i_i_glide_rotatable_bonds>
8

> <i_m_Source_File_Index>
1805

> <b_m_subgroup_collapsed>
0

> <r_i_docking_score>
-4.73119

> <r_i_glide_ecoul>
-1.3359

> <r_i_glide_eff_state_penalty>
0

> <r_i_glide_einternal>
3.06446

> <r_i_glide_emodel>
-52.7036

> <r_i_glide_energy>
-41.412

> <r_i_glide_erotb>
0.729055

> <r_i_glide_esite>
-0.0156293

> <r_i_glide_evdw>
-40.0761

> <r_i_glide_gscore>
-4.73119

> <r_i_glide_hbond>
-0.0179474

> <r_i_glide_ligand_efficiency>
-0.152619

> <r_i_glide_ligand_efficiency_ln>
-1.06703

> <r_i_glide_ligand_efficiency_sa>
-0.479434

> <r_i_glide_lipo>
-2.37649

> <r_i_glide_metal>
0

> <r_i_glide_rewards>
-0.845979

> <s_i_glide_gridfile>
wee1_glide-grid

> <s_m_Source_File>
wee1_decoys_glide_SP.sdf

> <s_m_Source_Path>
/Users/zhangxujun/Desktop

> <s_m_entry_id>
2080

> <s_m_entry_name>
wee1_decoys_glide_SP.1805

> <s_m_subgroup_title>
wee1_decoys_glide_SP

> <s_m_subgroupid>
wee1_decoys_glide_SP


$$$$
