ZINC12010498_4222
                    3D
 Schrodinger Suite 2024-2.
 61 67  0  0  1  0            999 V2000
   -0.3708   49.9494   19.0217 C   0  0  0  0  0  0
   -0.6073   48.6675   19.5157 C   0  0  0  0  0  0
   -0.4984   48.4188   20.8826 C   0  0  0  0  0  0
   -0.1432   49.4518   21.7492 C   0  0  0  0  0  0
    0.0788   50.7560   21.2732 C   0  0  0  0  0  0
   -0.0327   50.9840   19.8949 C   0  0  0  0  0  0
    0.4636   51.8625   22.2626 C   0  0  0  0  0  0
    0.0460   51.4970   23.6897 C   0  0  0  0  0  0
   -0.1625   52.4621   24.6836 C   0  0  0  0  0  0
   -0.5688   52.0947   25.9676 C   0  0  0  0  0  0
   -0.7466   50.7488   26.2845 C   0  0  0  0  0  0
   -0.5425   49.7713   25.3124 C   0  0  0  0  0  0
   -0.1582   50.1460   24.0251 C   0  0  0  0  0  0
   -0.0518   49.1381   23.0897 O   0  0  0  0  0  0
    1.9953   52.0828   22.2120 C   0  0  0  0  0  0
    2.7700   51.1306   22.0816 O   0  0  0  0  0  0
    2.3979   53.3652   22.2921 N   0  0  0  0  0  0
    3.6835   53.7629   21.9914 C   0  0  0  0  0  0
    4.2179   53.9956   20.7356 C   0  0  0  0  0  0
    5.5069   54.4751   20.9470 C   0  0  0  0  0  0
    5.7864   54.4968   22.2289 N   0  0  0  0  0  0
    4.6811   54.0969   22.8973 N   0  0  0  0  0  0
    4.6972   54.1177   24.3071 C   0  0  0  0  0  0
    5.8479   54.4682   24.9676 N   0  0  0  0  0  0
    6.6656   54.7076   24.4331 H   0  0  0  0  0  0
    6.0244   54.5374   26.2981 C   0  0  0  0  0  0
    7.1044   54.8967   26.7510 O   0  0  0  0  0  0
    4.8444   54.1615   27.0598 C   0  0  0  0  0  0
    3.7058   53.8327   26.3794 C   0  0  0  0  0  0
    3.6453   53.8449   25.0093 N   0  0  0  0  0  0
    2.4446   53.3508   27.0905 C   0  0  0  0  0  0
    2.6984   52.9637   28.5635 C   0  0  0  0  0  0
    3.5958   53.9909   29.2705 C   0  0  0  0  0  0
    4.9718   54.0972   28.5867 C   0  0  0  0  0  0
    6.4711   54.8987   19.9448 C   0  0  0  0  0  0
    6.4698   54.8954   18.5564 C   0  0  0  0  0  0
    7.7030   55.4029   18.1425 C   0  0  0  0  0  0
    8.4089   55.6975   19.2955 C   0  0  0  0  0  0
    7.6598   55.3990   20.3866 O   0  0  0  0  0  0
   -0.4436   50.1410   17.9610 H   0  0  0  0  0  0
   -0.8701   47.8679   18.8390 H   0  0  0  0  0  0
   -0.6823   47.4284   21.2702 H   0  0  0  0  0  0
    0.1571   51.9699   19.4952 H   0  0  0  0  0  0
   -0.0463   52.7753   21.9552 H   0  0  0  0  0  0
   -0.0146   53.5079   24.4576 H   0  0  0  0  0  0
   -0.7328   52.8495   26.7225 H   0  0  0  0  0  0
   -1.0516   50.4570   27.2804 H   0  0  0  0  0  0
   -0.6943   48.7296   25.5591 H   0  0  0  0  0  0
    1.7025   54.0928   22.3403 H   0  0  0  0  0  0
    3.7174   53.8627   19.7870 H   0  0  0  0  0  0
    1.6959   54.1413   27.0440 H   0  0  0  0  0  0
    2.0253   52.4962   26.5624 H   0  0  0  0  0  0
    1.7485   52.8611   29.0902 H   0  0  0  0  0  0
    3.1751   51.9826   28.6039 H   0  0  0  0  0  0
    3.1083   54.9677   29.2693 H   0  0  0  0  0  0
    3.7296   53.7140   30.3165 H   0  0  0  0  0  0
    5.5656   53.2199   28.8517 H   0  0  0  0  0  0
    5.5242   54.9504   28.9878 H   0  0  0  0  0  0
    5.6689   54.5510   17.9186 H   0  0  0  0  0  0
    8.0426   55.5321   17.1251 H   0  0  0  0  0  0
    9.3967   56.0942   19.4862 H   0  0  0  0  0  0
  1  6  2  0  0  0
  1  2  1  0  0  0
  1 40  1  0  0  0
  2  3  2  0  0  0
  2 41  1  0  0  0
  3  4  1  0  0  0
  3 42  1  0  0  0
  4 14  1  0  0  0
  4  5  2  0  0  0
  5  6  1  0  0  0
  5  7  1  0  0  0
  6 43  1  0  0  0
  7  8  1  0  0  0
  7 15  1  0  0  0
  7 44  1  0  0  0
  8 13  2  0  0  0
  8  9  1  0  0  0
  9 10  2  0  0  0
  9 45  1  0  0  0
 10 11  1  0  0  0
 10 46  1  0  0  0
 11 12  2  0  0  0
 11 47  1  0  0  0
 12 13  1  0  0  0
 12 48  1  0  0  0
 13 14  1  0  0  0
 15 16  2  0  0  0
 15 17  1  0  0  0
 17 18  1  0  0  0
 17 49  1  0  0  0
 18 22  1  0  0  0
 18 19  2  0  0  0
 19 20  1  0  0  0
 19 50  1  0  0  0
 20 21  2  0  0  0
 20 35  1  0  0  0
 21 22  1  0  0  0
 22 23  1  0  0  0
 23 30  2  0  0  0
 23 24  1  0  0  0
 24 25  1  0  0  0
 24 26  1  0  0  0
 26 27  2  0  0  0
 26 28  1  0  0  0
 28 34  1  0  0  0
 28 29  2  0  0  0
 29 30  1  0  0  0
 29 31  1  0  0  0
 31 32  1  0  0  0
 31 51  1  0  0  0
 31 52  1  0  0  0
 32 33  1  0  0  0
 32 53  1  0  0  0
 32 54  1  0  0  0
 33 34  1  0  0  0
 33 55  1  0  0  0
 33 56  1  0  0  0
 34 57  1  0  0  0
 34 58  1  0  0  0
 35 39  1  0  0  0
 35 36  2  0  0  0
 36 37  1  0  0  0
 36 59  1  0  0  0
 37 38  2  0  0  0
 37 60  1  0  0  0
 38 39  1  0  0  0
 38 61  1  0  0  0
M  END
> <i_i_glide_confnum>
3

> <i_i_glide_lignum>
4223

> <i_i_glide_posenum>
25

> <i_i_glide_rotatable_bonds>
5

> <i_m_Source_File_Index>
4652

> <b_m_subgroup_collapsed>
0

> <r_i_docking_score>
-5.03449

> <r_i_glide_ecoul>
-5.33182

> <r_i_glide_eff_state_penalty>
0

> <r_i_glide_einternal>
1.83594

> <r_i_glide_emodel>
-69.647

> <r_i_glide_energy>
-57.8398

> <r_i_glide_erotb>
0.400187

> <r_i_glide_esite>
0

> <r_i_glide_evdw>
-52.508

> <r_i_glide_gscore>
-5.03449

> <r_i_glide_hbond>
-0.291238

> <r_i_glide_ligand_efficiency>
-0.132487

> <r_i_glide_ligand_efficiency_ln>
-1.08558

> <r_i_glide_ligand_efficiency_sa>
-0.445417

> <r_i_glide_lipo>
-2.38281

> <r_i_glide_metal>
0

> <r_i_glide_rewards>
0.664541

> <s_i_glide_gridfile>
wee1_glide-grid

> <s_m_Source_File>
wee1_decoys_glide_SP.sdf

> <s_m_Source_Path>
/Users/zhangxujun/Desktop

> <s_m_entry_id>
4927

> <s_m_entry_name>
wee1_decoys_glide_SP.4652

> <s_m_subgroup_title>
wee1_decoys_glide_SP

> <s_m_subgroupid>
wee1_decoys_glide_SP


$$$$
