ZINC64182193_239
                    3D
 Schrodinger Suite 2024-2.
 53 56  0  0  1  0            999 V2000
    3.0175   51.9897   19.7502 C   0  0  0  0  0  0
    4.0360   53.0058   20.2593 C   0  0  0  0  0  0
    4.2634   53.0714   21.6341 C   0  0  0  0  0  0
    5.1329   54.0209   22.1764 C   0  0  0  0  0  0
    5.7966   54.8967   21.3161 C   0  0  0  0  0  0
    5.5804   54.8591   19.9355 C   0  0  0  0  0  0
    4.7074   53.8914   19.3911 C   0  0  0  0  0  0
    4.4848   53.7770   17.8832 C   0  0  0  0  0  0
    6.4369   56.0959   18.9421 S   0  0  0  0  0  0
    7.3146   55.3837   18.0103 O   0  0  0  0  0  0
    6.9743   57.1055   19.8609 O   0  0  0  0  0  0
    5.2075   56.8947   17.9981 N   0  0  0  0  0  0
    5.3936   54.0993   23.6603 C   0  0  0  0  0  0
    6.5658   54.0963   24.0433 O   0  0  0  0  0  0
    4.3393   54.2116   24.5200 N   0  0  0  0  0  0
    2.9497   54.4923   24.0937 C   0  0  0  0  0  0
    2.0267   53.4201   24.7214 C   0  0  0  0  0  0
    2.2550   53.2968   26.2261 C   0  0  0  0  0  0
    3.4327   53.6964   26.7572 C   0  0  0  0  0  0
    4.6184   54.2583   25.9758 C   0  0  0  0  0  0
    1.2251   52.6855   27.0645 C   0  0  0  0  0  0
    0.8523   53.0577   28.3055 C   0  0  0  0  0  0
    1.2355   54.1980   29.1554 C   0  0  0  0  0  0
    0.7731   54.3016   30.4168 C   0  0  0  0  0  0
   -0.0955   53.2453   30.9127 C   0  0  0  0  0  0
   -0.4876   52.2033   30.1319 C   0  0  0  0  0  0
   -0.0315   52.0976   28.8151 C   0  0  0  0  0  0
   -0.2871   51.1679   27.9228 N   0  3  0  0  0  0
    0.4725   51.4273   26.6886 C   0  0  0  0  0  0
    2.3982   51.5877   20.5522 H   0  0  0  0  0  0
    2.3349   52.4627   19.0425 H   0  0  0  0  0  0
    3.5043   51.1607   19.2371 H   0  0  0  0  0  0
    3.7482   52.3794   22.2860 H   0  0  0  0  0  0
    6.4800   55.6225   21.7346 H   0  0  0  0  0  0
    4.2988   52.7434   17.5839 H   0  0  0  0  0  0
    3.6360   54.3878   17.5723 H   0  0  0  0  0  0
    5.3596   54.0679   17.3057 H   0  0  0  0  0  0
    5.2262   57.9162   18.0792 H   0  0  0  0  0  0
    5.1827   56.5825   17.0246 H   0  0  0  0  0  0
    2.6857   55.4738   24.4813 H   0  0  0  0  0  0
    2.8085   54.5685   23.0173 H   0  0  0  0  0  0
    0.9815   53.6493   24.5104 H   0  0  0  0  0  0
    2.2271   52.4540   24.2567 H   0  0  0  0  0  0
    3.5831   53.5635   27.8192 H   0  0  0  0  0  0
    5.5449   53.7462   26.2441 H   0  0  0  0  0  0
    4.7672   55.2952   26.2799 H   0  0  0  0  0  0
    1.8692   54.9927   28.7855 H   0  0  0  0  0  0
    1.0261   55.1485   31.0405 H   0  0  0  0  0  0
   -0.4486   53.2936   31.9356 H   0  0  0  0  0  0
   -1.1337   51.4491   30.5663 H   0  0  0  0  0  0
   -0.2420   51.5578   25.8753 H   0  0  0  0  0  0
    1.1032   50.5601   26.5074 H   0  0  0  0  0  0
   -0.8806   50.3462   28.0696 H   0  0  0  0  0  0
  1  2  1  0  0  0
  1 30  1  0  0  0
  1 31  1  0  0  0
  1 32  1  0  0  0
  2  7  2  0  0  0
  2  3  1  0  0  0
  3  4  2  0  0  0
  3 33  1  0  0  0
  4  5  1  0  0  0
  4 13  1  0  0  0
  5  6  2  0  0  0
  5 34  1  0  0  0
  6  7  1  0  0  0
  6  9  1  0  0  0
  7  8  1  0  0  0
  8 35  1  0  0  0
  8 36  1  0  0  0
  8 37  1  0  0  0
  9 10  2  0  0  0
  9 11  2  0  0  0
  9 12  1  0  0  0
 12 38  1  0  0  0
 12 39  1  0  0  0
 13 14  2  0  0  0
 13 15  1  0  0  0
 15 20  1  0  0  0
 15 16  1  0  0  0
 16 17  1  0  0  0
 16 40  1  0  0  0
 16 41  1  0  0  0
 17 18  1  0  0  0
 17 42  1  0  0  0
 17 43  1  0  0  0
 18 19  2  0  0  0
 18 21  1  0  0  0
 19 20  1  0  0  0
 19 44  1  0  0  0
 20 45  1  0  0  0
 20 46  1  0  0  0
 21 29  1  0  0  0
 21 22  2  0  0  0
 22 27  1  0  0  0
 22 23  1  0  0  0
 23 24  2  0  0  0
 23 47  1  0  0  0
 24 25  1  0  0  0
 24 48  1  0  0  0
 25 26  2  0  0  0
 25 49  1  0  0  0
 26 27  1  0  0  0
 26 50  1  0  0  0
 27 28  2  0  0  0
 28 29  1  0  0  0
 28 53  1  0  0  0
 29 51  1  0  0  0
 29 52  1  0  0  0
M  CHG  1  28   1
M  END
> <i_i_glide_confnum>
12

> <i_i_glide_lignum>
240

> <i_i_glide_posenum>
306

> <i_i_glide_rotatable_bonds>
4

> <i_m_Source_File_Index>
3521

> <b_m_subgroup_collapsed>
0

> <r_i_docking_score>
-5.703

> <r_i_glide_ecoul>
-5.24092

> <r_i_glide_eff_state_penalty>
0

> <r_i_glide_einternal>
3.50862

> <r_i_glide_emodel>
-60.0241

> <r_i_glide_energy>
-45.9746

> <r_i_glide_erotb>
0.350719

> <r_i_glide_esite>
-0.129957

> <r_i_glide_evdw>
-40.7337

> <r_i_glide_gscore>
-5.703

> <r_i_glide_hbond>
-0.178213

> <r_i_glide_ligand_efficiency>
-0.196655

> <r_i_glide_ligand_efficiency_ln>
-1.30584

> <r_i_glide_ligand_efficiency_sa>
-0.604187

> <r_i_glide_lipo>
-2.39812

> <r_i_glide_metal>
0

> <r_i_glide_rewards>
-0.524604

> <s_i_glide_gridfile>
wee1_glide-grid

> <s_m_Source_File>
wee1_decoys_glide_SP.sdf

> <s_m_Source_Path>
/Users/zhangxujun/Desktop

> <s_m_entry_id>
3796

> <s_m_entry_name>
wee1_decoys_glide_SP.3521

> <s_m_subgroup_title>
wee1_decoys_glide_SP

> <s_m_subgroupid>
wee1_decoys_glide_SP


$$$$
