@<TRIPOS>MOLECULE
ZINC53602520_1333
49   52    1
SMALL
USER_CHARGES


@<TRIPOS>ATOM
      1 C1         -3.8578   51.8065   26.2986 C.ar      1 UNK         0.0000 
      2 C2         -4.5681   51.0969   27.2709 C.ar      1 UNK         0.0000 
      3 C3         -3.8949   50.6371   28.4048 C.ar      1 UNK         0.0000 
      4 N4         -2.5780   50.8967   28.5397 N.pl3     1 UNK         0.0000 
      5 C5         -1.8397   51.5670   27.6249 C.ar      1 UNK         0.0000 
      6 C6         -2.4896   52.0428   26.4746 C.ar      1 UNK         0.0000 
      7 N7         -0.4498   51.8235   27.8721 N.pl3     1 UNK         0.0000 
      8 C8          0.1728   51.7651   29.2071 C.3       1 UNK         0.0000 
      9 C9          1.1141   52.9704   29.4217 C.3       1 UNK         0.0000 
     10 N10         2.1666   53.0138   28.3987 N.3       1 UNK         0.0000 
     11 C11         1.5946   53.0115   27.0410 C.3       1 UNK         0.0000 
     12 C12         0.5707   51.8799   26.8075 C.3       1 UNK         0.0000 
     13 C13         3.0220   54.1930   28.6425 C.3       1 UNK         0.0000 
     14 C14         4.3071   54.2363   27.8270 C.2       1 UNK         0.0000 
     15 C15         5.6202   54.1020   28.2753 C.2       1 UNK         0.0000 
     16 S16         6.7036   54.1681   26.9190 S.3       1 UNK         0.0000 
     17 C17         5.3255   54.3980   25.8875 C.2       1 UNK         0.0000 
     18 N18         4.1888   54.4565   26.5322 N.2       1 UNK         0.0000 
     19 C19         5.4219   54.4539   24.3965 C.ar      1 UNK         0.0000 
     20 C20         4.3076   54.0967   23.6275 C.ar      1 UNK         0.0000 
     21 C21         4.3617   54.1339   22.2384 C.ar      1 UNK         0.0000 
     22 C22         5.5298   54.5551   21.5869 C.ar      1 UNK         0.0000 
     23 C23         6.6476   54.9005   22.3625 C.ar      1 UNK         0.0000 
     24 C24         6.5964   54.8466   23.7520 C.ar      1 UNK         0.0000 
     25 C25         5.6089   54.6559   20.0770 C.2       1 UNK         0.0000 
     26 O26         6.6706   54.8918   19.5054 O.2       1 UNK         0.0000 
     27 N27         4.4839   54.4956   19.3771 N.am      1 UNK         0.0000 
     28 H28        -4.3633   52.1689   25.4153 H         1 UNK         0.0000 
     29 H29        -5.6220   50.8904   27.1343 H         1 UNK         0.0000 
     30 H30        -4.3413   50.0465   29.1935 H         1 UNK         0.0000 
     31 H31        -1.9551   52.6048   25.7228 H         1 UNK         0.0000 
     32 H32        -0.5991   51.7528   29.9758 H         1 UNK         0.0000 
     33 H33         0.7236   50.8311   29.2818 H         1 UNK         0.0000 
     34 H34         1.5505   52.9013   30.4185 H         1 UNK         0.0000 
     35 H35         0.5164   53.8818   29.3566 H         1 UNK         0.0000 
     36 H36         1.0988   53.9663   26.8819 H         1 UNK         0.0000 
     37 H37         2.3765   52.8644   26.3006 H         1 UNK         0.0000 
     38 H38         0.1037   51.9926   25.8319 H         1 UNK         0.0000 
     39 H39         1.0742   50.9124   26.7745 H         1 UNK         0.0000 
     40 H40         3.2862   54.2185   29.7007 H         1 UNK         0.0000 
     41 H41         2.4416   55.1036   28.4759 H         1 UNK         0.0000 
     42 H42         5.9923   53.9665   29.2809 H         1 UNK         0.0000 
     43 H43         3.3914   53.7801   24.1016 H         1 UNK         0.0000 
     44 H44         3.4768   53.8494   21.6881 H         1 UNK         0.0000 
     45 H45         7.5697   55.2202   21.8968 H         1 UNK         0.0000 
     46 H46         7.4775   55.1200   24.3160 H         1 UNK         0.0000 
     47 H47         3.5902   54.3853   19.8310 H         1 UNK         0.0000 
     48 H48         4.5312   54.5361   18.3717 H         1 UNK         0.0000 
     49 H49        -2.0950   50.4536   29.3154 H         1 UNK         0.0000 
@<TRIPOS>BOND
     1    1    6 ar   
     2    1    2 ar   
     3    1   28 1    
     4    2    3 ar   
     5    2   29 1    
     6    3    4 ar   
     7    3   30 1    
     8    4    5 ar   
     9    4   49 1    
    10    5    6 ar   
    11    5    7 1    
    12    6   31 1    
    13    7   12 1    
    14    7    8 1    
    15    8    9 1    
    16    8   32 1    
    17    8   33 1    
    18    9   10 1    
    19    9   34 1    
    20    9   35 1    
    21   10   11 1    
    22   10   13 1    
    23   11   12 1    
    24   11   36 1    
    25   11   37 1    
    26   12   38 1    
    27   12   39 1    
    28   13   14 1    
    29   13   40 1    
    30   13   41 1    
    31   14   18 1    
    32   14   15 2    
    33   15   16 1    
    34   15   42 1    
    35   16   17 1    
    36   17   18 2    
    37   17   19 1    
    38   19   24 ar   
    39   19   20 ar   
    40   20   21 ar   
    41   20   43 1    
    42   21   22 ar   
    43   21   44 1    
    44   22   23 ar   
    45   22   25 1    
    46   23   24 ar   
    47   23   45 1    
    48   24   46 1    
    49   25   26 2    
    50   25   27 am   BACKBONE|DICT|INTERRES
    51   27   47 1    
    52   27   48 1    
@<TRIPOS>SUBSTRUCTURE
     1 UNK         1 GROUP             0       ****    0 ROOT    
