ZINC45606242_1251
                    3D
 Schrodinger Suite 2024-2.
 61 65  0  0  1  0            999 V2000
    1.7769   46.1843   15.1907 C   0  0  0  0  0  0
    1.6382   46.7016   16.4786 C   0  0  0  0  0  0
    1.0620   47.9726   16.6614 C   0  0  0  0  0  0
    0.6180   48.6871   15.5881 N   0  0  0  0  0  0
    0.7570   48.1760   14.3433 C   0  0  0  0  0  0
    1.3283   46.9255   14.0914 C   0  0  0  0  0  0
    1.4151   46.3859   12.6677 C   0  0  0  0  0  0
    0.3375   46.7353   11.9664 F   0  0  0  0  0  0
    1.5051   45.0550   12.6528 F   0  0  0  0  0  0
    2.4941   46.8971   12.0768 F   0  0  0  0  0  0
    0.8608   48.5333   17.9505 N   0  0  0  0  0  0
    1.5223   47.9071   19.1037 C   0  0  0  0  0  0
    1.7452   48.7449   20.3820 C   0  0  0  0  0  0
    2.6898   49.9373   20.1959 C   0  0  0  0  0  0
    2.0030   51.1980   19.6246 N   0  3  2  0  0  0
    1.4427   51.0134   18.1973 C   0  0  0  0  0  0
    0.3731   49.9139   18.0879 C   0  0  0  0  0  0
    2.9552   52.4167   19.6998 C   0  0  0  0  0  0
    3.2632   52.8965   21.1132 C   0  0  0  0  0  0
    2.2533   52.8487   22.0176 N   0  0  0  0  0  0
    2.5226   53.2891   23.2713 C   0  0  0  0  0  0
    3.8132   53.7705   23.6358 C   0  0  0  0  0  0
    4.4024   54.2413   24.8685 C   0  0  0  0  0  0
    5.7398   54.6115   24.6897 C   0  0  0  0  0  0
    6.3046   54.3694   23.0523 S   0  0  0  0  0  0
    4.7533   53.7729   22.5657 C   0  0  0  0  0  0
    4.5161   53.3630   21.3165 N   0  0  0  0  0  0
    6.6774   55.1497   25.7418 C   0  0  0  0  0  0
    6.8918   54.1869   26.9255 C   0  0  0  0  0  0
    5.7120   54.1163   27.9078 C   0  0  0  0  0  0
    4.4050   53.5163   27.3524 C   0  0  0  0  0  0
    3.7082   54.3114   26.2256 C   0  0  0  0  0  0
    1.4500   53.2037   24.1588 N   0  0  0  0  0  0
    2.2198   45.2071   15.0566 H   0  0  0  0  0  0
    1.9718   46.1027   17.3105 H   0  0  0  0  0  0
    0.3913   48.7931   13.5346 H   0  0  0  0  0  0
    0.9932   46.9904   19.3734 H   0  0  0  0  0  0
    2.5451   47.6741   18.7919 H   0  0  0  0  0  0
    0.7918   49.0586   20.8112 H   0  0  0  0  0  0
    2.1951   48.0977   21.1379 H   0  0  0  0  0  0
    3.0954   50.2359   21.1631 H   0  0  0  0  0  0
    3.5046   49.7050   19.5159 H   0  0  0  0  0  0
    2.2795   50.8534   17.5104 H   0  0  0  0  0  0
    1.0010   51.9746   17.9251 H   0  0  0  0  0  0
   -0.3425   50.1633   17.3031 H   0  0  0  0  0  0
   -0.2883   49.9613   18.9522 H   0  0  0  0  0  0
    3.8536   52.1315   19.1452 H   0  0  0  0  0  0
    2.4599   53.2270   19.1646 H   0  0  0  0  0  0
    7.6295   55.3796   25.2730 H   0  0  0  0  0  0
    6.3053   56.0967   26.1257 H   0  0  0  0  0  0
    7.1216   53.1895   26.5528 H   0  0  0  0  0  0
    7.7725   54.5008   27.4822 H   0  0  0  0  0  0
    6.0238   53.5197   28.7674 H   0  0  0  0  0  0
    5.5145   55.1128   28.3093 H   0  0  0  0  0  0
    4.5897   52.4975   27.0214 H   0  0  0  0  0  0
    3.7052   53.4262   28.1839 H   0  0  0  0  0  0
    3.6161   55.3501   26.5328 H   0  0  0  0  0  0
    2.6832   53.9631   26.1861 H   0  0  0  0  0  0
    1.5669   53.4802   25.1234 H   0  0  0  0  0  0
    0.5767   52.8233   23.8268 H   0  0  0  0  0  0
    1.2306   51.4187   20.2341 H   0  0  0  0  0  0
  1  6  2  0  0  0
  1  2  1  0  0  0
  1 34  1  0  0  0
  2  3  2  0  0  0
  2 35  1  0  0  0
  3  4  1  0  0  0
  3 11  1  0  0  0
  4  5  2  0  0  0
  5  6  1  0  0  0
  5 36  1  0  0  0
  6  7  1  0  0  0
  7  8  1  0  0  0
  7  9  1  0  0  0
  7 10  1  0  0  0
 11 17  1  0  0  0
 11 12  1  0  0  0
 12 13  1  0  0  0
 12 37  1  0  0  0
 12 38  1  0  0  0
 13 14  1  0  0  0
 13 39  1  0  0  0
 13 40  1  0  0  0
 14 15  1  0  0  0
 14 41  1  0  0  0
 14 42  1  0  0  0
 15 16  1  0  0  0
 15 18  1  0  0  0
 15 61  1  0  0  0
 16 17  1  0  0  0
 16 43  1  0  0  0
 16 44  1  0  0  0
 17 45  1  0  0  0
 17 46  1  0  0  0
 18 19  1  0  0  0
 18 47  1  0  0  0
 18 48  1  0  0  0
 19 27  2  0  0  0
 19 20  1  0  0  0
 20 21  2  0  0  0
 21 22  1  0  0  0
 21 33  1  0  0  0
 22 26  2  0  0  0
 22 23  1  0  0  0
 23 32  1  0  0  0
 23 24  2  0  0  0
 24 25  1  0  0  0
 24 28  1  0  0  0
 25 26  1  0  0  0
 26 27  1  0  0  0
 28 29  1  0  0  0
 28 49  1  0  0  0
 28 50  1  0  0  0
 29 30  1  0  0  0
 29 51  1  0  0  0
 29 52  1  0  0  0
 30 31  1  0  0  0
 30 53  1  0  0  0
 30 54  1  0  0  0
 31 32  1  0  0  0
 31 55  1  0  0  0
 31 56  1  0  0  0
 32 57  1  0  0  0
 32 58  1  0  0  0
 33 59  1  0  0  0
 33 60  1  0  0  0
M  CHG  1  15   1
M  END
> <i_i_glide_confnum>
25

> <i_i_glide_lignum>
1252

> <i_i_glide_posenum>
360

> <i_i_glide_rotatable_bonds>
4

> <i_m_Source_File_Index>
1143

> <b_m_subgroup_collapsed>
0

> <r_i_docking_score>
-4.47988

> <r_i_glide_ecoul>
0.680642

> <r_i_glide_eff_state_penalty>
0

> <r_i_glide_einternal>
0.428506

> <r_i_glide_emodel>
-50.6079

> <r_i_glide_energy>
-37.5678

> <r_i_glide_erotb>
0.266469

> <r_i_glide_esite>
-0.100115

> <r_i_glide_evdw>
-38.2484

> <r_i_glide_gscore>
-4.47988

> <r_i_glide_hbond>
0

> <r_i_glide_ligand_efficiency>
-0.135754

> <r_i_glide_ligand_efficiency_ln>
-0.996302

> <r_i_glide_ligand_efficiency_sa>
-0.435435

> <r_i_glide_lipo>
-2.64932

> <r_i_glide_metal>
0

> <r_i_glide_rewards>
-0.186588

> <s_i_glide_gridfile>
wee1_glide-grid

> <s_m_Source_File>
wee1_decoys_glide_SP.sdf

> <s_m_Source_Path>
/Users/zhangxujun/Desktop

> <s_m_entry_id>
1418

> <s_m_entry_name>
wee1_decoys_glide_SP.1143

> <s_m_subgroup_title>
wee1_decoys_glide_SP

> <s_m_subgroupid>
wee1_decoys_glide_SP


$$$$
