@<TRIPOS>MOLECULE
ZINC52342156_1866
43   45    1
SMALL
USER_CHARGES


@<TRIPOS>ATOM
      1 C1          3.5082   55.1796   25.6521 C.3       1 UNK         0.0000 
      2 C2          4.3544   53.9182   25.4611 C.3       1 UNK         0.0000 
      3 H3          3.7076   53.0641   25.2978 H         1 UNK         0.0000 
      4 C4          5.2396   53.9506   24.1505 C.3       1 UNK         0.0000 
      5 C5          4.3199   53.9891   22.8953 C.3       1 UNK         0.0000 
      6 C6          5.0872   53.8496   21.5724 C.3       1 UNK         0.0000 
      7 C7          6.1752   54.9304   21.4454 C.3       1 UNK         0.0000 
      8 C8          7.1025   54.9806   22.6762 C.3       1 UNK         0.0000 
      9 C9          6.3325   55.0576   24.0147 C.3       1 UNK         0.0000 
     10 N10         5.0167   53.6536   26.7508 N.pl3     1 UNK         0.0000 
     11 C11         4.4738   53.3036   27.9968 C.ar      1 UNK         0.0000 
     12 N12         5.4528   53.3186   28.8690 N.2       1 UNK         0.0000 
     13 N13         6.6152   53.6695   28.1996 N.2       1 UNK         0.0000 
     14 N14         6.3355   53.8621   26.8737 N.2       1 UNK         0.0000 
     15 C15         3.0420   52.9693   28.4196 C.ar      1 UNK         0.0000 
     16 C16         1.9896   52.7170   27.5202 C.ar      1 UNK         0.0000 
     17 C17         0.7103   52.3797   27.9677 C.ar      1 UNK         0.0000 
     18 C18         0.4380   52.3097   29.3278 C.ar      1 UNK         0.0000 
     19 C19         1.4478   52.5646   30.2486 C.ar      1 UNK         0.0000 
     20 C20         2.7371   52.8758   29.7972 C.ar      1 UNK         0.0000 
     21 N21         1.1461   52.4962   31.6102 N.pl3     1 UNK         0.0000 
     22 N22        -0.3000   52.0915   27.0538 N.pl3     1 UNK         0.0000 
     23 H23         2.7839   55.2959   24.8483 H         1 UNK         0.0000 
     24 H24         2.9819   55.1575   26.6046 H         1 UNK         0.0000 
     25 H25         4.1585   56.0500   25.6819 H         1 UNK         0.0000 
     26 H26         5.7811   53.0085   24.0823 H         1 UNK         0.0000 
     27 H27         3.7194   54.8967   22.8770 H         1 UNK         0.0000 
     28 H28         3.5902   53.1814   22.9502 H         1 UNK         0.0000 
     29 H29         4.3946   53.9271   20.7323 H         1 UNK         0.0000 
     30 H30         5.5192   52.8516   21.5100 H         1 UNK         0.0000 
     31 H31         5.7036   55.9024   21.2994 H         1 UNK         0.0000 
     32 H32         6.7643   54.7614   20.5436 H         1 UNK         0.0000 
     33 H33         7.7721   55.8353   22.5816 H         1 UNK         0.0000 
     34 H34         7.7394   54.0963   22.6877 H         1 UNK         0.0000 
     35 H35         7.0571   55.0135   24.8232 H         1 UNK         0.0000 
     36 H36         5.9043   56.0468   24.1240 H         1 UNK         0.0000 
     37 H37         2.1314   52.7470   26.4600 H         1 UNK         0.0000 
     38 H38        -0.5532   52.0489   29.6680 H         1 UNK         0.0000 
     39 H39         3.5112   53.0490   30.5287 H         1 UNK         0.0000 
     40 H40         1.8861   52.4954   32.2971 H         1 UNK         0.0000 
     41 H41         0.2035   52.2342   31.8952 H         1 UNK         0.0000 
     42 H42        -1.0623   51.5373   27.4174 H         1 UNK         0.0000 
     43 H43        -0.0241   51.9359   26.0953 H         1 UNK         0.0000 
@<TRIPOS>BOND
     1    1    2 1    
     2    1   23 1    
     3    1   24 1    
     4    1   25 1    
     5    2    3 1    
     6    2    4 1    
     7    2   10 1    
     8    4    9 1    
     9    4    5 1    
    10    4   26 1    
    11    5    6 1    
    12    5   27 1    
    13    5   28 1    
    14    6    7 1    
    15    6   29 1    
    16    6   30 1    
    17    7    8 1    
    18    7   31 1    
    19    7   32 1    
    20    8    9 1    
    21    8   33 1    
    22    8   34 1    
    23    9   35 1    
    24    9   36 1    
    25   10   14 ar   
    26   10   11 ar   
    27   11   12 ar   
    28   11   15 1    
    29   12   13 ar   
    30   13   14 ar   
    31   15   20 ar   
    32   15   16 ar   
    33   16   17 ar   
    34   16   37 1    
    35   17   18 ar   
    36   17   22 1    
    37   18   19 ar   
    38   18   38 1    
    39   19   20 ar   
    40   19   21 1    
    41   20   39 1    
    42   21   40 1    
    43   21   41 1    
    44   22   42 1    
    45   22   43 1    
@<TRIPOS>SUBSTRUCTURE
     1 UNK         1 GROUP             0       ****    0 ROOT    
