ZINC12570799_417
                    3D
 Schrodinger Suite 2024-2.
 38 39  0  0  1  0            999 V2000
   -0.3783   52.0337   28.0115 C   0  0  0  0  0  0
    0.7605   51.7208   27.0203 C   0  0  1  0  0  0
    1.5627   51.2013   27.5478 H   0  0  0  0  0  0
    0.3040   50.7903   25.8667 C   0  0  0  0  0  0
    0.3264   51.1855   24.6976 O   0  0  0  0  0  0
   -0.0963   49.5470   26.2255 N   0  0  0  0  0  0
   -0.5286   48.5937   25.2816 N   0  0  0  0  0  0
   -1.7317   48.6467   24.6286 C   0  0  0  0  0  0
   -2.0960   47.3217   23.6739 S   0  0  0  0  0  0
   -2.5116   49.7627   24.8445 N   0  0  0  0  0  0
   -3.6864   50.1839   24.3142 C   0  0  0  0  0  0
   -4.4146   49.5549   23.5427 O   0  0  0  0  0  0
   -4.0540   51.5083   24.7507 C   0  0  0  0  0  0
   -3.2989   52.5773   25.2324 C   0  0  0  0  0  0
   -4.1817   53.6400   25.4324 C   0  0  0  0  0  0
   -5.4203   53.2105   24.9921 C   0  0  0  0  0  0
   -5.3372   51.9238   24.5643 O   0  0  0  0  0  0
   -7.1071   54.0840   24.8838 Br  0  0  0  0  0  0
    1.1768   52.9734   26.4579 O   0  0  0  0  0  0
    2.4759   53.4175   26.6143 C   0  0  0  0  0  0
    3.2068   53.2384   27.7985 C   0  0  0  0  0  0
    4.5238   53.6961   27.8971 C   0  0  0  0  0  0
    5.1220   54.3354   26.8117 C   0  0  0  0  0  0
    4.3991   54.5346   25.6388 C   0  0  0  0  0  0
    3.0808   54.0898   25.5420 C   0  0  0  0  0  0
    2.2104   54.3717   24.0732 Cl  0  0  0  0  0  0
    6.7504   54.8920   26.9160 Cl  0  0  0  0  0  0
   -0.7776   51.1318   28.4786 H   0  0  0  0  0  0
   -0.0172   52.6748   28.8181 H   0  0  0  0  0  0
   -1.2056   52.5525   27.5279 H   0  0  0  0  0  0
   -0.2641   49.2386   27.1799 H   0  0  0  0  0  0
   -0.2520   47.6775   25.6108 H   0  0  0  0  0  0
   -2.1054   50.4201   25.4897 H   0  0  0  0  0  0
   -2.2357   52.5863   25.4238 H   0  0  0  0  0  0
   -3.9452   54.6177   25.8243 H   0  0  0  0  0  0
    2.7595   52.7494   28.6487 H   0  0  0  0  0  0
    5.0816   53.5482   28.8098 H   0  0  0  0  0  0
    4.8596   55.0352   24.8007 H   0  0  0  0  0  0
  1  2  1  0  0  0
  1 28  1  0  0  0
  1 29  1  0  0  0
  1 30  1  0  0  0
  2  3  1  0  0  0
  2  4  1  0  0  0
  2 19  1  0  0  0
  4  5  2  0  0  0
  4  6  1  0  0  0
  6  7  1  0  0  0
  6 31  1  0  0  0
  7  8  1  0  0  0
  7 32  1  0  0  0
  8  9  2  0  0  0
  8 10  1  0  0  0
 10 11  1  0  0  0
 10 33  1  0  0  0
 11 12  2  0  0  0
 11 13  1  0  0  0
 13 17  1  0  0  0
 13 14  2  0  0  0
 14 15  1  0  0  0
 14 34  1  0  0  0
 15 16  2  0  0  0
 15 35  1  0  0  0
 16 17  1  0  0  0
 16 18  1  0  0  0
 19 20  1  0  0  0
 20 25  2  0  0  0
 20 21  1  0  0  0
 21 22  2  0  0  0
 21 36  1  0  0  0
 22 23  1  0  0  0
 22 37  1  0  0  0
 23 24  2  0  0  0
 23 27  1  0  0  0
 24 25  1  0  0  0
 24 38  1  0  0  0
 25 26  1  0  0  0
M  END
> <i_i_glide_confnum>
3

> <i_i_glide_lignum>
418

> <i_i_glide_posenum>
167

> <i_i_glide_rotatable_bonds>
9

> <i_m_Source_File_Index>
742

> <b_m_subgroup_collapsed>
0

> <r_i_docking_score>
-4.89252

> <r_i_glide_ecoul>
-4.84185

> <r_i_glide_eff_state_penalty>
0

> <r_i_glide_einternal>
2.80138

> <r_i_glide_emodel>
-53.7633

> <r_i_glide_energy>
-40.103

> <r_i_glide_erotb>
0.613334

> <r_i_glide_esite>
-0.2856

> <r_i_glide_evdw>
-35.2612

> <r_i_glide_gscore>
-4.89252

> <r_i_glide_hbond>
-0.389332

> <r_i_glide_ligand_efficiency>
-0.188174

> <r_i_glide_ligand_efficiency_ln>
-1.14899

> <r_i_glide_ligand_efficiency_sa>
-0.557465

> <r_i_glide_lipo>
-2.16399

> <r_i_glide_metal>
0

> <r_i_glide_rewards>
-0.177602

> <s_i_glide_gridfile>
wee1_glide-grid

> <s_m_Source_File>
wee1_decoys_glide_SP.sdf

> <s_m_Source_Path>
/Users/zhangxujun/Desktop

> <s_m_entry_id>
1017

> <s_m_entry_name>
wee1_decoys_glide_SP.742

> <s_m_subgroup_title>
wee1_decoys_glide_SP

> <s_m_subgroupid>
wee1_decoys_glide_SP


$$$$
