@<TRIPOS>MOLECULE
ZINC40003429_993
57   62    1
SMALL
USER_CHARGES


@<TRIPOS>ATOM
      1 C1          1.0775   52.6721   29.8820 C.3       1 UNK         0.0000 
      2 C2          1.5079   52.8937   28.4424 C.ar      1 UNK         0.0000 
      3 C3          0.6700   52.4861   27.4000 C.ar      1 UNK         0.0000 
      4 C4          1.0224   52.6813   26.0630 C.ar      1 UNK         0.0000 
      5 C5          2.2473   53.2969   25.7784 C.ar      1 UNK         0.0000 
      6 C6          3.0993   53.6966   26.8359 C.ar      1 UNK         0.0000 
      7 C7          2.7338   53.5117   28.1765 C.ar      1 UNK         0.0000 
      8 S8          4.5649   54.3701   26.1470 S.3       1 UNK         0.0000 
      9 C9          3.9328   54.0092   24.5310 C.2       1 UNK         0.0000 
     10 N10         2.7161   53.5362   24.5273 N.2       1 UNK         0.0000 
     11 N11         4.6855   54.2040   23.3515 N.am      1 UNK         0.0000 
     12 C12         4.1008   54.2001   21.9943 C.3       1 UNK         0.0000 
     13 H13         3.3464   54.9890   21.9831 H         1 UNK         0.0000 
     14 C14         5.2471   54.6352   21.1045 C.2       1 UNK         0.0000 
     15 C15         6.2915   54.8660   21.9170 C.2       1 UNK         0.0000 
     16 C16         6.0156   54.5011   23.2986 C.2       1 UNK         0.0000 
     17 O17         6.8067   54.5024   24.2481 O.2       1 UNK         0.0000 
     18 O18         7.4738   55.2967   21.6372 O.co2     1 UNK         0.0000 
     19 C19         5.1145   54.7708   19.6354 C.2       1 UNK         0.0000 
     20 O20         4.0748   54.4899   19.0473 O.2       1 UNK         0.0000 
     21 C21         6.2732   55.1905   18.8596 C.ar      1 UNK         0.0000 
     22 C22         6.8927   56.4371   18.7476 C.ar      1 UNK         0.0000 
     23 N23         7.9823   56.3926   18.0105 N.2       1 UNK         0.0000 
     24 C24         8.0739   55.1099   17.5755 C.ar      1 UNK         0.0000 
     25 N25         6.9931   54.3402   18.0490 N.pl3     1 UNK         0.0000 
     26 C26         6.8372   53.0231   17.6930 C.ar      1 UNK         0.0000 
     27 C27         7.7897   52.4186   16.8802 C.ar      1 UNK         0.0000 
     28 C28         8.8847   53.1479   16.4284 C.ar      1 UNK         0.0000 
     29 C29         9.0503   54.4989   16.7567 C.ar      1 UNK         0.0000 
     30 C30        10.2633   55.2467   16.2298 C.3       1 UNK         0.0000 
     31 C31         6.4585   57.7561   19.3320 C.3       1 UNK         0.0000 
     32 C32         3.3373   52.9250   21.5799 C.ar      1 UNK         0.0000 
     33 C33         1.9447   52.8968   21.7249 C.ar      1 UNK         0.0000 
     34 C34         1.2027   51.8017   21.2961 C.ar      1 UNK         0.0000 
     35 C35         1.8487   50.7423   20.6718 C.ar      1 UNK         0.0000 
     36 C36         3.2256   50.7748   20.4815 C.ar      1 UNK         0.0000 
     37 C37         3.9766   51.8525   20.9477 C.ar      1 UNK         0.0000 
     38 F38         1.1312   49.6835   20.2325 F         1 UNK         0.0000 
     39 H39        -0.0070   52.5839   29.9678 H         1 UNK         0.0000 
     40 H40         1.5368   51.7696   30.2850 H         1 UNK         0.0000 
     41 H41         1.3716   53.5164   30.5072 H         1 UNK         0.0000 
     42 H42        -0.2705   52.0041   27.6278 H         1 UNK         0.0000 
     43 H43         0.3691   52.3570   25.2675 H         1 UNK         0.0000 
     44 H44         3.3908   53.8195   28.9762 H         1 UNK         0.0000 
     45 H45         5.9731   52.4978   18.0795 H         1 UNK         0.0000 
     46 H46         7.6809   51.3773   16.6093 H         1 UNK         0.0000 
     47 H47         9.6158   52.6505   15.8066 H         1 UNK         0.0000 
     48 H48         9.9449   56.0962   15.6257 H         1 UNK         0.0000 
     49 H49        10.9133   54.6164   15.6229 H         1 UNK         0.0000 
     50 H50        10.8473   55.6380   17.0636 H         1 UNK         0.0000 
     51 H51         6.3044   57.6789   20.4069 H         1 UNK         0.0000 
     52 H52         7.1747   58.5605   19.1581 H         1 UNK         0.0000 
     53 H53         5.5155   58.0677   18.8811 H         1 UNK         0.0000 
     54 H54         1.4314   53.7362   22.1694 H         1 UNK         0.0000 
     55 H55         0.1316   51.7833   21.4246 H         1 UNK         0.0000 
     56 H56         3.6986   49.9726   19.9407 H         1 UNK         0.0000 
     57 H57         5.0424   51.8743   20.7748 H         1 UNK         0.0000 
@<TRIPOS>BOND
     1    1    2 1    
     2    1   39 1    
     3    1   40 1    
     4    1   41 1    
     5    2    7 ar   
     6    2    3 ar   
     7    3    4 ar   
     8    3   42 1    
     9    4    5 ar   
    10    4   43 1    
    11    5   10 1    
    12    5    6 ar   
    13    6    7 ar   
    14    6    8 1    
    15    7   44 1    
    16    8    9 1    
    17    9   10 2    
    18    9   11 am   BACKBONE|DICT|INTERRES
    19   11   16 am   BACKBONE|DICT|INTERRES
    20   11   12 1    
    21   12   13 1    
    22   12   14 1    
    23   12   32 1    
    24   14   15 2    
    25   14   19 1    
    26   15   16 1    
    27   15   18 1    
    28   16   17 2    
    29   19   20 2    
    30   19   21 1    
    31   21   25 ar   
    32   21   22 ar   
    33   22   23 ar   
    34   22   31 1    
    35   23   24 ar   
    36   24   29 ar   
    37   24   25 ar   
    38   25   26 ar   
    39   26   27 ar   
    40   26   45 1    
    41   27   28 ar   
    42   27   46 1    
    43   28   29 ar   
    44   28   47 1    
    45   29   30 1    
    46   30   48 1    
    47   30   49 1    
    48   30   50 1    
    49   31   51 1    
    50   31   52 1    
    51   31   53 1    
    52   32   37 ar   
    53   32   33 ar   
    54   33   34 ar   
    55   33   54 1    
    56   34   35 ar   
    57   34   55 1    
    58   35   36 ar   
    59   35   38 1    
    60   36   37 ar   
    61   36   56 1    
    62   37   57 1    
@<TRIPOS>SUBSTRUCTURE
     1 UNK         1 GROUP             0       ****    0 ROOT    
