@<TRIPOS>MOLECULE
ZINC35992899_881
75   77    1
SMALL
USER_CHARGES


@<TRIPOS>ATOM
      1 C1         -1.9952   53.0218   23.5741 C.3       1 UNK         0.0000 
      2 C2         -0.5917   52.4040   23.4430 C.3       1 UNK         0.0000 
      3 N3          0.2549   52.4222   24.6754 N.am      1 UNK         0.0000 
      4 C4          1.4401   53.1572   24.8625 C.2       1 UNK         0.0000 
      5 C5          2.1645   53.0599   26.0273 C.2       1 UNK         0.0000 
      6 C6          1.5968   52.2083   27.1912 C.3       1 UNK         0.0000 
      7 H7          2.4026   51.6221   27.6393 H         1 UNK         0.0000 
      8 N8          0.6195   51.2542   26.6457 N.am      1 UNK         0.0000 
      9 C9         -0.1584   51.4504   25.5645 C.2       1 UNK         0.0000 
     10 O10        -1.1721   50.7544   25.4929 O.2       1 UNK         0.0000 
     11 C11         1.1163   52.9045   28.4734 C.ar      1 UNK         0.0000 
     12 C12         1.2329   54.2855   28.6823 C.ar      1 UNK         0.0000 
     13 C13         0.9488   54.8249   29.9334 C.ar      1 UNK         0.0000 
     14 C14         0.5005   53.9932   30.9546 C.ar      1 UNK         0.0000 
     15 C15         0.3040   52.6381   30.7386 C.ar      1 UNK         0.0000 
     16 C16         0.6122   52.0962   29.4994 C.ar      1 UNK         0.0000 
     17 F17         0.2852   54.4968   32.1837 F         1 UNK         0.0000 
     18 C18         3.4943   53.6970   26.3495 C.2       1 UNK         0.0000 
     19 O19         4.0144   53.5913   27.4641 O.2       1 UNK         0.0000 
     20 O20         4.1083   54.3734   25.3487 O.3       1 UNK         0.0000 
     21 C21         5.3620   55.0370   25.5368 C.3       1 UNK         0.0000 
     22 C22         6.5503   54.0927   25.3093 C.3       1 UNK         0.0000 
     23 C23         1.8924   53.9914   23.6430 C.3       1 UNK         0.0000 
     24 N24         2.9493   53.2531   22.7704 N.4       1 UNK         0.0000 
     25 C25         3.8392   54.2381   21.9707 C.3       1 UNK         0.0000 
     26 C26         5.0613   53.5845   21.2913 C.3       1 UNK         0.0000 
     27 C27         4.7986   52.9535   19.9048 C.3       1 UNK         0.0000 
     28 N28         3.5987   52.0960   19.8381 N.am      1 UNK         0.0000 
     29 C29         3.2953   51.3304   21.0550 C.3       1 UNK         0.0000 
     30 C30         2.3269   52.0650   21.9921 C.3       1 UNK         0.0000 
     31 C31         2.6849   52.1779   18.8272 C.2       1 UNK         0.0000 
     32 O32         1.5533   51.6928   18.9184 O.2       1 UNK         0.0000 
     33 N33         3.1759   52.6240   17.6516 N.am      1 UNK         0.0000 
     34 C34         2.4569   52.9141   16.4034 C.3       1 UNK         0.0000 
     35 C35         3.4725   53.5304   15.4193 C.3       1 UNK         0.0000 
     36 C36         1.3162   53.9373   16.6318 C.3       1 UNK         0.0000 
     37 C37         1.8942   51.6186   15.7749 C.3       1 UNK         0.0000 
     38 H38        -2.5740   52.8335   22.6699 H         1 UNK         0.0000 
     39 H39        -2.5653   52.6187   24.4109 H         1 UNK         0.0000 
     40 H40        -1.9332   54.0970   23.6830 H         1 UNK         0.0000 
     41 H41        -0.1278   52.8959   22.6014 H         1 UNK         0.0000 
     42 H42        -0.6938   51.3747   23.0903 H         1 UNK         0.0000 
     43 H43         0.2522   50.5568   27.2787 H         1 UNK         0.0000 
     44 H44         1.5960   54.9433   27.9076 H         1 UNK         0.0000 
     45 H45         1.0872   55.8800   30.1196 H         1 UNK         0.0000 
     46 H46        -0.0670   52.0137   31.5389 H         1 UNK         0.0000 
     47 H47         0.4884   51.0340   29.3457 H         1 UNK         0.0000 
     48 H48         5.4234   55.8563   24.8211 H         1 UNK         0.0000 
     49 H49         5.4206   55.4928   26.5272 H         1 UNK         0.0000 
     50 H50         7.5002   54.6258   25.3691 H         1 UNK         0.0000 
     51 H51         6.5696   53.2990   26.0576 H         1 UNK         0.0000 
     52 H52         6.5000   53.6299   24.3235 H         1 UNK         0.0000 
     53 H53         2.3421   54.9164   23.9918 H         1 UNK         0.0000 
     54 H54         1.1100   54.3594   22.9824 H         1 UNK         0.0000 
     55 H55         4.2115   54.8968   22.7487 H         1 UNK         0.0000 
     56 H56         3.1985   54.8071   21.2956 H         1 UNK         0.0000 
     57 H57         5.4885   52.8345   21.9598 H         1 UNK         0.0000 
     58 H58         5.8496   54.3308   21.1809 H         1 UNK         0.0000 
     59 H59         5.6547   52.3135   19.6843 H         1 UNK         0.0000 
     60 H60         4.7623   53.7494   19.1594 H         1 UNK         0.0000 
     61 H61         2.7679   50.4317   20.7264 H         1 UNK         0.0000 
     62 H62         4.1808   50.9205   21.5394 H         1 UNK         0.0000 
     63 H63         1.4856   52.4693   21.4295 H         1 UNK         0.0000 
     64 H64         1.9435   51.3807   22.7500 H         1 UNK         0.0000 
     65 H65         4.1803   52.7016   17.5896 H         1 UNK         0.0000 
     66 H66         3.0088   53.7770   14.4639 H         1 UNK         0.0000 
     67 H67         4.2948   52.8432   15.2107 H         1 UNK         0.0000 
     68 H68         3.9086   54.4504   15.8123 H         1 UNK         0.0000 
     69 H69         0.5459   53.5464   17.2963 H         1 UNK         0.0000 
     70 H70         1.6875   54.8613   17.0777 H         1 UNK         0.0000 
     71 H71         0.8265   54.2012   15.6943 H         1 UNK         0.0000 
     72 H72         1.1406   51.1487   16.4059 H         1 UNK         0.0000 
     73 H73         1.4277   51.8117   14.8078 H         1 UNK         0.0000 
     74 H74         2.6851   50.8837   15.6158 H         1 UNK         0.0000 
     75 H75         3.5916   52.8463   23.4380 H         1 UNK         0.0000 
@<TRIPOS>BOND
     1    1    2 1    
     2    1   38 1    
     3    1   39 1    
     4    1   40 1    
     5    2    3 1    
     6    2   41 1    
     7    2   42 1    
     8    3    9 am   BACKBONE|DICT|INTERRES
     9    3    4 1    
    10    4    5 2    
    11    4   23 1    
    12    5    6 1    
    13    5   18 1    
    14    6    7 1    
    15    6    8 1    
    16    6   11 1    
    17    8    9 am   BACKBONE|DICT|INTERRES
    18    8   43 1    
    19    9   10 2    
    20   11   16 ar   
    21   11   12 ar   
    22   12   13 ar   
    23   12   44 1    
    24   13   14 ar   
    25   13   45 1    
    26   14   15 ar   
    27   14   17 1    
    28   15   16 ar   
    29   15   46 1    
    30   16   47 1    
    31   18   19 2    
    32   18   20 1    
    33   20   21 1    
    34   21   22 1    
    35   21   48 1    
    36   21   49 1    
    37   22   50 1    
    38   22   51 1    
    39   22   52 1    
    40   23   24 1    
    41   23   53 1    
    42   23   54 1    
    43   24   30 1    
    44   24   25 1    
    45   24   75 1    
    46   25   26 1    
    47   25   55 1    
    48   25   56 1    
    49   26   27 1    
    50   26   57 1    
    51   26   58 1    
    52   27   28 1    
    53   27   59 1    
    54   27   60 1    
    55   28   29 1    
    56   28   31 am   BACKBONE|DICT|INTERRES
    57   29   30 1    
    58   29   61 1    
    59   29   62 1    
    60   30   63 1    
    61   30   64 1    
    62   31   32 2    
    63   31   33 am   BACKBONE|DICT|INTERRES
    64   33   34 1    
    65   33   65 1    
    66   34   35 1    
    67   34   36 1    
    68   34   37 1    
    69   35   66 1    
    70   35   67 1    
    71   35   68 1    
    72   36   69 1    
    73   36   70 1    
    74   36   71 1    
    75   37   72 1    
    76   37   73 1    
    77   37   74 1    
@<TRIPOS>SUBSTRUCTURE
     1 UNK         1 GROUP             0       ****    0 ROOT    
