@<TRIPOS>MOLECULE
ZINC34998817_5395
73   75    1
SMALL
USER_CHARGES


@<TRIPOS>ATOM
      1 C1         -3.3250   46.4190   19.2556 C.3       1 UNK         0.0000 
      2 C2         -3.2076   47.8760   19.7302 C.3       1 UNK         0.0000 
      3 C3         -2.1418   48.7006   18.9555 C.3       1 UNK         0.0000 
      4 H4         -1.2878   48.0477   18.7655 H         1 UNK         0.0000 
      5 C5         -2.7003   49.0530   17.5559 C.3       1 UNK         0.0000 
      6 C6         -1.6141   49.9425   19.7730 C.3       1 UNK         0.0000 
      7 H7         -2.5042   50.4124   20.1954 H         1 UNK         0.0000 
      8 C8         -0.7616   49.5059   21.0185 C.2       1 UNK         0.0000 
      9 O9         -0.4667   48.3111   21.1398 O.2       1 UNK         0.0000 
     10 N10        -0.3721   50.4378   21.9376 N.am      1 UNK         0.0000 
     11 C11        -0.6277   51.8784   21.8209 C.3       1 UNK         0.0000 
     12 C12         0.7491   52.5243   21.5574 C.3       1 UNK         0.0000 
     13 N13         1.5437   52.2956   22.7775 N.am      1 UNK         0.0000 
     14 C14         1.8309   50.8688   23.0672 C.3       1 UNK         0.0000 
     15 H15         2.2766   50.7615   24.0510 H         1 UNK         0.0000 
     16 C16         0.4762   50.0839   23.1016 C.3       1 UNK         0.0000 
     17 C17         2.8136   50.2454   22.0628 C.3       1 UNK         0.0000 
     18 C18         1.8369   53.3698   23.5670 C.2       1 UNK         0.0000 
     19 O19         1.4611   54.5034   23.2824 O.2       1 UNK         0.0000 
     20 C20         2.6523   53.2718   24.8609 C.3       1 UNK         0.0000 
     21 C21         4.0350   53.9579   24.7158 C.3       1 UNK         0.0000 
     22 C22         4.6434   54.4626   26.0363 C.3       1 UNK         0.0000 
     23 C23         4.7342   53.4468   27.1813 C.3       1 UNK         0.0000 
     24 C24         5.7978   54.0001   28.1321 C.3       1 UNK         0.0000 
     25 C25         6.7022   54.8977   27.2776 C.3       1 UNK         0.0000 
     26 C26         6.0969   54.9296   25.8746 C.3       1 UNK         0.0000 
     27 N27        -0.8973   50.9111   18.9174 N.am      1 UNK         0.0000 
     28 C28        -1.3996   52.0923   18.5081 C.2       1 UNK         0.0000 
     29 O29        -2.5158   52.4982   18.8475 O.2       1 UNK         0.0000 
     30 N30        -0.5109   52.7931   17.7768 N.am      1 UNK         0.0000 
     31 C31        -0.6294   54.1103   17.2828 C.ar      1 UNK         0.0000 
     32 C32        -1.8638   54.7567   17.0822 C.ar      1 UNK         0.0000 
     33 C33        -1.9095   56.0775   16.6374 C.ar      1 UNK         0.0000 
     34 C34        -0.7272   56.7689   16.3803 C.ar      1 UNK         0.0000 
     35 C35         0.5007   56.1322   16.5502 C.ar      1 UNK         0.0000 
     36 C36         0.5552   54.8091   16.9944 C.ar      1 UNK         0.0000 
     37 Br37        2.2718   54.0045   17.2282 Br        1 UNK         0.0000 
     38 H38        -3.8907   45.8231   19.9732 H         1 UNK         0.0000 
     39 H39        -3.8400   46.3495   18.2965 H         1 UNK         0.0000 
     40 H40        -2.3412   45.9586   19.1479 H         1 UNK         0.0000 
     41 H41        -2.9938   47.8598   20.7986 H         1 UNK         0.0000 
     42 H42        -4.1812   48.3636   19.6442 H         1 UNK         0.0000 
     43 H43        -3.5821   49.6932   17.6289 H         1 UNK         0.0000 
     44 H44        -1.9636   49.5729   16.9407 H         1 UNK         0.0000 
     45 H45        -2.9818   48.1556   17.0000 H         1 UNK         0.0000 
     46 H46        -1.3923   52.1513   21.1017 H         1 UNK         0.0000 
     47 H47        -1.0338   52.2435   22.7660 H         1 UNK         0.0000 
     48 H48         1.2321   52.0576   20.6987 H         1 UNK         0.0000 
     49 H49         0.7047   53.5762   21.2817 H         1 UNK         0.0000 
     50 H50        -0.0574   50.3351   24.0188 H         1 UNK         0.0000 
     51 H51         0.6740   49.0124   23.1514 H         1 UNK         0.0000 
     52 H52         3.0307   49.2129   22.3379 H         1 UNK         0.0000 
     53 H53         2.4044   50.2032   21.0538 H         1 UNK         0.0000 
     54 H54         3.7493   50.8031   22.0258 H         1 UNK         0.0000 
     55 H55         2.0723   53.8113   25.6129 H         1 UNK         0.0000 
     56 H56         2.7181   52.2702   25.2601 H         1 UNK         0.0000 
     57 H57         4.7335   53.2956   24.2101 H         1 UNK         0.0000 
     58 H58         3.9624   54.8277   24.0586 H         1 UNK         0.0000 
     59 H59         4.0611   55.2992   26.4194 H         1 UNK         0.0000 
     60 H60         3.7738   53.2315   27.6513 H         1 UNK         0.0000 
     61 H61         5.1058   52.5004   26.7975 H         1 UNK         0.0000 
     62 H62         5.3278   54.5896   28.9215 H         1 UNK         0.0000 
     63 H63         6.3596   53.2020   28.6159 H         1 UNK         0.0000 
     64 H64         6.7043   55.9070   27.6816 H         1 UNK         0.0000 
     65 H65         7.7310   54.5351   27.2756 H         1 UNK         0.0000 
     66 H66         6.6482   54.2065   25.2690 H         1 UNK         0.0000 
     67 H67         6.1828   55.8908   25.3639 H         1 UNK         0.0000 
     68 H68         0.0193   50.6229   18.6065 H         1 UNK         0.0000 
     69 H69         0.4032   52.3831   17.6476 H         1 UNK         0.0000 
     70 H70        -2.8019   54.2479   17.2489 H         1 UNK         0.0000 
     71 H71        -2.8633   56.5627   16.4836 H         1 UNK         0.0000 
     72 H72        -0.7587   57.7937   16.0383 H         1 UNK         0.0000 
     73 H73         1.4154   56.6708   16.3469 H         1 UNK         0.0000 
@<TRIPOS>BOND
     1    1    2 1    
     2    1   38 1    
     3    1   39 1    
     4    1   40 1    
     5    2    3 1    
     6    2   41 1    
     7    2   42 1    
     8    3    4 1    
     9    3    5 1    
    10    3    6 1    
    11    5   43 1    
    12    5   44 1    
    13    5   45 1    
    14    6    7 1    
    15    6    8 1    
    16    6   27 1    
    17    8    9 2    
    18    8   10 am   BACKBONE|DICT|INTERRES
    19   10   16 1    
    20   10   11 1    
    21   11   12 1    
    22   11   46 1    
    23   11   47 1    
    24   12   13 1    
    25   12   48 1    
    26   12   49 1    
    27   13   14 1    
    28   13   18 am   BACKBONE|DICT|INTERRES
    29   14   15 1    
    30   14   16 1    
    31   14   17 1    
    32   16   50 1    
    33   16   51 1    
    34   17   52 1    
    35   17   53 1    
    36   17   54 1    
    37   18   19 2    
    38   18   20 1    
    39   20   21 1    
    40   20   55 1    
    41   20   56 1    
    42   21   22 1    
    43   21   57 1    
    44   21   58 1    
    45   22   26 1    
    46   22   23 1    
    47   22   59 1    
    48   23   24 1    
    49   23   60 1    
    50   23   61 1    
    51   24   25 1    
    52   24   62 1    
    53   24   63 1    
    54   25   26 1    
    55   25   64 1    
    56   25   65 1    
    57   26   66 1    
    58   26   67 1    
    59   27   28 am   BACKBONE|DICT|INTERRES
    60   27   68 1    
    61   28   29 2    
    62   28   30 am   BACKBONE|DICT|INTERRES
    63   30   31 1    
    64   30   69 1    
    65   31   36 ar   
    66   31   32 ar   
    67   32   33 ar   
    68   32   70 1    
    69   33   34 ar   
    70   33   71 1    
    71   34   35 ar   
    72   34   72 1    
    73   35   36 ar   
    74   35   73 1    
    75   36   37 1    
@<TRIPOS>SUBSTRUCTURE
     1 UNK         1 GROUP             0       ****    0 ROOT    
