@<TRIPOS>MOLECULE
ZINC59564713_2939
66   70    1
SMALL
USER_CHARGES


@<TRIPOS>ATOM
      1 C1         -4.5871   49.7048   29.3250 C.3       1 UNK         0.0000 
      2 C2         -4.7761   50.5223   28.0625 C.ar      1 UNK         0.0000 
      3 C3         -3.9492   50.8320   27.0426 C.ar      1 UNK         0.0000 
      4 C4         -4.6857   51.5906   26.0379 C.ar      1 UNK         0.0000 
      5 O5         -4.2858   52.0048   24.9477 O.2       1 UNK         0.0000 
      6 N6         -5.9244   51.7281   26.5548 N.pl3     1 UNK         0.0000 
      7 N7         -6.0094   51.0814   27.7851 N.pl3     1 UNK         0.0000 
      8 C8         -6.6405   51.9146   28.8132 C.3       1 UNK         0.0000 
      9 C9         -7.0473   52.3079   25.9122 C.ar      1 UNK         0.0000 
     10 C10        -8.2851   51.6532   25.9480 C.ar      1 UNK         0.0000 
     11 C11        -9.3961   52.2189   25.3269 C.ar      1 UNK         0.0000 
     12 C12        -9.2693   53.4406   24.6698 C.ar      1 UNK         0.0000 
     13 C13        -8.0449   54.1021   24.6291 C.ar      1 UNK         0.0000 
     14 C14        -6.9320   53.5357   25.2468 C.ar      1 UNK         0.0000 
     15 N15        -2.6206   50.4965   26.9217 N.am      1 UNK         0.0000 
     16 C16        -1.6087   51.3550   26.6488 C.2       1 UNK         0.0000 
     17 O17        -1.7637   52.5663   26.4891 O.2       1 UNK         0.0000 
     18 C18        -0.1901   50.7730   26.5969 C.3       1 UNK         0.0000 
     19 S19         1.0038   51.7742   25.6271 S.3       1 UNK         0.0000 
     20 C20         1.5322   52.9997   26.7567 C.2       1 UNK         0.0000 
     21 N21         0.8773   53.3114   27.8527 N.pl3     1 UNK         0.0000 
     22 C22         1.7784   53.9288   28.8043 C.3       1 UNK         0.0000 
     23 C23         1.1042   55.0569   29.6143 C.3       1 UNK         0.0000 
     24 C24        -0.0465   54.5027   30.4796 C.3       1 UNK         0.0000 
     25 C25         0.4028   53.3693   31.4105 C.3       1 UNK         0.0000 
     26 C26         1.2802   52.3118   30.7155 C.3       1 UNK         0.0000 
     27 C27         2.3735   52.9078   29.8006 C.3       1 UNK         0.0000 
     28 N28         2.7857   54.4844   27.9127 N.3       1 UNK         0.0000 
     29 N29         2.6584   53.7178   26.7425 N.pl3     1 UNK         0.0000 
     30 C30         3.6379   53.9434   25.7164 C.ar      1 UNK         0.0000 
     31 C31         3.2678   53.8695   24.3690 C.ar      1 UNK         0.0000 
     32 C32         4.2091   54.0965   23.3678 C.ar      1 UNK         0.0000 
     33 C33         5.5229   54.4068   23.7093 C.ar      1 UNK         0.0000 
     34 C34         5.9064   54.4917   25.0435 C.ar      1 UNK         0.0000 
     35 C35         4.9684   54.2590   26.0455 C.ar      1 UNK         0.0000 
     36 H36        -3.6658   49.1331   29.2845 H         1 UNK         0.0000 
     37 H37        -4.5525   50.3428   30.2088 H         1 UNK         0.0000 
     38 H38        -5.4024   48.9867   29.4419 H         1 UNK         0.0000 
     39 H39        -6.0951   52.8496   28.9498 H         1 UNK         0.0000 
     40 H40        -7.6733   52.1549   28.5599 H         1 UNK         0.0000 
     41 H41        -6.6677   51.3940   29.7704 H         1 UNK         0.0000 
     42 H42        -8.3908   50.7031   26.4505 H         1 UNK         0.0000 
     43 H43       -10.3481   51.7108   25.3522 H         1 UNK         0.0000 
     44 H44       -10.1283   53.8777   24.1820 H         1 UNK         0.0000 
     45 H45        -7.9518   55.0466   24.1109 H         1 UNK         0.0000 
     46 H46        -5.9841   54.0524   25.2020 H         1 UNK         0.0000 
     47 H47        -2.3620   49.5490   27.1908 H         1 UNK         0.0000 
     48 H48         0.1793   50.6864   27.6190 H         1 UNK         0.0000 
     49 H49        -0.1901   49.7541   26.2054 H         1 UNK         0.0000 
     50 H50         1.8334   55.5550   30.2582 H         1 UNK         0.0000 
     51 H51         0.7192   55.8322   28.9498 H         1 UNK         0.0000 
     52 H52        -0.4941   55.2948   31.0753 H         1 UNK         0.0000 
     53 H53        -0.8370   54.1256   29.8304 H         1 UNK         0.0000 
     54 H54         0.9222   53.7735   32.2759 H         1 UNK         0.0000 
     55 H55        -0.4955   52.8967   31.7989 H         1 UNK         0.0000 
     56 H56         1.7339   51.6741   31.4728 H         1 UNK         0.0000 
     57 H57         0.6267   51.6830   30.1104 H         1 UNK         0.0000 
     58 H58         2.8766   52.1019   29.2631 H         1 UNK         0.0000 
     59 H59         3.1468   53.3822   30.4070 H         1 UNK         0.0000 
     60 H60         2.5312   55.4451   27.7420 H         1 UNK         0.0000 
     61 H61         2.2492   53.6629   24.0775 H         1 UNK         0.0000 
     62 H62         3.9188   54.0442   22.3277 H         1 UNK         0.0000 
     63 H63         6.2528   54.5803   22.9326 H         1 UNK         0.0000 
     64 H64         6.9281   54.7243   25.2998 H         1 UNK         0.0000 
     65 H65         5.2845   54.3158   27.0788 H         1 UNK         0.0000 
     66 H66        -0.0486   52.9834   28.0901 H         1 UNK         0.0000 
@<TRIPOS>BOND
     1    1    2 1    
     2    1   36 1    
     3    1   37 1    
     4    1   38 1    
     5    2    7 ar   
     6    2    3 ar   
     7    3    4 ar   
     8    3   15 1    
     9    4    5 2    
    10    4    6 ar   
    11    6    7 1    
    12    6    9 1    
    13    7    8 1    
    14    8   39 1    
    15    8   40 1    
    16    8   41 1    
    17    9   14 ar   
    18    9   10 ar   
    19   10   11 ar   
    20   10   42 1    
    21   11   12 ar   
    22   11   43 1    
    23   12   13 ar   
    24   12   44 1    
    25   13   14 ar   
    26   13   45 1    
    27   14   46 1    
    28   15   16 am   BACKBONE|DICT|INTERRES
    29   15   47 1    
    30   16   17 2    
    31   16   18 1    
    32   18   19 1    
    33   18   48 1    
    34   18   49 1    
    35   19   20 1    
    36   20   29 1    
    37   20   21 2    
    38   21   22 1    
    39   21   66 1    
    40   22   27 1    
    41   22   23 1    
    42   22   28 1    
    43   23   24 1    
    44   23   50 1    
    45   23   51 1    
    46   24   25 1    
    47   24   52 1    
    48   24   53 1    
    49   25   26 1    
    50   25   54 1    
    51   25   55 1    
    52   26   27 1    
    53   26   56 1    
    54   26   57 1    
    55   27   58 1    
    56   27   59 1    
    57   28   29 1    
    58   28   60 1    
    59   29   30 1    
    60   30   35 ar   
    61   30   31 ar   
    62   31   32 ar   
    63   31   61 1    
    64   32   33 ar   
    65   32   62 1    
    66   33   34 ar   
    67   33   63 1    
    68   34   35 ar   
    69   34   64 1    
    70   35   65 1    
@<TRIPOS>SUBSTRUCTURE
     1 UNK         1 GROUP             0       ****    0 ROOT    
