@<TRIPOS>MOLECULE
ZINC39945664_193
54   58    1
SMALL
USER_CHARGES


@<TRIPOS>ATOM
      1 C1          5.4443   54.4399   25.6183 C.ar      1 UNK         0.0000 
      2 C2          6.4947   54.1789   24.7444 C.ar      1 UNK         0.0000 
      3 C3          6.2382   53.9873   23.3902 C.ar      1 UNK         0.0000 
      4 C4          4.9329   54.0966   22.8874 C.ar      1 UNK         0.0000 
      5 C5          3.8874   54.3566   23.7831 C.ar      1 UNK         0.0000 
      6 C6          4.1382   54.5127   25.1439 C.ar      1 UNK         0.0000 
      7 C7          4.5965   53.8665   21.3966 C.3       1 UNK         0.0000 
      8 H8          3.5700   54.1991   21.2380 H         1 UNK         0.0000 
      9 C9          5.4663   54.6842   20.3997 C.2       1 UNK         0.0000 
     10 O10         6.5451   55.1713   20.7433 O.2       1 UNK         0.0000 
     11 C11         4.9169   54.9710   19.0695 C.2       1 UNK         0.0000 
     12 C12         5.1040   56.0566   18.2917 C.2       1 UNK         0.0000 
     13 C13         5.9204   57.2701   18.4731 C.2       1 UNK         0.0000 
     14 C14         5.9012   58.2596   17.5585 C.2       1 UNK         0.0000 
     15 C15         5.0376   58.1008   16.3983 C.2       1 UNK         0.0000 
     16 C16         4.2854   56.9838   16.2074 C.2       1 UNK         0.0000 
     17 C17         4.3090   55.9416   17.1453 C.2       1 UNK         0.0000 
     18 N18         3.6572   54.7991   17.1427 N.pl3     1 UNK         0.0000 
     19 C19         3.9838   54.0160   18.3500 C.3       1 UNK         0.0000 
     20 S20         4.6968   52.0931   20.9435 S.3       1 UNK         0.0000 
     21 C21         3.0571   51.5711   21.3793 C.ar      1 UNK         0.0000 
     22 N22         2.3577   52.0963   22.3553 N.2       1 UNK         0.0000 
     23 N23         1.1521   51.4222   22.4420 N.2       1 UNK         0.0000 
     24 C24         1.1771   50.4769   21.5363 C.ar      1 UNK         0.0000 
     25 N25         2.3414   50.5398   20.7982 N.pl3     1 UNK         0.0000 
     26 N26         2.7044   49.7194   19.7394 N.3       1 UNK         0.0000 
     27 C27         0.0709   49.4477   21.3347 C.3       1 UNK         0.0000 
     28 C28        -0.7435   49.1499   22.5965 C.ar      1 UNK         0.0000 
     29 C29        -0.0957   48.6858   23.7497 C.ar      1 UNK         0.0000 
     30 C30        -0.8162   48.4428   24.9185 C.ar      1 UNK         0.0000 
     31 C31        -2.1922   48.6587   24.9463 C.ar      1 UNK         0.0000 
     32 C32        -2.8477   49.1161   23.8024 C.ar      1 UNK         0.0000 
     33 C33        -2.1287   49.3635   22.6313 C.ar      1 UNK         0.0000 
     34 F34        -2.7843   49.8201   21.5383 F         1 UNK         0.0000 
     35 H35         5.6417   54.5723   26.6724 H         1 UNK         0.0000 
     36 H36         7.5042   54.1064   25.1138 H         1 UNK         0.0000 
     37 H37         7.0679   53.7546   22.7427 H         1 UNK         0.0000 
     38 H38         2.8696   54.4384   23.4306 H         1 UNK         0.0000 
     39 H39         3.3226   54.7044   25.8255 H         1 UNK         0.0000 
     40 H40         6.5548   57.4002   19.3368 H         1 UNK         0.0000 
     41 H41         6.4843   59.1630   17.6845 H         1 UNK         0.0000 
     42 H42         4.9869   58.9097   15.6813 H         1 UNK         0.0000 
     43 H43         3.6571   56.9287   15.3292 H         1 UNK         0.0000 
     44 H44         3.0569   53.7932   18.8786 H         1 UNK         0.0000 
     45 H45         4.4623   53.0848   18.0337 H         1 UNK         0.0000 
     46 H46         2.9487   50.2320   18.9010 H         1 UNK         0.0000 
     47 H47         3.4297   49.0630   19.9976 H         1 UNK         0.0000 
     48 H48        -0.5766   49.7576   20.5138 H         1 UNK         0.0000 
     49 H49         0.4965   48.5007   21.0018 H         1 UNK         0.0000 
     50 H50         0.9745   48.5303   23.7485 H         1 UNK         0.0000 
     51 H51        -0.3103   48.0976   25.8105 H         1 UNK         0.0000 
     52 H52        -2.7414   48.4799   25.8607 H         1 UNK         0.0000 
     53 H53        -3.9133   49.2883   23.8237 H         1 UNK         0.0000 
     54 H54         3.0182   54.4861   16.4162 H         1 UNK         0.0000 
@<TRIPOS>BOND
     1    1    6 ar   
     2    1    2 ar   
     3    1   35 1    
     4    2    3 ar   
     5    2   36 1    
     6    3    4 ar   
     7    3   37 1    
     8    4    5 ar   
     9    4    7 1    
    10    5    6 ar   
    11    5   38 1    
    12    6   39 1    
    13    7    8 1    
    14    7    9 1    
    15    7   20 1    
    16    9   10 2    
    17    9   11 1    
    18   11   19 1    
    19   11   12 2    
    20   12   17 1    
    21   12   13 1    
    22   13   14 2    
    23   13   40 1    
    24   14   15 1    
    25   14   41 1    
    26   15   16 2    
    27   15   42 1    
    28   16   17 1    
    29   16   43 1    
    30   17   18 2    
    31   18   19 1    
    32   18   54 1    
    33   19   44 1    
    34   19   45 1    
    35   20   21 1    
    36   21   25 ar   
    37   21   22 ar   
    38   22   23 ar   
    39   23   24 ar   
    40   24   25 ar   
    41   24   27 1    
    42   25   26 1    
    43   26   46 1    
    44   26   47 1    
    45   27   28 1    
    46   27   48 1    
    47   27   49 1    
    48   28   33 ar   
    49   28   29 ar   
    50   29   30 ar   
    51   29   50 1    
    52   30   31 ar   
    53   30   51 1    
    54   31   32 ar   
    55   31   52 1    
    56   32   33 ar   
    57   32   53 1    
    58   33   34 1    
@<TRIPOS>SUBSTRUCTURE
     1 UNK         1 GROUP             0       ****    0 ROOT    
