@<TRIPOS>MOLECULE
ZINC39346845_1637
45   47    1
SMALL
USER_CHARGES


@<TRIPOS>ATOM
      1 C1          7.0946   55.5587   18.6957 C.3       1 UNK         0.0000 
      2 C2          6.6364   55.5915   20.1484 C.2       1 UNK         0.0000 
      3 O3          7.0350   56.4966   20.8817 O.2       1 UNK         0.0000 
      4 N4          5.7874   54.6141   20.5243 N.am      1 UNK         0.0000 
      5 C5          5.2561   54.4230   21.8075 C.ar      1 UNK         0.0000 
      6 C6          3.9042   54.0969   21.8990 C.ar      1 UNK         0.0000 
      7 C7          3.3082   53.9503   23.1476 C.ar      1 UNK         0.0000 
      8 C8          4.0645   54.0967   24.3125 C.ar      1 UNK         0.0000 
      9 C9          5.4368   54.3792   24.2190 C.ar      1 UNK         0.0000 
     10 C10         6.0331   54.5302   22.9686 C.ar      1 UNK         0.0000 
     11 N11         3.3554   53.9692   25.5204 N.am      1 UNK         0.0000 
     12 C12         3.8093   53.7996   26.7806 C.2       1 UNK         0.0000 
     13 O13         5.0007   53.6966   27.0703 O.2       1 UNK         0.0000 
     14 C14         2.7518   53.6982   27.9130 C.3       1 UNK         0.0000 
     15 H15         3.0296   54.6025   28.4544 H         1 UNK         0.0000 
     16 C16         2.9308   52.4238   28.8248 C.3       1 UNK         0.0000 
     17 H17         3.5815   51.6975   28.3489 H         1 UNK         0.0000 
     18 C18         1.5387   51.7540   29.0959 C.3       1 UNK         0.0000 
     19 C19         0.9105   51.3038   27.7512 C.3       1 UNK         0.0000 
     20 C20         0.7585   52.5209   26.8038 C.3       1 UNK         0.0000 
     21 C21         1.2564   53.8218   27.5086 C.3       1 UNK         0.0000 
     22 C22         0.4277   54.0133   28.8072 C.3       1 UNK         0.0000 
     23 C23         0.5693   52.7832   29.7405 C.3       1 UNK         0.0000 
     24 C24         3.6580   52.6881   30.1598 C.2       1 UNK         0.0000 
     25 O25         3.9044   53.8690   30.4817 O.co2     1 UNK         0.0000 
     26 O26         3.9030   51.6967   30.8814 O.co2     1 UNK         0.0000 
     27 H27         6.7476   54.6631   18.1793 H         1 UNK         0.0000 
     28 H28         8.1838   55.5768   18.6491 H         1 UNK         0.0000 
     29 H29         6.7144   56.4310   18.1637 H         1 UNK         0.0000 
     30 H30         5.3984   54.0345   19.7955 H         1 UNK         0.0000 
     31 H31         3.2991   53.9963   21.0088 H         1 UNK         0.0000 
     32 H32         2.2518   53.7287   23.1961 H         1 UNK         0.0000 
     33 H33         6.0527   54.5046   25.0950 H         1 UNK         0.0000 
     34 H34         7.0875   54.7610   22.9089 H         1 UNK         0.0000 
     35 H35         2.3542   53.9344   25.4187 H         1 UNK         0.0000 
     36 H36         1.6401   50.8967   29.7354 H         1 UNK         0.0000 
     37 H37         1.5045   50.5214   27.2819 H         1 UNK         0.0000 
     38 H38        -0.0656   50.8496   27.9330 H         1 UNK         0.0000 
     39 H39        -0.2880   52.6324   26.5159 H         1 UNK         0.0000 
     40 H40         1.2978   52.3355   25.8755 H         1 UNK         0.0000 
     41 H41         1.1050   54.6875   26.8817 H         1 UNK         0.0000 
     42 H42         0.7327   54.9223   29.3280 H         1 UNK         0.0000 
     43 H43        -0.6173   54.1461   28.5437 H         1 UNK         0.0000 
     44 H44        -0.4055   52.3240   29.9144 H         1 UNK         0.0000 
     45 H45         0.9257   53.0915   30.7245 H         1 UNK         0.0000 
@<TRIPOS>BOND
     1    1    2 1    
     2    1   27 1    
     3    1   28 1    
     4    1   29 1    
     5    2    3 2    
     6    2    4 am   BACKBONE|DICT|INTERRES
     7    4    5 1    
     8    4   30 1    
     9    5   10 ar   
    10    5    6 ar   
    11    6    7 ar   
    12    6   31 1    
    13    7    8 ar   
    14    7   32 1    
    15    8    9 ar   
    16    8   11 1    
    17    9   10 ar   
    18    9   33 1    
    19   10   34 1    
    20   11   12 am   BACKBONE|DICT|INTERRES
    21   11   35 1    
    22   12   13 2    
    23   12   14 1    
    24   14   15 1    
    25   14   21 1    
    26   14   16 1    
    27   16   17 1    
    28   16   18 1    
    29   16   24 1    
    30   18   23 1    
    31   18   19 1    
    32   18   36 1    
    33   19   20 1    
    34   19   37 1    
    35   19   38 1    
    36   20   21 1    
    37   20   39 1    
    38   20   40 1    
    39   21   22 1    
    40   21   41 1    
    41   22   23 1    
    42   22   42 1    
    43   22   43 1    
    44   23   44 1    
    45   23   45 1    
    46   24   25 2    
    47   24   26 1    
@<TRIPOS>SUBSTRUCTURE
     1 UNK         1 GROUP             0       ****    0 ROOT    
