@<TRIPOS>MOLECULE
ZINC38563338_2062
47   50    1
SMALL
USER_CHARGES


@<TRIPOS>ATOM
      1 C1          2.1604   53.9492   23.3244 C.2       1 UNK         0.0000 
      2 C2          3.4297   54.4802   23.0927 C.2       1 UNK         0.0000 
      3 C3          4.1446   53.8660   22.0563 C.2       1 UNK         0.0000 
      4 S4          3.1718   52.5794   21.3861 S.3       1 UNK         0.0000 
      5 C5          1.8703   52.8931   22.4814 C.2       1 UNK         0.0000 
      6 C6          5.5372   54.1404   21.4974 C.3       1 UNK         0.0000 
      7 H7          5.9018   53.1710   21.1786 H         1 UNK         0.0000 
      8 C8          6.5564   54.7497   22.5065 C.3       1 UNK         0.0000 
      9 N9          6.6145   54.0312   23.7813 N.am      1 UNK         0.0000 
     10 C10         6.3229   54.5568   24.9807 C.2       1 UNK         0.0000 
     11 O11         6.6242   55.6981   25.3271 O.2       1 UNK         0.0000 
     12 N12         5.5920   53.6975   25.7029 N.am      1 UNK         0.0000 
     13 C13         4.8615   53.9877   26.8529 C.ar      1 UNK         0.0000 
     14 C14         5.4694   54.4806   28.0222 C.ar      1 UNK         0.0000 
     15 C15         4.7056   54.6921   29.1801 C.ar      1 UNK         0.0000 
     16 C16         3.3446   54.4110   29.1204 C.ar      1 UNK         0.0000 
     17 C17         2.7571   53.9330   27.9859 C.ar      1 UNK         0.0000 
     18 C18         3.4886   53.6986   26.8279 C.ar      1 UNK         0.0000 
     19 O19         1.4232   53.7808   28.1967 O.3       1 UNK         0.0000 
     20 C20         1.2394   53.9576   29.5747 C.3       1 UNK         0.0000 
     21 O21         2.3969   54.5696   30.0812 O.3       1 UNK         0.0000 
     22 S22         5.5461   55.1698   19.8897 S.o2      1 UNK         0.0000 
     23 O23         5.9415   56.5469   20.2098 O.2       1 UNK         0.0000 
     24 O24         4.3044   54.9036   19.1563 O.2       1 UNK         0.0000 
     25 C25         6.8595   54.4824   18.8841 C.ar      1 UNK         0.0000 
     26 C26         6.5889   53.3717   18.0813 C.ar      1 UNK         0.0000 
     27 C27         7.5917   52.8400   17.2769 C.ar      1 UNK         0.0000 
     28 C28         8.8603   53.4145   17.2818 C.ar      1 UNK         0.0000 
     29 C29         9.1350   54.5221   18.0808 C.ar      1 UNK         0.0000 
     30 C30         8.1317   55.0603   18.8832 C.ar      1 UNK         0.0000 
     31 Cl31       10.1084   52.7369   16.3018 Cl        1 UNK         0.0000 
     32 H32         1.4847   54.3172   24.0830 H         1 UNK         0.0000 
     33 H33         3.8230   55.2955   23.6785 H         1 UNK         0.0000 
     34 H34         0.9696   52.2984   22.4390 H         1 UNK         0.0000 
     35 H35         7.5617   54.7374   22.0791 H         1 UNK         0.0000 
     36 H36         6.3283   55.8043   22.6713 H         1 UNK         0.0000 
     37 H37         6.7428   53.0330   23.7182 H         1 UNK         0.0000 
     38 H38         5.3837   52.8019   25.2802 H         1 UNK         0.0000 
     39 H39         6.5289   54.6928   28.0452 H         1 UNK         0.0000 
     40 H40         5.1755   55.0732   30.0758 H         1 UNK         0.0000 
     41 H41         3.0149   53.3066   25.9418 H         1 UNK         0.0000 
     42 H42         1.1106   52.9800   30.0439 H         1 UNK         0.0000 
     43 H43         0.3594   54.5705   29.7733 H         1 UNK         0.0000 
     44 H44         5.6070   52.9165   18.0774 H         1 UNK         0.0000 
     45 H45         7.3839   51.9754   16.6620 H         1 UNK         0.0000 
     46 H46        10.1243   54.9574   18.0867 H         1 UNK         0.0000 
     47 H47         8.3501   55.9185   19.5043 H         1 UNK         0.0000 
@<TRIPOS>BOND
     1    1    5 2    
     2    1    2 1    
     3    1   32 1    
     4    2    3 2    
     5    2   33 1    
     6    3    4 1    
     7    3    6 1    
     8    4    5 1    
     9    5   34 1    
    10    6    7 1    
    11    6    8 1    
    12    6   22 1    
    13    8    9 1    
    14    8   35 1    
    15    8   36 1    
    16    9   10 am   BACKBONE|DICT|INTERRES
    17    9   37 1    
    18   10   11 2    
    19   10   12 am   BACKBONE|DICT|INTERRES
    20   12   13 1    
    21   12   38 1    
    22   13   18 ar   
    23   13   14 ar   
    24   14   15 ar   
    25   14   39 1    
    26   15   16 ar   
    27   15   40 1    
    28   16   21 1    
    29   16   17 ar   
    30   17   18 ar   
    31   17   19 1    
    32   18   41 1    
    33   19   20 1    
    34   20   21 1    
    35   20   42 1    
    36   20   43 1    
    37   22   23 2    
    38   22   24 2    
    39   22   25 1    
    40   25   30 ar   
    41   25   26 ar   
    42   26   27 ar   
    43   26   44 1    
    44   27   28 ar   
    45   27   45 1    
    46   28   29 ar   
    47   28   31 1    
    48   29   30 ar   
    49   29   46 1    
    50   30   47 1    
@<TRIPOS>SUBSTRUCTURE
     1 UNK         1 GROUP             0       ****    0 ROOT    
