@<TRIPOS>MOLECULE
ZINC13638161_5838
38   40    1
SMALL
USER_CHARGES


@<TRIPOS>ATOM
      1 C1         -0.1383   50.3244   26.0902 C.3       1 UNK         0.0000 
      2 C2         -0.3194   51.8573   26.0368 C.3       1 UNK         0.0000 
      3 C3         -1.5433   52.2191   25.1648 C.3       1 UNK         0.0000 
      4 C4          0.9805   52.5596   25.5923 C.ar      1 UNK         0.0000 
      5 C5          1.8437   53.2600   26.4787 C.ar      1 UNK         0.0000 
      6 C6          3.0083   53.8248   25.9152 C.ar      1 UNK         0.0000 
      7 N7          3.1981   53.6966   24.5629 N.pl3     1 UNK         0.0000 
      8 C8          2.3045   53.0134   23.7557 C.ar      1 UNK         0.0000 
      9 N9          1.2122   52.4389   24.2518 N.2       1 UNK         0.0000 
     10 N10         2.7597   53.0330   22.4837 N.2       1 UNK         0.0000 
     11 C11         3.8910   53.7127   22.5889 C.ar      1 UNK         0.0000 
     12 N12         4.2233   54.1366   23.7965 N.2       1 UNK         0.0000 
     13 S13         4.9429   54.0548   21.2112 S.3       1 UNK         0.0000 
     14 C14         4.1171   53.0992   19.8989 C.3       1 UNK         0.0000 
     15 N15         3.9687   54.4864   26.6869 N.pl3     1 UNK         0.0000 
     16 C16         1.5303   53.4388   27.9348 C.ar      1 UNK         0.0000 
     17 C17         1.4470   54.7294   28.4769 C.ar      1 UNK         0.0000 
     18 C18         1.1042   54.9251   29.8102 C.ar      1 UNK         0.0000 
     19 C19         0.8187   53.8244   30.6091 C.ar      1 UNK         0.0000 
     20 C20         0.9227   52.5350   30.1011 C.ar      1 UNK         0.0000 
     21 C21         1.2983   52.3419   28.7742 C.ar      1 UNK         0.0000 
     22 Br22        0.3011   54.0824   32.4197 Br        1 UNK         0.0000 
     23 H23         0.6962   50.0307   26.7276 H         1 UNK         0.0000 
     24 H24        -1.0293   49.8314   26.4799 H         1 UNK         0.0000 
     25 H25         0.0536   49.9114   25.0993 H         1 UNK         0.0000 
     26 H26        -0.5852   52.1939   27.0360 H         1 UNK         0.0000 
     27 H27        -1.6778   53.2966   25.0928 H         1 UNK         0.0000 
     28 H28        -1.4440   51.8318   24.1495 H         1 UNK         0.0000 
     29 H29        -2.4608   51.8014   25.5819 H         1 UNK         0.0000 
     30 H30         4.6843   53.1753   18.9709 H         1 UNK         0.0000 
     31 H31         4.0538   52.0425   20.1616 H         1 UNK         0.0000 
     32 H32         3.1141   53.4840   19.7108 H         1 UNK         0.0000 
     33 H33         3.9156   54.3887   27.6886 H         1 UNK         0.0000 
     34 H34         4.8456   54.7094   26.2375 H         1 UNK         0.0000 
     35 H35         1.6313   55.5919   27.8557 H         1 UNK         0.0000 
     36 H36         1.0343   55.9250   30.2149 H         1 UNK         0.0000 
     37 H37         0.6941   51.6968   30.7377 H         1 UNK         0.0000 
     38 H38         1.3773   51.3350   28.3945 H         1 UNK         0.0000 
@<TRIPOS>BOND
     1    1    2 1    
     2    1   23 1    
     3    1   24 1    
     4    1   25 1    
     5    2    3 1    
     6    2    4 1    
     7    2   26 1    
     8    3   27 1    
     9    3   28 1    
    10    3   29 1    
    11    4    9 ar   
    12    4    5 ar   
    13    5    6 ar   
    14    5   16 1    
    15    6    7 ar   
    16    6   15 1    
    17    7   12 ar   
    18    7    8 ar   
    19    8    9 ar   
    20    8   10 ar   
    21   10   11 ar   
    22   11   12 ar   
    23   11   13 1    
    24   13   14 1    
    25   14   30 1    
    26   14   31 1    
    27   14   32 1    
    28   15   33 1    
    29   15   34 1    
    30   16   21 ar   
    31   16   17 ar   
    32   17   18 ar   
    33   17   35 1    
    34   18   19 ar   
    35   18   36 1    
    36   19   20 ar   
    37   19   22 1    
    38   20   21 ar   
    39   20   37 1    
    40   21   38 1    
@<TRIPOS>SUBSTRUCTURE
     1 UNK         1 GROUP             0       ****    0 ROOT    
