@<TRIPOS>MOLECULE
ZINC00714618_2794
59   63    1
SMALL
USER_CHARGES


@<TRIPOS>ATOM
      1 C1          0.3353   49.3194   25.7401 C.3       1 UNK         0.0000 
      2 C2          0.0381   50.8047   26.0988 C.3       1 UNK         0.0000 
      3 C3          0.5028   51.7641   24.9670 C.3       1 UNK         0.0000 
      4 C4         -0.3003   51.5788   23.6537 C.2       1 UNK         0.0000 
      5 C5         -1.5724   51.0725   23.6918 C.2       1 UNK         0.0000 
      6 C6         -2.3609   50.7136   22.4093 C.3       1 UNK         0.0000 
      7 H7         -3.3342   51.2130   22.4401 H         1 UNK         0.0000 
      8 C8         -1.6118   51.2020   21.1589 C.2       1 UNK         0.0000 
      9 C9         -0.3493   51.6999   21.1973 C.2       1 UNK         0.0000 
     10 N10         0.3449   51.8309   22.4194 N.pl3     1 UNK         0.0000 
     11 C11         1.6911   52.2960   22.4085 C.ar      1 UNK         0.0000 
     12 C12         2.6927   51.5035   21.8331 C.ar      1 UNK         0.0000 
     13 C13         3.9905   51.9938   21.6812 C.ar      1 UNK         0.0000 
     14 C14         4.3126   53.2711   22.1331 C.ar      1 UNK         0.0000 
     15 C15         3.3362   54.0561   22.7371 C.ar      1 UNK         0.0000 
     16 C16         2.0307   53.5841   22.8598 C.ar      1 UNK         0.0000 
     17 F17         1.1044   54.3949   23.4145 F         1 UNK         0.0000 
     18 N18         0.3243   52.1326   20.0658 N.pl3     1 UNK         0.0000 
     19 C19        -2.3568   51.1116   19.8987 C.2       1 UNK         0.0000 
     20 O20        -2.8996   52.0955   19.3917 O.2       1 UNK         0.0000 
     21 O21        -2.3411   49.8674   19.3710 O.3       1 UNK         0.0000 
     22 C22        -3.0136   49.5998   18.1518 C.3       1 UNK         0.0000 
     23 C23        -2.7620   49.2262   22.3610 C.ar      1 UNK         0.0000 
     24 C24        -1.7528   48.2421   22.3202 C.ar      1 UNK         0.0000 
     25 C25        -2.0685   46.8789   22.3300 C.ar      1 UNK         0.0000 
     26 C26        -3.4100   46.5293   22.3758 C.ar      1 UNK         0.0000 
     27 C27        -4.3966   47.4701   22.4030 C.ar      1 UNK         0.0000 
     28 C28        -4.1141   48.8335   22.4023 C.ar      1 UNK         0.0000 
     29 O29        -5.6030   46.8475   22.4815 O.3       1 UNK         0.0000 
     30 C30        -5.3386   45.4813   22.3027 C.3       1 UNK         0.0000 
     31 O31        -3.9569   45.2891   22.4460 O.3       1 UNK         0.0000 
     32 C32        -2.2850   50.8415   24.9732 C.2       1 UNK         0.0000 
     33 O33        -3.5060   50.6933   25.0211 O.2       1 UNK         0.0000 
     34 C34        -1.4863   51.0204   26.2702 C.3       1 UNK         0.0000 
     35 C35         0.7034   51.2462   27.4197 C.3       1 UNK         0.0000 
     36 H36        -0.0938   48.6473   26.4818 H         1 UNK         0.0000 
     37 H37        -0.0618   49.0176   24.7732 H         1 UNK         0.0000 
     38 H38         1.4030   49.1151   25.7188 H         1 UNK         0.0000 
     39 H39         1.5491   51.5046   24.8261 H         1 UNK         0.0000 
     40 H40         0.4431   52.8139   25.2553 H         1 UNK         0.0000 
     41 H41         2.4533   50.5186   21.4585 H         1 UNK         0.0000 
     42 H42         4.7410   51.3806   21.2065 H         1 UNK         0.0000 
     43 H43         5.3180   53.6515   22.0192 H         1 UNK         0.0000 
     44 H44         3.5781   55.0417   23.0989 H         1 UNK         0.0000 
     45 H45        -0.1019   52.0808   19.1528 H         1 UNK         0.0000 
     46 H46         1.2277   52.5813   20.1373 H         1 UNK         0.0000 
     47 H47        -2.8681   48.5542   17.8754 H         1 UNK         0.0000 
     48 H48        -4.0840   49.7813   18.2497 H         1 UNK         0.0000 
     49 H49        -2.6276   50.2198   17.3409 H         1 UNK         0.0000 
     50 H50        -0.7162   48.5446   22.2995 H         1 UNK         0.0000 
     51 H51        -1.2944   46.1287   22.3145 H         1 UNK         0.0000 
     52 H52        -4.9077   49.5630   22.4537 H         1 UNK         0.0000 
     53 H53        -5.8881   44.8889   23.0368 H         1 UNK         0.0000 
     54 H54        -5.6360   45.1899   21.2924 H         1 UNK         0.0000 
     55 H55        -1.9156   50.3797   27.0419 H         1 UNK         0.0000 
     56 H56        -1.6634   52.0531   26.5759 H         1 UNK         0.0000 
     57 H57         0.3141   50.6653   28.2576 H         1 UNK         0.0000 
     58 H58         1.7827   51.0988   27.3950 H         1 UNK         0.0000 
     59 H59         0.5202   52.2975   27.6433 H         1 UNK         0.0000 
@<TRIPOS>BOND
     1    1    2 1    
     2    1   36 1    
     3    1   37 1    
     4    1   38 1    
     5    2   34 1    
     6    2    3 1    
     7    2   35 1    
     8    3    4 1    
     9    3   39 1    
    10    3   40 1    
    11    4   10 1    
    12    4    5 2    
    13    5    6 1    
    14    5   32 1    
    15    6    7 1    
    16    6    8 1    
    17    6   23 1    
    18    8    9 2    
    19    8   19 1    
    20    9   10 1    
    21    9   18 1    
    22   10   11 1    
    23   11   16 ar   
    24   11   12 ar   
    25   12   13 ar   
    26   12   41 1    
    27   13   14 ar   
    28   13   42 1    
    29   14   15 ar   
    30   14   43 1    
    31   15   16 ar   
    32   15   44 1    
    33   16   17 1    
    34   18   45 1    
    35   18   46 1    
    36   19   20 2    
    37   19   21 1    
    38   21   22 1    
    39   22   47 1    
    40   22   48 1    
    41   22   49 1    
    42   23   28 ar   
    43   23   24 ar   
    44   24   25 ar   
    45   24   50 1    
    46   25   26 ar   
    47   25   51 1    
    48   26   31 1    
    49   26   27 ar   
    50   27   28 ar   
    51   27   29 1    
    52   28   52 1    
    53   29   30 1    
    54   30   31 1    
    55   30   53 1    
    56   30   54 1    
    57   32   33 2    
    58   32   34 1    
    59   34   55 1    
    60   34   56 1    
    61   35   57 1    
    62   35   58 1    
    63   35   59 1    
@<TRIPOS>SUBSTRUCTURE
     1 UNK         1 GROUP             0       ****    0 ROOT    
