@<TRIPOS>MOLECULE
ZINC09324312_3706
43   46    1
SMALL
USER_CHARGES


@<TRIPOS>ATOM
      1 C1          5.9800   54.4987   27.3862 C.ar      1 UNK         0.0000 
      2 C2          4.6668   54.4378   27.8512 C.ar      1 UNK         0.0000 
      3 C3          3.5857   54.3194   26.9748 C.ar      1 UNK         0.0000 
      4 C4          3.8628   54.2586   25.6022 C.ar      1 UNK         0.0000 
      5 C5          5.1998   54.3187   25.1227 C.ar      1 UNK         0.0000 
      6 C6          6.2667   54.4501   26.0206 C.ar      1 UNK         0.0000 
      7 N7          5.3371   54.2247   23.7767 N.2       1 UNK         0.0000 
      8 C8          4.1757   54.0970   23.1875 C.2       1 UNK         0.0000 
      9 S9          2.7699   54.0942   24.2298 S.3       1 UNK         0.0000 
     10 N10         3.9651   53.8921   21.8319 N.am      1 UNK         0.0000 
     11 C11         4.8388   54.1826   20.8443 C.2       1 UNK         0.0000 
     12 O12         5.9040   54.7795   21.0191 O.2       1 UNK         0.0000 
     13 C13         4.4109   53.7417   19.4381 C.3       1 UNK         0.0000 
     14 S14         5.6922   53.9411   18.1530 S.3       1 UNK         0.0000 
     15 C15         5.3366   55.6010   17.7017 C.2       1 UNK         0.0000 
     16 N16         6.1693   56.6021   17.8631 N.2       1 UNK         0.0000 
     17 N17         5.6698   57.8067   17.3861 N.2       1 UNK         0.0000 
     18 C18         4.4787   57.6851   16.8548 C.2       1 UNK         0.0000 
     19 S19         3.8432   56.0587   16.9270 S.3       1 UNK         0.0000 
     20 N20         3.8175   58.7854   16.3313 N.am      1 UNK         0.0000 
     21 C21         2.6373   58.8150   15.6816 C.2       1 UNK         0.0000 
     22 O22         1.9633   57.8306   15.3769 O.2       1 UNK         0.0000 
     23 N23         2.3041   60.0963   15.4447 N.am      1 UNK         0.0000 
     24 C24         1.1251   60.6465   14.9058 C.ar      1 UNK         0.0000 
     25 C25         1.0670   62.0431   14.8933 C.ar      1 UNK         0.0000 
     26 C26        -0.0602   62.6928   14.3986 C.ar      1 UNK         0.0000 
     27 C27        -1.1315   61.9441   13.9143 C.ar      1 UNK         0.0000 
     28 C28        -1.0823   60.5520   13.9197 C.ar      1 UNK         0.0000 
     29 C29         0.0438   59.8985   14.4121 C.ar      1 UNK         0.0000 
     30 Cl30       -2.5314   62.7495   13.3054 Cl        1 UNK         0.0000 
     31 H31         6.7906   54.5897   28.0975 H         1 UNK         0.0000 
     32 H32         4.4883   54.4831   28.9155 H         1 UNK         0.0000 
     33 H33         2.5706   54.2709   27.3458 H         1 UNK         0.0000 
     34 H34         7.2815   54.4882   25.6575 H         1 UNK         0.0000 
     35 H35         3.0321   53.6218   21.5612 H         1 UNK         0.0000 
     36 H36         4.1776   52.6776   19.4744 H         1 UNK         0.0000 
     37 H37         3.4967   54.2550   19.1525 H         1 UNK         0.0000 
     38 H38         4.2748   59.6772   16.4813 H         1 UNK         0.0000 
     39 H39         2.9692   60.7863   15.7892 H         1 UNK         0.0000 
     40 H40         1.8936   62.6285   15.2770 H         1 UNK         0.0000 
     41 H41        -0.1014   63.7723   14.3923 H         1 UNK         0.0000 
     42 H42        -1.9159   59.9780   13.5411 H         1 UNK         0.0000 
     43 H43         0.0509   58.8194   14.4055 H         1 UNK         0.0000 
@<TRIPOS>BOND
     1    1    6 ar   
     2    1    2 ar   
     3    1   31 1    
     4    2    3 ar   
     5    2   32 1    
     6    3    4 ar   
     7    3   33 1    
     8    4    9 1    
     9    4    5 ar   
    10    5    6 ar   
    11    5    7 1    
    12    6   34 1    
    13    7    8 2    
    14    8    9 1    
    15    8   10 am   BACKBONE|DICT|INTERRES
    16   10   11 am   BACKBONE|DICT|INTERRES
    17   10   35 1    
    18   11   12 2    
    19   11   13 1    
    20   13   14 1    
    21   13   36 1    
    22   13   37 1    
    23   14   15 1    
    24   15   19 1    
    25   15   16 2    
    26   16   17 1    
    27   17   18 2    
    28   18   19 1    
    29   18   20 am   BACKBONE|DICT|INTERRES
    30   20   21 am   BACKBONE|DICT|INTERRES
    31   20   38 1    
    32   21   22 2    
    33   21   23 am   BACKBONE|DICT|INTERRES
    34   23   24 1    
    35   23   39 1    
    36   24   29 ar   
    37   24   25 ar   
    38   25   26 ar   
    39   25   40 1    
    40   26   27 ar   
    41   26   41 1    
    42   27   28 ar   
    43   27   30 1    
    44   28   29 ar   
    45   28   42 1    
    46   29   43 1    
@<TRIPOS>SUBSTRUCTURE
     1 UNK         1 GROUP             0       ****    0 ROOT    
