@<TRIPOS>MOLECULE
ZINC36072034_5964
59   62    1
SMALL
USER_CHARGES


@<TRIPOS>ATOM
      1 C1          3.4183   54.2605   27.4620 C.3       1 UNK         0.0000 
      2 C2          2.4914   53.5265   26.4949 C.2       1 UNK         0.0000 
      3 C3          1.6013   52.5374   26.8096 C.2       1 UNK         0.0000 
      4 C4          0.8173   51.7830   25.6840 C.3       1 UNK         0.0000 
      5 H5          1.1030   50.7305   25.7232 H         1 UNK         0.0000 
      6 N6          1.2781   52.2602   24.3410 N.pl3     1 UNK         0.0000 
      7 C7          0.8803   51.7411   23.1151 C.2       1 UNK         0.0000 
      8 C8          1.4187   52.4135   22.0827 C.2       1 UNK         0.0000 
      9 S9          2.5161   53.6965   22.5670 S.3       1 UNK         0.0000 
     10 C10         2.1865   53.3168   24.2602 C.2       1 UNK         0.0000 
     11 N11         2.7331   53.9473   25.2225 N.2       1 UNK         0.0000 
     12 C12        -0.0438   50.6332   22.9203 C.2       1 UNK         0.0000 
     13 C13        -1.0992   50.6278   22.0824 C.2       1 UNK         0.0000 
     14 O14        -1.5567   51.5614   21.3203 O.co2     1 UNK         0.0000 
     15 N15        -1.8598   49.4865   21.9545 N.pl3     1 UNK         0.0000 
     16 C16        -3.3146   49.3618   21.9013 C.3       1 UNK         0.0000 
     17 C17        -4.0019   49.4636   23.2751 C.3       1 UNK         0.0000 
     18 C18        -3.7351   48.2869   24.2076 C.ar      1 UNK         0.0000 
     19 C19        -4.7244   47.3340   24.4750 C.ar      1 UNK         0.0000 
     20 C20        -4.4454   46.3169   25.3922 C.ar      1 UNK         0.0000 
     21 C21        -3.1965   46.2763   26.0149 C.ar      1 UNK         0.0000 
     22 C22        -2.2579   47.2545   25.6815 C.ar      1 UNK         0.0000 
     23 N23        -2.5078   48.2470   24.7898 N.ar      1 UNK         0.0000 
     24 C24        -0.7140   51.7821   25.8660 C.ar      1 UNK         0.0000 
     25 C25        -1.5519   52.6238   25.1247 C.ar      1 UNK         0.0000 
     26 C26        -2.9277   52.6180   25.3346 C.ar      1 UNK         0.0000 
     27 C27        -3.4764   51.7601   26.2825 C.ar      1 UNK         0.0000 
     28 C28        -2.6592   50.8966   27.0053 C.ar      1 UNK         0.0000 
     29 C29        -1.2854   50.8973   26.7847 C.ar      1 UNK         0.0000 
     30 Cl30       -5.1807   51.7576   26.5484 Cl        1 UNK         0.0000 
     31 C31         1.4433   52.0678   28.1714 C.2       1 UNK         0.0000 
     32 O32         1.9045   50.9723   28.4816 O.2       1 UNK         0.0000 
     33 N33         0.7929   52.8715   29.0566 N.am      1 UNK         0.0000 
     34 C34         0.0863   54.0964   28.6879 C.3       1 UNK         0.0000 
     35 C35         0.5147   52.4372   30.4281 C.3       1 UNK         0.0000 
     36 H36         4.4482   54.2448   27.1025 H         1 UNK         0.0000 
     37 H37         3.1038   55.2969   27.5568 H         1 UNK         0.0000 
     38 H38         3.4277   53.8273   28.4605 H         1 UNK         0.0000 
     39 H39         1.2418   52.2161   21.0352 H         1 UNK         0.0000 
     40 H40         0.1502   49.7397   23.4960 H         1 UNK         0.0000 
     41 H41        -1.4640   48.6808   22.4130 H         1 UNK         0.0000 
     42 H42        -3.6943   50.1605   21.2624 H         1 UNK         0.0000 
     43 H43        -3.5950   48.4366   21.3975 H         1 UNK         0.0000 
     44 H44        -3.6984   50.3848   23.7716 H         1 UNK         0.0000 
     45 H45        -5.0779   49.5616   23.1276 H         1 UNK         0.0000 
     46 H46        -5.6945   47.3937   24.0048 H         1 UNK         0.0000 
     47 H47        -5.2005   45.5849   25.6375 H         1 UNK         0.0000 
     48 H48        -2.9672   45.5272   26.7603 H         1 UNK         0.0000 
     49 H49        -1.2949   47.2831   26.1710 H         1 UNK         0.0000 
     50 H50        -1.1405   53.2994   24.3902 H         1 UNK         0.0000 
     51 H51        -3.5634   53.2774   24.7630 H         1 UNK         0.0000 
     52 H52        -3.0797   50.2071   27.7243 H         1 UNK         0.0000 
     53 H53        -0.6658   50.2048   27.3360 H         1 UNK         0.0000 
     54 H54         0.6269   54.6802   27.9439 H         1 UNK         0.0000 
     55 H55        -0.8954   53.8573   28.2821 H         1 UNK         0.0000 
     56 H56        -0.0409   54.7375   29.5609 H         1 UNK         0.0000 
     57 H57         1.2317   51.6966   30.7763 H         1 UNK         0.0000 
     58 H58         0.5826   53.2763   31.1212 H         1 UNK         0.0000 
     59 H59        -0.4881   52.0151   30.5058 H         1 UNK         0.0000 
@<TRIPOS>BOND
     1    1    2 1    
     2    1   36 1    
     3    1   37 1    
     4    1   38 1    
     5    2   11 1    
     6    2    3 2    
     7    3    4 1    
     8    3   31 1    
     9    4    5 1    
    10    4    6 1    
    11    4   24 1    
    12    6   10 1    
    13    6    7 1    
    14    7    8 2    
    15    7   12 1    
    16    8    9 1    
    17    8   39 1    
    18    9   10 1    
    19   10   11 2    
    20   12   13 2    
    21   12   40 1    
    22   13   14 1    
    23   13   15 1    
    24   15   16 1    
    25   15   41 1    
    26   16   17 1    
    27   16   42 1    
    28   16   43 1    
    29   17   18 1    
    30   17   44 1    
    31   17   45 1    
    32   18   23 ar   
    33   18   19 ar   
    34   19   20 ar   
    35   19   46 1    
    36   20   21 ar   
    37   20   47 1    
    38   21   22 ar   
    39   21   48 1    
    40   22   23 ar   
    41   22   49 1    
    42   24   29 ar   
    43   24   25 ar   
    44   25   26 ar   
    45   25   50 1    
    46   26   27 ar   
    47   26   51 1    
    48   27   28 ar   
    49   27   30 1    
    50   28   29 ar   
    51   28   52 1    
    52   29   53 1    
    53   31   32 2    
    54   31   33 am   BACKBONE|DICT|INTERRES
    55   33   34 1    
    56   33   35 1    
    57   34   54 1    
    58   34   55 1    
    59   34   56 1    
    60   35   57 1    
    61   35   58 1    
    62   35   59 1    
@<TRIPOS>SUBSTRUCTURE
     1 UNK         1 GROUP             0       ****    0 ROOT    
