@<TRIPOS>MOLECULE
ZINC05602660_1417
45   46    1
SMALL
USER_CHARGES


@<TRIPOS>ATOM
      1 C1          6.0544   55.6887   25.5329 C.3       1 UNK         0.0000 
      2 C2          5.5504   54.8967   24.3532 C.ar      1 UNK         0.0000 
      3 C3          4.2927   54.2952   24.4034 C.ar      1 UNK         0.0000 
      4 C4          3.7919   53.6541   23.2757 C.ar      1 UNK         0.0000 
      5 C5          4.5628   53.5989   22.1124 C.ar      1 UNK         0.0000 
      6 C6          5.7898   54.2629   22.0537 C.ar      1 UNK         0.0000 
      7 C7          6.3036   54.8947   23.1794 C.ar      1 UNK         0.0000 
      8 S8          4.0877   52.5616   20.7293 S.o2      1 UNK         0.0000 
      9 O9          4.3006   51.1889   21.1949 O.2       1 UNK         0.0000 
     10 O10         4.7971   53.0888   19.5604 O.2       1 UNK         0.0000 
     11 N11         2.3714   52.7841   20.4347 N.am      1 UNK         0.0000 
     12 C12         1.2599   52.1920   21.0742 C.2       1 UNK         0.0000 
     13 O13         0.1275   52.4957   20.7116 O.2       1 UNK         0.0000 
     14 N14         1.5348   51.3263   22.0683 N.am      1 UNK         0.0000 
     15 C15         0.6393   50.7479   22.9882 C.ar      1 UNK         0.0000 
     16 C16         1.1106   49.6484   23.7012 C.ar      1 UNK         0.0000 
     17 C17         0.3064   48.9979   24.6381 C.ar      1 UNK         0.0000 
     18 C18        -0.9805   49.4640   24.8912 C.ar      1 UNK         0.0000 
     19 C19        -1.4546   50.5885   24.2114 C.ar      1 UNK         0.0000 
     20 C20        -0.6514   51.2322   23.2642 C.ar      1 UNK         0.0000 
     21 S21        -3.0635   51.2530   24.6049 S.o2      1 UNK         0.0000 
     22 O22        -3.9022   50.1529   25.0968 O.2       1 UNK         0.0000 
     23 O23        -3.4833   52.0559   23.4500 O.2       1 UNK         0.0000 
     24 N24        -2.7708   52.3668   25.9536 N.pl3     1 UNK         0.0000 
     25 C25        -3.7144   53.4967   26.0853 C.3       1 UNK         0.0000 
     26 C26        -2.2927   51.7683   27.2203 C.3       1 UNK         0.0000 
     27 H27         5.5329   55.4349   26.4593 H         1 UNK         0.0000 
     28 H28         7.1172   55.5092   25.6938 H         1 UNK         0.0000 
     29 H29         5.9038   56.7414   25.2818 H         1 UNK         0.0000 
     30 H30         3.6996   54.3319   25.3074 H         1 UNK         0.0000 
     31 H31         2.8327   53.1648   23.3350 H         1 UNK         0.0000 
     32 H32         6.3510   54.2709   21.1336 H         1 UNK         0.0000 
     33 H33         7.2607   55.3947   23.1291 H         1 UNK         0.0000 
     34 H34         2.1668   53.5004   19.7296 H         1 UNK         0.0000 
     35 H35         2.5063   51.0605   22.1620 H         1 UNK         0.0000 
     36 H36         2.1195   49.2967   23.5322 H         1 UNK         0.0000 
     37 H37         0.6902   48.1459   25.1839 H         1 UNK         0.0000 
     38 H38        -1.5887   48.9627   25.6351 H         1 UNK         0.0000 
     39 H39        -1.0343   52.1118   22.7698 H         1 UNK         0.0000 
     40 H40        -3.2960   54.2675   26.7307 H         1 UNK         0.0000 
     41 H41        -4.6614   53.1383   26.4896 H         1 UNK         0.0000 
     42 H42        -3.9094   53.9340   25.1068 H         1 UNK         0.0000 
     43 H43        -1.6955   52.4962   27.7668 H         1 UNK         0.0000 
     44 H44        -3.1365   51.4249   27.8185 H         1 UNK         0.0000 
     45 H45        -1.6486   50.9138   27.0221 H         1 UNK         0.0000 
@<TRIPOS>BOND
     1    1    2 1    
     2    1   27 1    
     3    1   28 1    
     4    1   29 1    
     5    2    7 ar   
     6    2    3 ar   
     7    3    4 ar   
     8    3   30 1    
     9    4    5 ar   
    10    4   31 1    
    11    5    6 ar   
    12    5    8 1    
    13    6    7 ar   
    14    6   32 1    
    15    7   33 1    
    16    8    9 2    
    17    8   10 2    
    18    8   11 1    
    19   11   12 am   BACKBONE|DICT|INTERRES
    20   11   34 1    
    21   12   13 2    
    22   12   14 am   BACKBONE|DICT|INTERRES
    23   14   15 1    
    24   14   35 1    
    25   15   20 ar   
    26   15   16 ar   
    27   16   17 ar   
    28   16   36 1    
    29   17   18 ar   
    30   17   37 1    
    31   18   19 ar   
    32   18   38 1    
    33   19   20 ar   
    34   19   21 1    
    35   20   39 1    
    36   21   22 2    
    37   21   23 2    
    38   21   24 1    
    39   24   25 1    
    40   24   26 1    
    41   25   40 1    
    42   25   41 1    
    43   25   42 1    
    44   26   43 1    
    45   26   44 1    
    46   26   45 1    
@<TRIPOS>SUBSTRUCTURE
     1 UNK         1 GROUP             0       ****    0 ROOT    
