@<TRIPOS>MOLECULE
ZINC14467121_5840
42   45    1
SMALL
USER_CHARGES


@<TRIPOS>ATOM
      1 C1          1.7202   52.6997   27.7247 C.3       1 UNK         0.0000 
      2 C2          3.1428   53.2503   27.5594 C.ar      1 UNK         0.0000 
      3 C3          4.0361   53.2396   28.6483 C.ar      1 UNK         0.0000 
      4 C4          5.3606   53.6507   28.4557 C.ar      1 UNK         0.0000 
      5 C5          5.7962   54.0971   27.2126 C.ar      1 UNK         0.0000 
      6 C6          4.9190   54.1480   26.1283 C.ar      1 UNK         0.0000 
      7 C7          3.5890   53.7203   26.3084 C.ar      1 UNK         0.0000 
      8 N8          2.7091   53.6952   25.2007 N.pl3     1 UNK         0.0000 
      9 C9          3.1112   53.8907   23.7943 C.3       1 UNK         0.0000 
     10 H10         2.7598   54.8890   23.5271 H         1 UNK         0.0000 
     11 C11         4.6659   53.9062   23.6707 C.3       1 UNK         0.0000 
     12 H12         5.0268   52.8967   23.8081 H         1 UNK         0.0000 
     13 C13         5.2745   54.7423   24.7773 C.3       1 UNK         0.0000 
     14 H14         4.7836   55.6991   24.8158 H         1 UNK         0.0000 
     15 C15         6.6903   54.9327   24.2924 C.2       1 UNK         0.0000 
     16 C16         6.7045   54.8477   22.9473 C.2       1 UNK         0.0000 
     17 C17         5.3531   54.4166   22.3991 C.3       1 UNK         0.0000 
     18 C18         2.3329   52.9534   22.8429 C.ar      1 UNK         0.0000 
     19 C19         2.9862   52.1292   21.9128 C.ar      1 UNK         0.0000 
     20 C20         2.2680   51.2997   21.0548 C.ar      1 UNK         0.0000 
     21 C21         0.8776   51.2917   21.0924 C.ar      1 UNK         0.0000 
     22 C22         0.2025   52.0897   22.0125 C.ar      1 UNK         0.0000 
     23 C23         0.9253   52.8968   22.9002 C.ar      1 UNK         0.0000 
     24 O24         0.2311   53.6253   23.8343 O.3       1 UNK         0.0000 
     25 Cl25       -1.5288   52.0643   22.0339 Cl        1 UNK         0.0000 
     26 Cl26        3.1046   50.2701   19.9556 Cl        1 UNK         0.0000 
     27 N27         3.6093   52.8049   29.9928 N.pl3     1 UNK         0.0000 
     28 O28         4.3041   51.9881   30.5847 O.co2     1 UNK         0.0000 
     29 O29         2.5874   53.2940   30.4628 O.co2     1 UNK         0.0000 
     30 H30         1.3331   52.2607   26.8054 H         1 UNK         0.0000 
     31 H31         1.0382   53.4844   28.0525 H         1 UNK         0.0000 
     32 H32         1.6863   51.8850   28.4483 H         1 UNK         0.0000 
     33 H33         6.0567   53.6465   29.2813 H         1 UNK         0.0000 
     34 H34         6.8167   54.4329   27.1065 H         1 UNK         0.0000 
     35 H35         1.7190   53.5280   25.3185 H         1 UNK         0.0000 
     36 H36         7.5084   55.2359   24.9239 H         1 UNK         0.0000 
     37 H37         7.5581   55.0240   22.3088 H         1 UNK         0.0000 
     38 H38         5.4902   53.6309   21.6590 H         1 UNK         0.0000 
     39 H39         4.8051   55.2194   21.9083 H         1 UNK         0.0000 
     40 H40         4.0594   52.0869   21.8533 H         1 UNK         0.0000 
     41 H41         0.3264   50.6564   20.4145 H         1 UNK         0.0000 
     42 H42        -0.7034   53.4056   23.8250 H         1 UNK         0.0000 
@<TRIPOS>BOND
     1    1    2 1    
     2    1   30 1    
     3    1   31 1    
     4    1   32 1    
     5    2    7 ar   
     6    2    3 ar   
     7    3    4 ar   
     8    3   27 1    
     9    4    5 ar   
    10    4   33 1    
    11    5    6 ar   
    12    5   34 1    
    13    6   13 1    
    14    6    7 ar   
    15    7    8 1    
    16    8    9 1    
    17    8   35 1    
    18    9   10 1    
    19    9   11 1    
    20    9   18 1    
    21   11   12 1    
    22   11   17 1    
    23   11   13 1    
    24   13   14 1    
    25   13   15 1    
    26   15   16 2    
    27   15   36 1    
    28   16   17 1    
    29   16   37 1    
    30   17   38 1    
    31   17   39 1    
    32   18   23 ar   
    33   18   19 ar   
    34   19   20 ar   
    35   19   40 1    
    36   20   21 ar   
    37   20   26 1    
    38   21   22 ar   
    39   21   41 1    
    40   22   23 ar   
    41   22   25 1    
    42   23   24 1    
    43   24   42 1    
    44   27   28 2    
    45   27   29 1    
@<TRIPOS>SUBSTRUCTURE
     1 UNK         1 GROUP             0       ****    0 ROOT    
