@<TRIPOS>MOLECULE
ZINC63293935_1204
61   64    1
SMALL
USER_CHARGES


@<TRIPOS>ATOM
      1 C1          5.2442   52.5439   14.4817 C.3       1 UNK         0.0000 
      2 C2          4.5799   52.6843   15.8629 C.3       1 UNK         0.0000 
      3 H3          5.3067   52.5063   16.6597 H         1 UNK         0.0000 
      4 C4          3.8340   53.9948   16.0647 C.2       1 UNK         0.0000 
      5 C5          2.5443   53.6864   16.3031 C.2       1 UNK         0.0000 
      6 C6          1.3855   54.5425   16.5909 C.2       1 UNK         0.0000 
      7 C7          0.1705   54.0231   16.8580 C.2       1 UNK         0.0000 
      8 C8          0.0562   52.5583   16.8313 C.2       1 UNK         0.0000 
      9 C9          1.1170   51.7512   16.5721 C.2       1 UNK         0.0000 
     10 C10         2.3713   52.3023   16.3038 C.2       1 UNK         0.0000 
     11 N11         3.5047   51.6967   16.0557 N.pl3     1 UNK         0.0000 
     12 O12        -0.8382   54.8901   17.1365 O.3       1 UNK         0.0000 
     13 C13        -2.1427   54.3954   17.4088 C.3       1 UNK         0.0000 
     14 F14        -2.8955   55.4537   17.6795 F         1 UNK         0.0000 
     15 F15        -2.6637   53.7657   16.3540 F         1 UNK         0.0000 
     16 F16        -2.1634   53.5979   18.4803 F         1 UNK         0.0000 
     17 C17         4.5512   55.3389   16.0498 C.3       1 UNK         0.0000 
     18 C18         4.3689   56.1945   17.3184 C.3       1 UNK         0.0000 
     19 N19         4.6942   55.4453   18.5344 N.am      1 UNK         0.0000 
     20 C20         5.6700   55.7623   19.4019 C.2       1 UNK         0.0000 
     21 O21         6.4167   56.7266   19.2222 O.2       1 UNK         0.0000 
     22 C22         5.9024   54.8055   20.5971 C.3       1 UNK         0.0000 
     23 C23         6.8671   55.4456   21.6370 C.3       1 UNK         0.0000 
     24 C24         7.0188   54.6612   22.9642 C.3       1 UNK         0.0000 
     25 N25         5.6861   54.2423   23.4459 N.am      1 UNK         0.0000 
     26 C26         4.9288   53.4273   22.4767 C.3       1 UNK         0.0000 
     27 C27         4.5880   54.3345   21.2738 C.3       1 UNK         0.0000 
     28 C28         5.2924   54.5821   24.7130 C.2       1 UNK         0.0000 
     29 O29         6.0165   55.2566   25.4525 O.2       1 UNK         0.0000 
     30 C30         3.9548   54.1264   25.2701 C.ar      1 UNK         0.0000 
     31 C31         2.7793   54.1426   24.4975 C.ar      1 UNK         0.0000 
     32 C32         1.5739   53.6788   25.0160 C.ar      1 UNK         0.0000 
     33 C33         1.5046   53.2432   26.3361 C.ar      1 UNK         0.0000 
     34 C34         2.6422   53.2745   27.1369 C.ar      1 UNK         0.0000 
     35 C35         3.8614   53.6999   26.6097 C.ar      1 UNK         0.0000 
     36 F36         4.9449   53.6753   27.4223 F         1 UNK         0.0000 
     37 H37         6.0386   53.2785   14.3502 H         1 UNK         0.0000 
     38 H38         5.6939   51.5566   14.3606 H         1 UNK         0.0000 
     39 H39         4.5261   52.6814   13.6722 H         1 UNK         0.0000 
     40 H40         1.4697   55.6184   16.5998 H         1 UNK         0.0000 
     41 H41        -0.8955   52.0824   17.0171 H         1 UNK         0.0000 
     42 H42         0.9707   50.6804   16.5670 H         1 UNK         0.0000 
     43 H43         4.2233   55.8969   15.1727 H         1 UNK         0.0000 
     44 H44         5.6174   55.1668   15.9036 H         1 UNK         0.0000 
     45 H45         3.3343   56.5208   17.4191 H         1 UNK         0.0000 
     46 H46         4.9508   57.1152   17.2224 H         1 UNK         0.0000 
     47 H47         4.0910   54.6664   18.7582 H         1 UNK         0.0000 
     48 H48         6.3043   53.9164   20.1198 H         1 UNK         0.0000 
     49 H49         6.4754   56.4158   21.9418 H         1 UNK         0.0000 
     50 H50         7.8724   55.5604   21.2276 H         1 UNK         0.0000 
     51 H51         7.5047   55.3258   23.6753 H         1 UNK         0.0000 
     52 H52         7.6374   53.7713   22.8386 H         1 UNK         0.0000 
     53 H53         5.5894   52.6228   22.1502 H         1 UNK         0.0000 
     54 H54         4.0818   52.8951   22.8924 H         1 UNK         0.0000 
     55 H55         3.9755   53.7368   20.5969 H         1 UNK         0.0000 
     56 H56         4.0185   55.1711   21.6813 H         1 UNK         0.0000 
     57 H57         2.7783   54.5256   23.4884 H         1 UNK         0.0000 
     58 H58         0.6858   53.6810   24.3989 H         1 UNK         0.0000 
     59 H59         0.5629   52.8994   26.7437 H         1 UNK         0.0000 
     60 H60         2.5865   52.9443   28.1649 H         1 UNK         0.0000 
     61 H61         3.6633   50.6815   16.0816 H         1 UNK         0.0000 
@<TRIPOS>BOND
     1    1    2 1    
     2    1   37 1    
     3    1   38 1    
     4    1   39 1    
     5    2    3 1    
     6    2   11 1    
     7    2    4 1    
     8    4    5 2    
     9    4   17 1    
    10    5   10 1    
    11    5    6 1    
    12    6    7 2    
    13    6   40 1    
    14    7    8 1    
    15    7   12 1    
    16    8    9 2    
    17    8   41 1    
    18    9   10 1    
    19    9   42 1    
    20   10   11 2    
    21   11   61 1    
    22   12   13 1    
    23   13   14 1    
    24   13   15 1    
    25   13   16 1    
    26   17   18 1    
    27   17   43 1    
    28   17   44 1    
    29   18   19 1    
    30   18   45 1    
    31   18   46 1    
    32   19   20 am   BACKBONE|DICT|INTERRES
    33   19   47 1    
    34   20   21 2    
    35   20   22 1    
    36   22   27 1    
    37   22   23 1    
    38   22   48 1    
    39   23   24 1    
    40   23   49 1    
    41   23   50 1    
    42   24   25 1    
    43   24   51 1    
    44   24   52 1    
    45   25   26 1    
    46   25   28 am   BACKBONE|DICT|INTERRES
    47   26   27 1    
    48   26   53 1    
    49   26   54 1    
    50   27   55 1    
    51   27   56 1    
    52   28   29 2    
    53   28   30 1    
    54   30   35 ar   
    55   30   31 ar   
    56   31   32 ar   
    57   31   57 1    
    58   32   33 ar   
    59   32   58 1    
    60   33   34 ar   
    61   33   59 1    
    62   34   35 ar   
    63   34   60 1    
    64   35   36 1    
@<TRIPOS>SUBSTRUCTURE
     1 UNK         1 GROUP             0       ****    0 ROOT    
