@<TRIPOS>MOLECULE
ZINC08231517_1422
42   45    1
SMALL
USER_CHARGES


@<TRIPOS>ATOM
      1 C1          6.2868   53.8310   28.4810 C.ar      1 UNK         0.0000 
      2 C2          6.6797   54.2738   27.2237 C.ar      1 UNK         0.0000 
      3 C3          5.7439   54.4071   26.1906 C.ar      1 UNK         0.0000 
      4 C4          4.3998   54.0971   26.4467 C.ar      1 UNK         0.0000 
      5 C5          3.9995   53.6581   27.7083 C.ar      1 UNK         0.0000 
      6 C6          4.9525   53.5201   28.7257 C.ar      1 UNK         0.0000 
      7 N7          2.6550   53.2989   27.8574 N.am      1 UNK         0.0000 
      8 C8          1.9310   53.2385   28.9926 C.2       1 UNK         0.0000 
      9 O9          2.3015   53.6808   30.0818 O.2       1 UNK         0.0000 
     10 C10         0.6719   52.5458   28.8621 C.2       1 UNK         0.0000 
     11 C11        -0.1825   52.1780   29.9008 C.2       1 UNK         0.0000 
     12 C12        -1.2954   51.4570   29.4623 C.2       1 UNK         0.0000 
     13 C13        -1.3357   51.2999   28.0862 C.2       1 UNK         0.0000 
     14 S14         0.0175   52.0480   27.3127 S.3       1 UNK         0.0000 
     15 C15         6.1913   54.8816   24.8364 C.2       1 UNK         0.0000 
     16 O16         7.1044   55.6967   24.7543 O.2       1 UNK         0.0000 
     17 N17         5.5371   54.3252   23.7964 N.am      1 UNK         0.0000 
     18 C18         5.7183   54.4895   22.4131 C.ar      1 UNK         0.0000 
     19 C19         6.7046   55.2933   21.8191 C.ar      1 UNK         0.0000 
     20 C20         6.8187   55.3348   20.4311 C.ar      1 UNK         0.0000 
     21 C21         5.9544   54.5752   19.6321 C.ar      1 UNK         0.0000 
     22 C22         4.9586   53.7951   20.2251 C.ar      1 UNK         0.0000 
     23 C23         4.8421   53.7572   21.6094 C.ar      1 UNK         0.0000 
     24 N24         6.1020   54.5595   18.2290 N.pl3     1 UNK         0.0000 
     25 C25         5.8895   53.5246   17.3448 C.ar      1 UNK         0.0000 
     26 N26         6.1418   53.8983   16.1167 N.2       1 UNK         0.0000 
     27 N27         6.5304   55.2308   16.2173 N.2       1 UNK         0.0000 
     28 N28         6.5041   55.6376   17.5379 N.2       1 UNK         0.0000 
     29 H29         7.0264   53.7293   29.2625 H         1 UNK         0.0000 
     30 H30         7.7232   54.4969   27.0627 H         1 UNK         0.0000 
     31 H31         3.6565   54.2005   25.6681 H         1 UNK         0.0000 
     32 H32         4.6791   53.1477   29.6998 H         1 UNK         0.0000 
     33 H33         2.1918   52.9933   27.0158 H         1 UNK         0.0000 
     34 H34         0.0071   52.3830   30.9466 H         1 UNK         0.0000 
     35 H35        -2.0309   51.0306   30.1318 H         1 UNK         0.0000 
     36 H36        -2.0669   50.7480   27.5125 H         1 UNK         0.0000 
     37 H37         4.8215   53.6622   24.0465 H         1 UNK         0.0000 
     38 H38         7.4089   55.8626   22.4051 H         1 UNK         0.0000 
     39 H39         7.6016   55.9313   19.9837 H         1 UNK         0.0000 
     40 H40         4.2788   53.2076   19.6235 H         1 UNK         0.0000 
     41 H41         4.0724   53.1375   22.0472 H         1 UNK         0.0000 
     42 H42         5.5716   52.5455   17.6809 H         1 UNK         0.0000 
@<TRIPOS>BOND
     1    1    6 ar   
     2    1    2 ar   
     3    1   29 1    
     4    2    3 ar   
     5    2   30 1    
     6    3    4 ar   
     7    3   15 1    
     8    4    5 ar   
     9    4   31 1    
    10    5    6 ar   
    11    5    7 1    
    12    6   32 1    
    13    7    8 am   BACKBONE|DICT|INTERRES
    14    7   33 1    
    15    8    9 2    
    16    8   10 1    
    17   10   14 1    
    18   10   11 2    
    19   11   12 1    
    20   11   34 1    
    21   12   13 2    
    22   12   35 1    
    23   13   14 1    
    24   13   36 1    
    25   15   16 2    
    26   15   17 am   BACKBONE|DICT|INTERRES
    27   17   18 1    
    28   17   37 1    
    29   18   23 ar   
    30   18   19 ar   
    31   19   20 ar   
    32   19   38 1    
    33   20   21 ar   
    34   20   39 1    
    35   21   22 ar   
    36   21   24 1    
    37   22   23 ar   
    38   22   40 1    
    39   23   41 1    
    40   24   28 ar   
    41   24   25 ar   
    42   25   26 ar   
    43   25   42 1    
    44   26   27 ar   
    45   27   28 ar   
@<TRIPOS>SUBSTRUCTURE
     1 UNK         1 GROUP             0       ****    0 ROOT    
