@<TRIPOS>MOLECULE
ZINC39596277_281
69   72    1
SMALL
USER_CHARGES


@<TRIPOS>ATOM
      1 C1          4.3374   53.7384   25.1515 C.3       1 UNK         0.0000 
      2 C2          4.9651   54.0959   23.8102 C.ar      1 UNK         0.0000 
      3 C3          4.3096   53.7382   22.6328 C.ar      1 UNK         0.0000 
      4 C4          4.8015   54.1373   21.3917 C.ar      1 UNK         0.0000 
      5 C5          5.9786   54.9042   21.2821 C.ar      1 UNK         0.0000 
      6 C6          6.6802   55.1631   22.4787 C.ar      1 UNK         0.0000 
      7 C7          6.1767   54.7976   23.7308 C.ar      1 UNK         0.0000 
      8 C8          6.9163   55.2509   24.9813 C.3       1 UNK         0.0000 
      9 C9          6.5013   55.5489   19.9911 C.2       1 UNK         0.0000 
     10 O10         7.5340   56.2218   20.0768 O.2       1 UNK         0.0000 
     11 N11         5.8494   55.4972   18.7924 N.am      1 UNK         0.0000 
     12 C12         4.7045   54.6830   18.3967 C.3       1 UNK         0.0000 
     13 C13         4.5570   54.9406   16.8774 C.3       1 UNK         0.0000 
     14 H14         5.1793   54.1910   16.3856 H         1 UNK         0.0000 
     15 C15         5.0904   56.3809   16.6828 C.3       1 UNK         0.0000 
     16 C16         6.2841   56.3441   17.6692 C.3       1 UNK         0.0000 
     17 C17         5.5010   56.7111   15.2266 C.3       1 UNK         0.0000 
     18 C18         6.2149   58.0783   15.1386 C.3       1 UNK         0.0000 
     19 N19         5.2495   59.1688   15.6578 N.4       1 UNK         0.0000 
     20 C20         4.6503   58.8949   17.0538 C.3       1 UNK         0.0000 
     21 C21         4.0459   57.4780   17.0658 C.3       1 UNK         0.0000 
     22 C22         3.1113   54.6606   16.3817 C.2       1 UNK         0.0000 
     23 O23         2.8867   54.6575   15.1694 O.2       1 UNK         0.0000 
     24 N24         2.1692   54.3425   17.2830 N.am      1 UNK         0.0000 
     25 C25         0.8517   53.7822   17.0062 C.3       1 UNK         0.0000 
     26 C26         0.9129   52.2984   16.5682 C.3       1 UNK         0.0000 
     27 H27         1.2784   52.3022   15.5390 H         1 UNK         0.0000 
     28 C28        -0.4715   51.6186   16.5616 C.3       1 UNK         0.0000 
     29 O29         1.9037   51.5352   17.2734 O.3       1 UNK         0.0000 
     30 C30         1.6639   51.0268   18.5325 C.ar      1 UNK         0.0000 
     31 C31         1.7634   49.6421   18.6935 C.ar      1 UNK         0.0000 
     32 C32         1.6027   49.0678   19.9503 C.ar      1 UNK         0.0000 
     33 C33         1.3544   49.8883   21.0506 C.ar      1 UNK         0.0000 
     34 C34         1.2651   51.2719   20.9036 C.ar      1 UNK         0.0000 
     35 C35         1.4253   51.8455   19.6425 C.ar      1 UNK         0.0000 
     36 F36         1.2024   49.3288   22.2726 F         1 UNK         0.0000 
     37 H37         3.5202   53.0223   25.0498 H         1 UNK         0.0000 
     38 H38         5.0807   53.2955   25.8150 H         1 UNK         0.0000 
     39 H39         3.9571   54.6379   25.6380 H         1 UNK         0.0000 
     40 H40         3.3856   53.1796   22.6754 H         1 UNK         0.0000 
     41 H41         4.1934   53.8416   20.5610 H         1 UNK         0.0000 
     42 H42         7.6048   55.7248   22.4569 H         1 UNK         0.0000 
     43 H43         6.2191   55.5887   25.7475 H         1 UNK         0.0000 
     44 H44         7.5031   54.4314   25.3932 H         1 UNK         0.0000 
     45 H45         7.5677   56.0984   24.7678 H         1 UNK         0.0000 
     46 H46         3.8558   55.1036   18.9382 H         1 UNK         0.0000 
     47 H47         4.8469   53.6167   18.5882 H         1 UNK         0.0000 
     48 H48         7.1125   55.8292   17.1785 H         1 UNK         0.0000 
     49 H49         6.6555   57.3319   17.9433 H         1 UNK         0.0000 
     50 H50         6.2015   55.9531   14.8752 H         1 UNK         0.0000 
     51 H51         4.6506   56.6536   14.5440 H         1 UNK         0.0000 
     52 H52         7.1159   58.1431   15.7525 H         1 UNK         0.0000 
     53 H53         6.4637   58.3553   14.1142 H         1 UNK         0.0000 
     54 H54         5.6914   60.0799   15.6993 H         1 UNK         0.0000 
     55 H55         5.4633   59.0480   17.7655 H         1 UNK         0.0000 
     56 H56         3.8912   59.6679   17.2293 H         1 UNK         0.0000 
     57 H57         3.1541   57.4335   16.4362 H         1 UNK         0.0000 
     58 H58         3.6863   57.3061   18.0785 H         1 UNK         0.0000 
     59 H59         2.4001   54.4200   18.2657 H         1 UNK         0.0000 
     60 H60         0.3318   54.3779   16.2557 H         1 UNK         0.0000 
     61 H61         0.2583   53.8761   17.9164 H         1 UNK         0.0000 
     62 H62        -1.1741   52.1581   15.9269 H         1 UNK         0.0000 
     63 H63        -0.3942   50.6022   16.1760 H         1 UNK         0.0000 
     64 H64        -0.9003   51.5610   17.5625 H         1 UNK         0.0000 
     65 H65         1.9978   49.0231   17.8368 H         1 UNK         0.0000 
     66 H66         1.6869   47.9982   20.0758 H         1 UNK         0.0000 
     67 H67         1.0927   51.8956   21.7678 H         1 UNK         0.0000 
     68 H68         1.4043   52.9189   19.5460 H         1 UNK         0.0000 
     69 H69         4.4823   59.2741   15.0096 H         1 UNK         0.0000 
@<TRIPOS>BOND
     1    1    2 1    
     2    1   37 1    
     3    1   38 1    
     4    1   39 1    
     5    2    7 ar   
     6    2    3 ar   
     7    3    4 ar   
     8    3   40 1    
     9    4    5 ar   
    10    4   41 1    
    11    5    6 ar   
    12    5    9 1    
    13    6    7 ar   
    14    6   42 1    
    15    7    8 1    
    16    8   43 1    
    17    8   44 1    
    18    8   45 1    
    19    9   10 2    
    20    9   11 am   BACKBONE|DICT|INTERRES
    21   11   16 1    
    22   11   12 1    
    23   12   13 1    
    24   12   46 1    
    25   12   47 1    
    26   13   14 1    
    27   13   15 1    
    28   13   22 1    
    29   15   21 1    
    30   15   16 1    
    31   15   17 1    
    32   16   48 1    
    33   16   49 1    
    34   17   18 1    
    35   17   50 1    
    36   17   51 1    
    37   18   19 1    
    38   18   52 1    
    39   18   53 1    
    40   19   20 1    
    41   19   54 1    
    42   19   69 1    
    43   20   21 1    
    44   20   55 1    
    45   20   56 1    
    46   21   57 1    
    47   21   58 1    
    48   22   23 2    
    49   22   24 am   BACKBONE|DICT|INTERRES
    50   24   25 1    
    51   24   59 1    
    52   25   26 1    
    53   25   60 1    
    54   25   61 1    
    55   26   27 1    
    56   26   28 1    
    57   26   29 1    
    58   28   62 1    
    59   28   63 1    
    60   28   64 1    
    61   29   30 1    
    62   30   35 ar   
    63   30   31 ar   
    64   31   32 ar   
    65   31   65 1    
    66   32   33 ar   
    67   32   66 1    
    68   33   34 ar   
    69   33   36 1    
    70   34   35 ar   
    71   34   67 1    
    72   35   68 1    
@<TRIPOS>SUBSTRUCTURE
     1 UNK         1 GROUP             0       ****    0 ROOT    
