@<TRIPOS>MOLECULE
ZINC04081366_1876
57   59    1
SMALL
USER_CHARGES


@<TRIPOS>ATOM
      1 C1          2.1097   54.2273   27.3260 C.3       1 UNK         0.0000 
      2 C2          1.8628   53.6980   25.8894 C.3       1 UNK         0.0000 
      3 H3          1.1044   54.3310   25.4604 H         1 UNK         0.0000 
      4 C4          1.2170   52.3163   26.0418 C.3       1 UNK         0.0000 
      5 C5          0.7726   51.6683   24.7289 C.3       1 UNK         0.0000 
      6 C6          1.8655   51.6454   23.6278 C.3       1 UNK         0.0000 
      7 H7          2.7044   51.1230   24.0812 H         1 UNK         0.0000 
      8 C8          2.4579   53.0925   23.3759 C.3       1 UNK         0.0000 
      9 C9          2.9578   53.7651   24.7597 C.3       1 UNK         0.0000 
     10 C10         3.3935   55.1846   24.5212 C.3       1 UNK         0.0000 
     11 C11         4.4830   55.5059   25.5331 C.3       1 UNK         0.0000 
     12 C12         5.2688   54.2219   25.5347 C.3       1 UNK         0.0000 
     13 O13         4.1994   53.2967   25.2983 O.3       1 UNK         0.0000 
     14 C14         5.8763   53.8960   26.9148 C.3       1 UNK         0.0000 
     15 C15         6.3413   54.1465   24.4141 C.3       1 UNK         0.0000 
     16 O16         7.1044   55.3340   24.3756 O.3       1 UNK         0.0000 
     17 C17         3.6269   52.9530   22.3380 C.3       1 UNK         0.0000 
     18 C18         3.2976   52.1495   21.0658 C.3       1 UNK         0.0000 
     19 C19         2.7208   50.7552   21.3784 C.3       1 UNK         0.0000 
     20 H20         3.5045   50.2096   21.9033 H         1 UNK         0.0000 
     21 C21         1.4703   50.7775   22.3358 C.3       1 UNK         0.0000 
     22 C22         0.2423   51.3223   21.5327 C.3       1 UNK         0.0000 
     23 C23         1.2201   49.2973   22.7793 C.3       1 UNK         0.0000 
     24 O24        -0.0955   49.0227   23.2354 O.3       1 UNK         0.0000 
     25 O25         2.5033   50.0657   20.1546 O.3       1 UNK         0.0000 
     26 C26         1.3673   53.9780   22.7161 C.3       1 UNK         0.0000 
     27 H27         2.9359   53.7037   27.8030 H         1 UNK         0.0000 
     28 H28         2.2994   55.2945   27.3744 H         1 UNK         0.0000 
     29 H29         1.2361   54.0754   27.9619 H         1 UNK         0.0000 
     30 H30         0.3351   52.3889   26.6816 H         1 UNK         0.0000 
     31 H31         1.9036   51.6967   26.6067 H         1 UNK         0.0000 
     32 H32        -0.1443   52.1294   24.3645 H         1 UNK         0.0000 
     33 H33         0.4799   50.6552   24.9923 H         1 UNK         0.0000 
     34 H34         2.5008   55.7801   24.4818 H         1 UNK         0.0000 
     35 H35         3.8270   55.2964   23.5360 H         1 UNK         0.0000 
     36 H36         4.1041   55.6965   26.5210 H         1 UNK         0.0000 
     37 H37         5.1044   56.3677   25.2824 H         1 UNK         0.0000 
     38 H38         6.6674   54.6001   27.1738 H         1 UNK         0.0000 
     39 H39         5.1376   53.9291   27.7136 H         1 UNK         0.0000 
     40 H40         6.3073   52.8965   26.9249 H         1 UNK         0.0000 
     41 H41         5.8958   54.0369   23.4304 H         1 UNK         0.0000 
     42 H42         7.0068   53.2968   24.5563 H         1 UNK         0.0000 
     43 H43         8.0126   55.1400   24.0814 H         1 UNK         0.0000 
     44 H44         3.9876   53.9249   22.0078 H         1 UNK         0.0000 
     45 H45         4.4940   52.4968   22.8018 H         1 UNK         0.0000 
     46 H46         4.2000   52.0489   20.4597 H         1 UNK         0.0000 
     47 H47         2.6041   52.7212   20.4502 H         1 UNK         0.0000 
     48 H48        -0.2914   50.5049   21.0466 H         1 UNK         0.0000 
     49 H49        -0.4865   51.8254   22.1657 H         1 UNK         0.0000 
     50 H50         0.5019   51.9841   20.7091 H         1 UNK         0.0000 
     51 H51         1.4054   48.6014   21.9608 H         1 UNK         0.0000 
     52 H52         1.9047   49.0231   23.5703 H         1 UNK         0.0000 
     53 H53        -0.0417   48.3953   23.9611 H         1 UNK         0.0000 
     54 H54         3.2463   50.2153   19.5584 H         1 UNK         0.0000 
     55 H55         1.0941   53.6942   21.7118 H         1 UNK         0.0000 
     56 H56         0.4578   54.0341   23.3102 H         1 UNK         0.0000 
     57 H57         1.7140   54.9877   22.5703 H         1 UNK         0.0000 
@<TRIPOS>BOND
     1    1    2 1    
     2    1   27 1    
     3    1   28 1    
     4    1   29 1    
     5    2    3 1    
     6    2    9 1    
     7    2    4 1    
     8    4    5 1    
     9    4   30 1    
    10    4   31 1    
    11    5    6 1    
    12    5   32 1    
    13    5   33 1    
    14    6    7 1    
    15    6   21 1    
    16    6    8 1    
    17    8    9 1    
    18    8   17 1    
    19    8   26 1    
    20    9   13 1    
    21    9   10 1    
    22   10   11 1    
    23   10   34 1    
    24   10   35 1    
    25   11   12 1    
    26   11   36 1    
    27   11   37 1    
    28   12   13 1    
    29   12   14 1    
    30   12   15 1    
    31   14   38 1    
    32   14   39 1    
    33   14   40 1    
    34   15   16 1    
    35   15   41 1    
    36   15   42 1    
    37   16   43 1    
    38   17   18 1    
    39   17   44 1    
    40   17   45 1    
    41   18   19 1    
    42   18   46 1    
    43   18   47 1    
    44   19   20 1    
    45   19   21 1    
    46   19   25 1    
    47   21   22 1    
    48   21   23 1    
    49   22   48 1    
    50   22   49 1    
    51   22   50 1    
    52   23   24 1    
    53   23   51 1    
    54   23   52 1    
    55   24   53 1    
    56   25   54 1    
    57   26   55 1    
    58   26   56 1    
    59   26   57 1    
@<TRIPOS>SUBSTRUCTURE
     1 UNK         1 GROUP             0       ****    0 ROOT    
