@<TRIPOS>MOLECULE
ZINC63426751_2942
71   74    1
SMALL
USER_CHARGES


@<TRIPOS>ATOM
      1 C1          0.5233   52.4941   26.6695 C.3       1 UNK         0.0000 
      2 C2          1.8676   53.0201   27.1426 C.ar      1 UNK         0.0000 
      3 C3          2.2602   52.8258   28.4659 C.ar      1 UNK         0.0000 
      4 C4          3.4888   53.3124   28.9083 C.ar      1 UNK         0.0000 
      5 C5          4.3465   53.9890   28.0355 C.ar      1 UNK         0.0000 
      6 C6          3.9612   54.1614   26.6851 C.ar      1 UNK         0.0000 
      7 C7          2.7129   53.6964   26.2619 C.ar      1 UNK         0.0000 
      8 N8          4.7278   54.8222   25.7106 N.am      1 UNK         0.0000 
      9 C9          6.0082   54.5597   25.3884 C.2       1 UNK         0.0000 
     10 O10         6.7042   53.6982   25.9266 O.2       1 UNK         0.0000 
     11 C11         6.6109   55.4164   24.2786 C.3       1 UNK         0.0000 
     12 S12         6.3185   54.7178   22.6186 S.3       1 UNK         0.0000 
     13 C13         7.2336   55.8896   21.5576 C.3       1 UNK         0.0000 
     14 H14         7.8699   56.4967   22.1996 H         1 UNK         0.0000 
     15 N15         6.3272   56.7343   20.8348 N.2       1 UNK         0.0000 
     16 N16         6.3430   56.4177   19.6157 N.2       1 UNK         0.0000 
     17 C17         7.2590   55.3243   19.4399 C.3       1 UNK         0.0000 
     18 H18         6.6599   54.4119   19.3832 H         1 UNK         0.0000 
     19 O19         8.0701   55.2965   20.5945 O.3       1 UNK         0.0000 
     20 C20         8.1164   55.4571   18.1488 C.3       1 UNK         0.0000 
     21 H21         7.4010   55.5417   17.3266 H         1 UNK         0.0000 
     22 C22         9.0047   54.1985   17.9339 C.3       1 UNK         0.0000 
     23 C23         8.5151   53.2198   16.8736 C.2       1 UNK         0.0000 
     24 C24         9.2098   52.4650   16.0005 C.2       1 UNK         0.0000 
     25 C25        10.6609   52.2968   15.8130 C.2       1 UNK         0.0000 
     26 C26        11.1423   51.4743   14.8592 C.2       1 UNK         0.0000 
     27 C27        10.1873   50.7605   14.0209 C.2       1 UNK         0.0000 
     28 C28         8.8458   50.9087   14.1775 C.2       1 UNK         0.0000 
     29 C29         8.3356   51.7645   15.1655 C.2       1 UNK         0.0000 
     30 N30         7.0901   52.0451   15.4671 N.pl3     1 UNK         0.0000 
     31 C31         7.0426   52.9816   16.6000 C.3       1 UNK         0.0000 
     32 N32         8.8959   56.6951   18.0740 N.am      1 UNK         0.0000 
     33 C33         9.4760   57.1472   16.8896 C.2       1 UNK         0.0000 
     34 O34         9.4685   56.5286   15.8272 O.2       1 UNK         0.0000 
     35 O35        10.0818   58.3740   16.9869 O.3       1 UNK         0.0000 
     36 C36        10.0860   59.3000   18.0885 C.3       1 UNK         0.0000 
     37 C37         8.6457   59.7192   18.4813 C.3       1 UNK         0.0000 
     38 C38        10.9017   58.7415   19.2785 C.3       1 UNK         0.0000 
     39 C39        10.8254   60.5287   17.5249 C.3       1 UNK         0.0000 
     40 C40         5.6325   54.5602   28.6182 C.3       1 UNK         0.0000 
     41 H41         0.5361   51.4038   26.6274 H         1 UNK         0.0000 
     42 H42        -0.2617   52.7891   27.3648 H         1 UNK         0.0000 
     43 H43         0.2523   52.8851   25.6878 H         1 UNK         0.0000 
     44 H44         1.6107   52.3048   29.1564 H         1 UNK         0.0000 
     45 H45         3.7709   53.1688   29.9407 H         1 UNK         0.0000 
     46 H46         2.4036   53.8376   25.2362 H         1 UNK         0.0000 
     47 H47         4.2150   55.4189   25.0835 H         1 UNK         0.0000 
     48 H48         6.2422   56.4377   24.3323 H         1 UNK         0.0000 
     49 H49         7.6759   55.4961   24.4677 H         1 UNK         0.0000 
     50 H50        10.0251   54.4757   17.6662 H         1 UNK         0.0000 
     51 H51         9.1159   53.6762   18.8794 H         1 UNK         0.0000 
     52 H52        11.3728   52.8240   16.4317 H         1 UNK         0.0000 
     53 H53        12.2064   51.3456   14.7138 H         1 UNK         0.0000 
     54 H54        10.5629   50.1006   13.2467 H         1 UNK         0.0000 
     55 H55         8.1862   50.3556   13.5254 H         1 UNK         0.0000 
     56 H56         6.5152   52.4964   17.4212 H         1 UNK         0.0000 
     57 H57         6.4882   53.8596   16.2712 H         1 UNK         0.0000 
     58 H58         8.9819   57.2624   18.9016 H         1 UNK         0.0000 
     59 H59         8.0452   58.9073   18.8823 H         1 UNK         0.0000 
     60 H60         8.6332   60.4959   19.2400 H         1 UNK         0.0000 
     61 H61         8.1000   60.0987   17.6172 H         1 UNK         0.0000 
     62 H62        11.9140   58.4818   18.9688 H         1 UNK         0.0000 
     63 H63        10.9812   59.4698   20.0848 H         1 UNK         0.0000 
     64 H64        10.4755   57.8345   19.6981 H         1 UNK         0.0000 
     65 H65        10.2899   60.9667   16.6819 H         1 UNK         0.0000 
     66 H66        10.9577   61.3050   18.2758 H         1 UNK         0.0000 
     67 H67        11.8200   60.2640   17.1621 H         1 UNK         0.0000 
     68 H68         6.4249   53.8101   28.6184 H         1 UNK         0.0000 
     69 H69         5.9721   55.4362   28.0701 H         1 UNK         0.0000 
     70 H70         5.4810   54.8974   29.6451 H         1 UNK         0.0000 
     71 H71         6.2668   51.6586   15.0112 H         1 UNK         0.0000 
@<TRIPOS>BOND
     1    1    2 1    
     2    1   41 1    
     3    1   42 1    
     4    1   43 1    
     5    2    7 ar   
     6    2    3 ar   
     7    3    4 ar   
     8    3   44 1    
     9    4    5 ar   
    10    4   45 1    
    11    5    6 ar   
    12    5   40 1    
    13    6    7 ar   
    14    6    8 1    
    15    7   46 1    
    16    8    9 am   BACKBONE|DICT|INTERRES
    17    8   47 1    
    18    9   10 2    
    19    9   11 1    
    20   11   12 1    
    21   11   48 1    
    22   11   49 1    
    23   12   13 1    
    24   13   14 1    
    25   13   19 1    
    26   13   15 1    
    27   15   16 2    
    28   16   17 1    
    29   17   18 1    
    30   17   19 1    
    31   17   20 1    
    32   20   21 1    
    33   20   22 1    
    34   20   32 1    
    35   22   23 1    
    36   22   50 1    
    37   22   51 1    
    38   23   31 1    
    39   23   24 2    
    40   24   29 1    
    41   24   25 1    
    42   25   26 2    
    43   25   52 1    
    44   26   27 1    
    45   26   53 1    
    46   27   28 2    
    47   27   54 1    
    48   28   29 1    
    49   28   55 1    
    50   29   30 2    
    51   30   31 1    
    52   30   71 1    
    53   31   56 1    
    54   31   57 1    
    55   32   33 am   BACKBONE|DICT|INTERRES
    56   32   58 1    
    57   33   34 2    
    58   33   35 1    
    59   35   36 1    
    60   36   37 1    
    61   36   38 1    
    62   36   39 1    
    63   37   59 1    
    64   37   60 1    
    65   37   61 1    
    66   38   62 1    
    67   38   63 1    
    68   38   64 1    
    69   39   65 1    
    70   39   66 1    
    71   39   67 1    
    72   40   68 1    
    73   40   69 1    
    74   40   70 1    
@<TRIPOS>SUBSTRUCTURE
     1 UNK         1 GROUP             0       ****    0 ROOT    
