@<TRIPOS>MOLECULE
ZINC33312712_5854
41   44    1
SMALL
USER_CHARGES


@<TRIPOS>ATOM
      1 C1          7.9531   55.8138   18.5177 C.ar      1 UNK         0.0000 
      2 C2          6.7534   55.3474   17.9833 C.ar      1 UNK         0.0000 
      3 C3          5.7487   54.8831   18.8302 C.ar      1 UNK         0.0000 
      4 N4          5.9565   54.8963   20.1870 N.pl3     1 UNK         0.0000 
      5 C5          7.1486   55.3721   20.7509 C.ar      1 UNK         0.0000 
      6 C6          8.1679   55.8329   19.8976 C.ar      1 UNK         0.0000 
      7 N7          7.1074   55.2968   22.1013 N.2       1 UNK         0.0000 
      8 C8          5.9499   54.7409   22.4089 C.ar      1 UNK         0.0000 
      9 C9          5.1829   54.4963   21.2520 C.ar      1 UNK         0.0000 
     10 N10         3.9045   54.0041   21.1006 N.am      1 UNK         0.0000 
     11 C11         3.5647   52.7325   21.3601 C.2       1 UNK         0.0000 
     12 O12         4.3516   51.8375   21.6805 O.2       1 UNK         0.0000 
     13 N13         2.2312   52.5999   21.2724 N.am      1 UNK         0.0000 
     14 C14         1.5048   51.4496   21.5855 C.ar      1 UNK         0.0000 
     15 C15         0.5132   51.5520   22.5667 C.ar      1 UNK         0.0000 
     16 C16        -0.2853   50.4501   22.8690 C.ar      1 UNK         0.0000 
     17 C17        -0.1108   49.2515   22.1789 C.ar      1 UNK         0.0000 
     18 C18         0.8646   49.1513   21.1878 C.ar      1 UNK         0.0000 
     19 C19         1.6744   50.2446   20.8840 C.ar      1 UNK         0.0000 
     20 F20         2.5920   50.1304   19.8958 F         1 UNK         0.0000 
     21 F21        -0.8961   48.1885   22.4634 F         1 UNK         0.0000 
     22 C22         5.6049   54.4966   23.8558 C.ar      1 UNK         0.0000 
     23 C23         4.2734   54.4967   24.2910 C.ar      1 UNK         0.0000 
     24 C24         3.9670   54.3054   25.6357 C.ar      1 UNK         0.0000 
     25 C25         4.9918   54.1163   26.5580 C.ar      1 UNK         0.0000 
     26 C26         6.3199   54.1140   26.1444 C.ar      1 UNK         0.0000 
     27 C27         6.6233   54.3032   24.7984 C.ar      1 UNK         0.0000 
     28 F28         4.6959   53.9392   27.8649 F         1 UNK         0.0000 
     29 H29         8.7311   56.1615   17.8521 H         1 UNK         0.0000 
     30 H30         6.6082   55.3363   16.9121 H         1 UNK         0.0000 
     31 H31         4.8064   54.4867   18.4799 H         1 UNK         0.0000 
     32 H32         9.1049   56.1865   20.3015 H         1 UNK         0.0000 
     33 H33         3.1886   54.6348   20.7664 H         1 UNK         0.0000 
     34 H34         1.6944   53.4245   21.0411 H         1 UNK         0.0000 
     35 H35         0.3631   52.4799   23.0992 H         1 UNK         0.0000 
     36 H36        -1.0442   50.5223   23.6331 H         1 UNK         0.0000 
     37 H37         0.9904   48.2280   20.6433 H         1 UNK         0.0000 
     38 H38         3.4661   54.6638   23.5944 H         1 UNK         0.0000 
     39 H39         2.9392   54.3061   25.9661 H         1 UNK         0.0000 
     40 H40         7.1072   53.9571   26.8663 H         1 UNK         0.0000 
     41 H41         7.6552   54.2931   24.4816 H         1 UNK         0.0000 
@<TRIPOS>BOND
     1    1    6 ar   
     2    1    2 ar   
     3    1   29 1    
     4    2    3 ar   
     5    2   30 1    
     6    3    4 ar   
     7    3   31 1    
     8    4    9 ar   
     9    4    5 ar   
    10    5    6 ar   
    11    5    7 ar   
    12    6   32 1    
    13    7    8 ar   
    14    8    9 ar   
    15    8   22 1    
    16    9   10 1    
    17   10   11 am   BACKBONE|DICT|INTERRES
    18   10   33 1    
    19   11   12 2    
    20   11   13 am   BACKBONE|DICT|INTERRES
    21   13   14 1    
    22   13   34 1    
    23   14   19 ar   
    24   14   15 ar   
    25   15   16 ar   
    26   15   35 1    
    27   16   17 ar   
    28   16   36 1    
    29   17   18 ar   
    30   17   21 1    
    31   18   19 ar   
    32   18   37 1    
    33   19   20 1    
    34   22   27 ar   
    35   22   23 ar   
    36   23   24 ar   
    37   23   38 1    
    38   24   25 ar   
    39   24   39 1    
    40   25   26 ar   
    41   25   28 1    
    42   26   27 ar   
    43   26   40 1    
    44   27   41 1    
@<TRIPOS>SUBSTRUCTURE
     1 UNK         1 GROUP             0       ****    0 ROOT    
