ZINC39686645_5555
                    3D
 Schrodinger Suite 2024-2.
 73 76  0  0  1  0            999 V2000
    0.2699   50.3278   20.0096 C   0  0  0  0  0  0
    0.8531   51.4065   20.9536 C   0  0  2  0  0  0
    0.8677   52.3531   20.4047 H   0  0  0  0  0  0
    2.3083   51.0407   21.3559 C   0  0  0  0  0  0
    3.2639   52.2288   21.4289 C   0  0  0  0  0  0
    4.2033   52.3916   20.4068 C   0  0  0  0  0  0
    5.1045   53.4481   20.4236 C   0  0  0  0  0  0
    5.1000   54.3410   21.4861 C   0  0  0  0  0  0
    4.1745   54.1870   22.5153 C   0  0  0  0  0  0
    3.2315   53.1435   22.4954 C   0  0  0  0  0  0
    2.2900   52.9600   23.4932 O   0  0  0  0  0  0
    2.1809   53.9468   24.5153 C   0  0  0  0  0  0
    0.0479   51.6128   22.1629 N   0  0  0  0  0  0
   -1.2789   51.7990   22.2735 C   0  0  0  0  0  0
   -2.0114   51.9342   21.2916 O   0  0  0  0  0  0
   -1.8649   51.8112   23.7134 C   0  0  1  0  0  0
   -1.8212   52.8492   24.0494 H   0  0  0  0  0  0
   -3.3695   51.4512   23.6300 C   0  0  0  0  0  0
   -3.6940   51.0085   24.9902 N   0  0  0  0  0  0
   -2.4747   50.7834   25.7679 C   0  0  0  0  0  0
   -1.3011   50.8127   24.7662 C   0  0  0  0  0  0
    0.0168   51.2484   25.4479 C   0  0  0  0  0  0
    0.3652   50.3272   26.6361 C   0  0  0  0  0  0
    0.5463   48.8972   26.0814 N   0  3  0  0  0  0
   -0.6565   48.3610   25.2771 C   0  0  0  0  0  0
   -1.0130   49.3880   24.1839 C   0  0  0  0  0  0
   -4.9639   51.1070   25.4714 C   0  0  0  0  0  0
   -5.8982   51.4479   24.7421 O   0  0  0  0  0  0
   -5.2475   50.9059   26.9488 C   0  0  0  0  0  0
   -4.6353   49.9105   27.7229 C   0  0  0  0  0  0
   -4.8433   49.8497   29.0975 C   0  0  0  0  0  0
   -5.7288   50.7347   29.7300 C   0  0  0  0  0  0
   -6.4437   51.6529   28.9463 C   0  0  0  0  0  0
   -6.1880   51.7366   27.5719 C   0  0  0  0  0  0
   -7.4894   52.5612   29.5915 C   0  0  0  0  0  0
   -8.4260   51.8287   30.1940 F   0  0  0  0  0  0
   -6.8997   53.3334   30.5018 F   0  0  0  0  0  0
   -8.0953   53.3520   28.7053 F   0  0  0  0  0  0
   -5.9475   50.7501   31.0951 O   0  0  0  0  0  0
   -5.1439   49.9345   31.9389 C   0  0  0  0  0  0
    0.9376   50.1513   19.1656 H   0  0  0  0  0  0
    0.1482   49.3731   20.5189 H   0  0  0  0  0  0
   -0.6843   50.6279   19.5781 H   0  0  0  0  0  0
    2.7247   50.3336   20.6355 H   0  0  0  0  0  0
    2.3378   50.5024   22.3045 H   0  0  0  0  0  0
    4.2493   51.6940   19.5906 H   0  0  0  0  0  0
    5.8169   53.5605   19.6190 H   0  0  0  0  0  0
    5.8065   55.1562   21.5104 H   0  0  0  0  0  0
    4.2031   54.8965   23.3266 H   0  0  0  0  0  0
    1.3594   53.7154   25.1843 H   0  0  0  0  0  0
    3.0880   54.0049   25.1189 H   0  0  0  0  0  0
    1.9677   54.9205   24.0799 H   0  0  0  0  0  0
    0.5953   51.7080   23.0052 H   0  0  0  0  0  0
   -3.9396   52.3212   23.2957 H   0  0  0  0  0  0
   -3.4947   50.5875   22.9726 H   0  0  0  0  0  0
   -2.4394   49.9284   26.4299 H   0  0  0  0  0  0
   -2.3739   51.6481   26.4270 H   0  0  0  0  0  0
    0.8458   51.3137   24.7457 H   0  0  0  0  0  0
   -0.1192   52.2497   25.8580 H   0  0  0  0  0  0
    1.2990   50.5979   27.1306 H   0  0  0  0  0  0
   -0.4152   50.2683   27.3953 H   0  0  0  0  0  0
    1.3763   48.8459   25.5042 H   0  0  0  0  0  0
   -0.3325   47.4064   24.8636 H   0  0  0  0  0  0
   -1.4530   48.1611   25.9953 H   0  0  0  0  0  0
   -1.9031   49.0144   23.6753 H   0  0  0  0  0  0
   -0.2357   49.3947   23.4213 H   0  0  0  0  0  0
   -3.9933   49.1599   27.2910 H   0  0  0  0  0  0
   -4.2980   49.1002   29.6540 H   0  0  0  0  0  0
   -6.7125   52.4739   26.9784 H   0  0  0  0  0  0
   -5.4259   50.1002   32.9783 H   0  0  0  0  0  0
   -5.2984   48.8788   31.7118 H   0  0  0  0  0  0
   -4.0830   50.1679   31.8447 H   0  0  0  0  0  0
    0.6977   48.2477   26.8488 H   0  0  0  0  0  0
  1  2  1  0  0  0
  1 41  1  0  0  0
  1 42  1  0  0  0
  1 43  1  0  0  0
  2  3  1  0  0  0
  2  4  1  0  0  0
  2 13  1  0  0  0
  4  5  1  0  0  0
  4 44  1  0  0  0
  4 45  1  0  0  0
  5 10  2  0  0  0
  5  6  1  0  0  0
  6  7  2  0  0  0
  6 46  1  0  0  0
  7  8  1  0  0  0
  7 47  1  0  0  0
  8  9  2  0  0  0
  8 48  1  0  0  0
  9 10  1  0  0  0
  9 49  1  0  0  0
 10 11  1  0  0  0
 11 12  1  0  0  0
 12 50  1  0  0  0
 12 51  1  0  0  0
 12 52  1  0  0  0
 13 14  1  0  0  0
 13 53  1  0  0  0
 14 15  2  0  0  0
 14 16  1  0  0  0
 16 17  1  0  0  0
 16 21  1  0  0  0
 16 18  1  0  0  0
 18 19  1  0  0  0
 18 54  1  0  0  0
 18 55  1  0  0  0
 19 20  1  0  0  0
 19 27  1  0  0  0
 20 21  1  0  0  0
 20 56  1  0  0  0
 20 57  1  0  0  0
 21 26  1  0  0  0
 21 22  1  0  0  0
 22 23  1  0  0  0
 22 58  1  0  0  0
 22 59  1  0  0  0
 23 24  1  0  0  0
 23 60  1  0  0  0
 23 61  1  0  0  0
 24 25  1  0  0  0
 24 62  1  0  0  0
 24 73  1  0  0  0
 25 26  1  0  0  0
 25 63  1  0  0  0
 25 64  1  0  0  0
 26 65  1  0  0  0
 26 66  1  0  0  0
 27 28  2  0  0  0
 27 29  1  0  0  0
 29 34  2  0  0  0
 29 30  1  0  0  0
 30 31  2  0  0  0
 30 67  1  0  0  0
 31 32  1  0  0  0
 31 68  1  0  0  0
 32 33  2  0  0  0
 32 39  1  0  0  0
 33 34  1  0  0  0
 33 35  1  0  0  0
 34 69  1  0  0  0
 35 36  1  0  0  0
 35 37  1  0  0  0
 35 38  1  0  0  0
 39 40  1  0  0  0
 40 70  1  0  0  0
 40 71  1  0  0  0
 40 72  1  0  0  0
M  CHG  1  24   1
M  END
> <i_i_glide_confnum>
305

> <i_i_glide_lignum>
5556

> <i_i_glide_posenum>
111

> <i_i_glide_rotatable_bonds>
10

> <i_m_Source_File_Index>
2813

> <b_m_subgroup_collapsed>
0

> <r_i_docking_score>
-3.38805

> <r_i_glide_ecoul>
-8.75473

> <r_i_glide_eff_state_penalty>
0

> <r_i_glide_einternal>
6.68885

> <r_i_glide_emodel>
-50.1376

> <r_i_glide_energy>
-42.5436

> <r_i_glide_erotb>
0.505533

> <r_i_glide_esite>
-0.179314

> <r_i_glide_evdw>
-33.7889

> <r_i_glide_gscore>
-3.38805

> <r_i_glide_hbond>
-0.0178687

> <r_i_glide_ligand_efficiency>
-0.0891591

> <r_i_glide_ligand_efficiency_ln>
-0.730562

> <r_i_glide_ligand_efficiency_sa>
-0.299751

> <r_i_glide_lipo>
-0.696592

> <r_i_glide_metal>
0

> <r_i_glide_rewards>
0.00285033

> <s_i_glide_gridfile>
wee1_glide-grid

> <s_m_Source_File>
wee1_decoys_glide_SP.sdf

> <s_m_Source_Path>
/Users/zhangxujun/Desktop

> <s_m_entry_id>
3088

> <s_m_entry_name>
wee1_decoys_glide_SP.2813

> <s_m_subgroup_title>
wee1_decoys_glide_SP

> <s_m_subgroupid>
wee1_decoys_glide_SP


$$$$
