@<TRIPOS>MOLECULE
ZINC05275965_1773
54   57    1
SMALL
USER_CHARGES


@<TRIPOS>ATOM
      1 C1         -0.0632   54.0840   28.4817 C.3       1 UNK         0.0000 
      2 C2          1.0642   53.0600   28.1869 C.3       1 UNK         0.0000 
      3 C3          0.4763   51.5871   28.1580 C.3       1 UNK         0.0000 
      4 C4         -0.2136   51.0589   26.8573 C.3       1 UNK         0.0000 
      5 H5         -1.2614   50.9069   27.1240 H         1 UNK         0.0000 
      6 C6         -0.1921   52.0836   25.6936 C.3       1 UNK         0.0000 
      7 H7         -0.7825   52.9031   26.0670 H         1 UNK         0.0000 
      8 C8          1.2715   52.5913   25.5467 C.3       1 UNK         0.0000 
      9 H9          1.9043   51.7124   25.4483 H         1 UNK         0.0000 
     10 C10         1.7370   53.4142   26.7995 C.3       1 UNK         0.0000 
     11 H11         1.5090   54.4584   26.5744 H         1 UNK         0.0000 
     12 C12         3.2646   53.3939   27.0390 C.3       1 UNK         0.0000 
     13 C13         3.4794   52.8111   28.4374 C.3       1 UNK         0.0000 
     14 C14         2.2427   53.2680   29.2313 C.3       1 UNK         0.0000 
     15 C15         2.0900   52.4966   30.5787 C.2       1 UNK         0.0000 
     16 O16         3.0184   51.7999   31.0061 O.2       1 UNK         0.0000 
     17 C17         0.7737   52.6694   31.3809 C.3       1 UNK         0.0000 
     18 O18         0.7044   51.7809   32.4817 O.3       1 UNK         0.0000 
     19 O19         2.4448   54.6151   29.6506 O.3       1 UNK         0.0000 
     20 C20         1.4146   53.3755   24.2311 C.3       1 UNK         0.0000 
     21 C21         1.1928   52.4734   22.9943 C.3       1 UNK         0.0000 
     22 C22         0.1202   51.3967   23.2275 C.2       1 UNK         0.0000 
     23 C23         0.1111   50.2498   22.5049 C.2       1 UNK         0.0000 
     24 C24        -0.8695   49.1699   22.6395 C.2       1 UNK         0.0000 
     25 O25        -0.8955   48.1788   21.9134 O.2       1 UNK         0.0000 
     26 C26        -1.8325   49.3825   23.7117 C.2       1 UNK         0.0000 
     27 C27        -1.8737   50.4922   24.4720 C.2       1 UNK         0.0000 
     28 C28        -0.9284   51.6981   24.3367 C.3       1 UNK         0.0000 
     29 C29        -1.8385   52.8551   23.8372 C.3       1 UNK         0.0000 
     30 O30         0.2547   49.7721   26.4817 O.3       1 UNK         0.0000 
     31 H31        -0.8957   53.9596   27.8115 H         1 UNK         0.0000 
     32 H32        -0.4675   54.0304   29.4880 H         1 UNK         0.0000 
     33 H33         0.3044   55.1003   28.3445 H         1 UNK         0.0000 
     34 H34         1.3428   50.9354   28.2750 H         1 UNK         0.0000 
     35 H35        -0.1134   51.3257   29.0338 H         1 UNK         0.0000 
     36 H36         3.6379   54.4201   27.0487 H         1 UNK         0.0000 
     37 H37         3.8324   52.8965   26.2542 H         1 UNK         0.0000 
     38 H38         4.4234   53.1335   28.8816 H         1 UNK         0.0000 
     39 H39         3.5109   51.7235   28.3771 H         1 UNK         0.0000 
     40 H40        -0.0933   52.4570   30.7642 H         1 UNK         0.0000 
     41 H41         0.6935   53.6955   31.7404 H         1 UNK         0.0000 
     42 H42        -0.2419   51.6967   32.7715 H         1 UNK         0.0000 
     43 H43         2.6726   55.1354   28.8769 H         1 UNK         0.0000 
     44 H44         0.7738   54.2573   24.2337 H         1 UNK         0.0000 
     45 H45         2.4210   53.7924   24.1715 H         1 UNK         0.0000 
     46 H46         2.1326   51.9773   22.7448 H         1 UNK         0.0000 
     47 H47         0.9482   53.0870   22.1261 H         1 UNK         0.0000 
     48 H48         0.8845   50.1249   21.7613 H         1 UNK         0.0000 
     49 H49        -2.5564   48.6071   23.9153 H         1 UNK         0.0000 
     50 H50        -2.6412   50.5314   25.2315 H         1 UNK         0.0000 
     51 H51        -2.3162   52.6101   22.8869 H         1 UNK         0.0000 
     52 H52        -2.6366   53.0712   24.5488 H         1 UNK         0.0000 
     53 H53        -1.2964   53.7846   23.6827 H         1 UNK         0.0000 
     54 H54        -0.1933   49.1195   27.0423 H         1 UNK         0.0000 
@<TRIPOS>BOND
     1    1    2 1    
     2    1   31 1    
     3    1   32 1    
     4    1   33 1    
     5    2   10 1    
     6    2   14 1    
     7    2    3 1    
     8    3    4 1    
     9    3   34 1    
    10    3   35 1    
    11    4    5 1    
    12    4    6 1    
    13    4   30 1    
    14    6    7 1    
    15    6   28 1    
    16    6    8 1    
    17    8    9 1    
    18    8   10 1    
    19    8   20 1    
    20   10   11 1    
    21   10   12 1    
    22   12   13 1    
    23   12   36 1    
    24   12   37 1    
    25   13   14 1    
    26   13   38 1    
    27   13   39 1    
    28   14   15 1    
    29   14   19 1    
    30   15   16 2    
    31   15   17 1    
    32   17   18 1    
    33   17   40 1    
    34   17   41 1    
    35   18   42 1    
    36   19   43 1    
    37   20   21 1    
    38   20   44 1    
    39   20   45 1    
    40   21   22 1    
    41   21   46 1    
    42   21   47 1    
    43   22   28 1    
    44   22   23 2    
    45   23   24 1    
    46   23   48 1    
    47   24   25 2    
    48   24   26 1    
    49   26   27 2    
    50   26   49 1    
    51   27   28 1    
    52   27   50 1    
    53   28   29 1    
    54   29   51 1    
    55   29   52 1    
    56   29   53 1    
    57   30   54 1    
@<TRIPOS>SUBSTRUCTURE
     1 UNK         1 GROUP             0       ****    0 ROOT    
