ZINC02984944_5177
                    3D
 Schrodinger Suite 2024-2.
 59 62  0  0  1  0            999 V2000
    2.3944   52.5115   30.3053 C   0  0  0  0  0  0
    1.7687   53.7509   29.6166 C   0  0  0  0  0  0
    0.3602   53.9540   30.2168 C   0  0  0  0  0  0
    2.6028   55.0194   29.9563 C   0  0  0  0  0  0
    1.7029   53.5998   28.0504 C   0  0  1  0  0  0
    1.3730   54.5720   27.6766 H   0  0  0  0  0  0
    3.0831   53.2856   27.4312 C   0  0  0  0  0  0
    3.1031   53.5540   25.9211 C   0  0  0  0  0  0
    1.8853   52.9517   25.2221 C   0  0  0  0  0  0
    0.7939   52.5028   25.9884 C   0  0  0  0  0  0
   -0.4791   51.8842   25.0106 S   0  0  0  0  0  0
    0.4129   52.2370   23.5537 C   0  0  0  0  0  0
    1.7030   52.7597   23.8152 C   0  0  0  0  0  0
    2.6891   53.0035   22.7437 C   0  0  0  0  0  0
    2.5194   52.4968   21.6342 O   0  0  0  0  0  0
    3.7539   53.7880   23.0431 N   0  0  0  0  0  0
    4.8042   54.2483   22.2016 C   0  0  0  0  0  0
    4.6886   54.2593   20.7979 C   0  0  0  0  0  0
    5.6995   54.7773   19.9934 C   0  0  0  0  0  0
    6.8504   55.2987   20.5707 C   0  0  0  0  0  0
    6.9907   55.2955   21.9545 C   0  0  0  0  0  0
    5.9854   54.7744   22.7850 C   0  0  0  0  0  0
    6.1864   54.8761   24.3044 C   0  0  0  0  0  0
    5.0961   55.2986   24.9195 F   0  0  0  0  0  0
    6.5263   53.6967   24.8021 F   0  0  0  0  0  0
    7.1267   55.7409   24.6479 F   0  0  0  0  0  0
   -0.1329   52.0312   22.2852 N   0  0  0  0  0  0
   -1.3922   51.6961   21.9302 C   0  0  0  0  0  0
   -2.3278   51.4625   22.6955 O   0  0  0  0  0  0
   -1.5975   51.6655   20.5045 C   0  0  0  0  0  0
   -2.7098   51.2944   19.7555 C   0  0  0  0  0  0
   -2.3869   51.5040   18.4133 C   0  0  0  0  0  0
   -1.0910   51.9907   18.3960 C   0  0  0  0  0  0
   -0.6142   52.0944   19.6628 O   0  0  0  0  0  0
    0.7046   52.5338   27.5163 C   0  0  0  0  0  0
    3.4374   52.3654   30.0245 H   0  0  0  0  0  0
    2.3699   52.5913   31.3926 H   0  0  0  0  0  0
    1.8539   51.6025   30.0454 H   0  0  0  0  0  0
   -0.0961   54.8415   29.7921 H   0  0  0  0  0  0
   -0.3020   53.1055   30.0445 H   0  0  0  0  0  0
    0.3958   54.1010   31.2971 H   0  0  0  0  0  0
    2.4991   55.7939   29.1953 H   0  0  0  0  0  0
    2.2839   55.5000   30.8798 H   0  0  0  0  0  0
    3.6695   54.8058   30.0411 H   0  0  0  0  0  0
    3.8432   53.9380   27.8595 H   0  0  0  0  0  0
    3.4191   52.2825   27.6906 H   0  0  0  0  0  0
    4.0423   53.1735   25.5279 H   0  0  0  0  0  0
    3.0730   54.6317   25.7724 H   0  0  0  0  0  0
    3.8216   54.0962   24.0003 H   0  0  0  0  0  0
    3.8020   53.9094   20.2932 H   0  0  0  0  0  0
    5.5838   54.7791   18.9192 H   0  0  0  0  0  0
    7.6363   55.6955   19.9441 H   0  0  0  0  0  0
    7.8986   55.7039   22.3775 H   0  0  0  0  0  0
    0.5173   52.2036   21.5276 H   0  0  0  0  0  0
   -3.6448   50.9128   20.1438 H   0  0  0  0  0  0
   -3.0163   51.3153   17.5557 H   0  0  0  0  0  0
   -0.4155   52.2891   17.6065 H   0  0  0  0  0  0
   -0.3170   52.7591   27.8215 H   0  0  0  0  0  0
    0.9398   51.5460   27.9138 H   0  0  0  0  0  0
  1  2  1  0  0  0
  1 36  1  0  0  0
  1 37  1  0  0  0
  1 38  1  0  0  0
  2  3  1  0  0  0
  2  4  1  0  0  0
  2  5  1  0  0  0
  3 39  1  0  0  0
  3 40  1  0  0  0
  3 41  1  0  0  0
  4 42  1  0  0  0
  4 43  1  0  0  0
  4 44  1  0  0  0
  5  6  1  0  0  0
  5 35  1  0  0  0
  5  7  1  0  0  0
  7  8  1  0  0  0
  7 45  1  0  0  0
  7 46  1  0  0  0
  8  9  1  0  0  0
  8 47  1  0  0  0
  8 48  1  0  0  0
  9 13  1  0  0  0
  9 10  2  0  0  0
 10 11  1  0  0  0
 10 35  1  0  0  0
 11 12  1  0  0  0
 12 13  2  0  0  0
 12 27  1  0  0  0
 13 14  1  0  0  0
 14 15  2  0  0  0
 14 16  1  0  0  0
 16 17  1  0  0  0
 16 49  1  0  0  0
 17 22  2  0  0  0
 17 18  1  0  0  0
 18 19  2  0  0  0
 18 50  1  0  0  0
 19 20  1  0  0  0
 19 51  1  0  0  0
 20 21  2  0  0  0
 20 52  1  0  0  0
 21 22  1  0  0  0
 21 53  1  0  0  0
 22 23  1  0  0  0
 23 24  1  0  0  0
 23 25  1  0  0  0
 23 26  1  0  0  0
 27 28  1  0  0  0
 27 54  1  0  0  0
 28 29  2  0  0  0
 28 30  1  0  0  0
 30 34  1  0  0  0
 30 31  2  0  0  0
 31 32  1  0  0  0
 31 55  1  0  0  0
 32 33  2  0  0  0
 32 56  1  0  0  0
 33 34  1  0  0  0
 33 57  1  0  0  0
 35 58  1  0  0  0
 35 59  1  0  0  0
M  END
> <i_i_glide_confnum>
34

> <i_i_glide_lignum>
5178

> <i_i_glide_posenum>
109

> <i_i_glide_rotatable_bonds>
8

> <i_m_Source_File_Index>
3800

> <b_m_subgroup_collapsed>
0

> <r_i_docking_score>
-5.36691

> <r_i_glide_ecoul>
-2.34324

> <r_i_glide_eff_state_penalty>
0

> <r_i_glide_einternal>
3.72545

> <r_i_glide_emodel>
-51.8112

> <r_i_glide_energy>
-41.7268

> <r_i_glide_erotb>
0.507453

> <r_i_glide_esite>
-0.0174295

> <r_i_glide_evdw>
-39.3835

> <r_i_glide_gscore>
-5.36691

> <r_i_glide_hbond>
0

> <r_i_glide_ligand_efficiency>
-0.15785

> <r_i_glide_ligand_efficiency_ln>
-1.1857

> <r_i_glide_ligand_efficiency_sa>
-0.511374

> <r_i_glide_lipo>
-2.56945

> <r_i_glide_metal>
0

> <r_i_glide_rewards>
-0.966819

> <s_i_glide_gridfile>
wee1_glide-grid

> <s_m_Source_File>
wee1_decoys_glide_SP.sdf

> <s_m_Source_Path>
/Users/zhangxujun/Desktop

> <s_m_entry_id>
4075

> <s_m_entry_name>
wee1_decoys_glide_SP.3800

> <s_m_subgroup_title>
wee1_decoys_glide_SP

> <s_m_subgroupid>
wee1_decoys_glide_SP


$$$$
