@<TRIPOS>MOLECULE
ZINC43552709_2532
43   44    1
SMALL
USER_CHARGES


@<TRIPOS>ATOM
      1 C1          6.5633   54.4583   28.0340 C.3       1 UNK         0.0000 
      2 C2          5.4578   53.6556   27.3261 C.3       1 UNK         0.0000 
      3 H3          5.8139   52.6294   27.2162 H         1 UNK         0.0000 
      4 C4          4.2125   53.6082   28.2188 C.ar      1 UNK         0.0000 
      5 C5          4.1199   52.6209   29.2051 C.ar      1 UNK         0.0000 
      6 C6          2.9647   52.4967   29.9697 C.ar      1 UNK         0.0000 
      7 C7          1.8936   53.3630   29.7487 C.ar      1 UNK         0.0000 
      8 C8          1.9897   54.3770   28.7963 C.ar      1 UNK         0.0000 
      9 C9          3.1448   54.4965   28.0312 C.ar      1 UNK         0.0000 
     10 S10         0.3524   53.1587   30.6263 S.o2      1 UNK         0.0000 
     11 O11        -0.0944   54.4967   31.0209 O.2       1 UNK         0.0000 
     12 O12        -0.4914   52.3050   29.7875 O.2       1 UNK         0.0000 
     13 N13         0.7044   52.2704   32.0817 N.pl3     1 UNK         0.0000 
     14 N14         5.1349   54.0967   25.9587 N.am      1 UNK         0.0000 
     15 C15         5.9619   54.4969   24.9797 C.2       1 UNK         0.0000 
     16 O16         7.0330   55.0697   25.1753 O.2       1 UNK         0.0000 
     17 N17         5.4368   54.1760   23.7807 N.am      1 UNK         0.0000 
     18 C18         5.8569   54.4967   22.4706 C.ar      1 UNK         0.0000 
     19 C19         6.9559   55.3280   22.1958 C.ar      1 UNK         0.0000 
     20 C20         7.3009   55.6521   20.8851 C.ar      1 UNK         0.0000 
     21 C21         6.5483   55.1551   19.8261 C.ar      1 UNK         0.0000 
     22 C22         5.4593   54.3236   20.0772 C.ar      1 UNK         0.0000 
     23 C23         5.1044   53.9886   21.3903 C.ar      1 UNK         0.0000 
     24 S24         3.7237   52.8955   21.6817 S.3       1 UNK         0.0000 
     25 C25         3.2701   52.0633   20.1326 C.3       1 UNK         0.0000 
     26 F26         2.4906   51.0102   20.3726 F         1 UNK         0.0000 
     27 F27         2.6393   52.8917   19.3019 F         1 UNK         0.0000 
     28 H28         6.7250   54.0980   29.0503 H         1 UNK         0.0000 
     29 H29         7.5218   54.3702   27.5259 H         1 UNK         0.0000 
     30 H30         6.3044   55.5160   28.0817 H         1 UNK         0.0000 
     31 H31         4.9366   51.9311   29.3604 H         1 UNK         0.0000 
     32 H32         2.9023   51.7177   30.7124 H         1 UNK         0.0000 
     33 H33         1.1611   55.0509   28.6275 H         1 UNK         0.0000 
     34 H34         3.1977   55.2739   27.2836 H         1 UNK         0.0000 
     35 H35        -0.1941   52.1498   32.5995 H         1 UNK         0.0000 
     36 H36         0.9629   51.3106   31.8598 H         1 UNK         0.0000 
     37 H37         4.2034   53.8419   25.6690 H         1 UNK         0.0000 
     38 H38         4.5886   53.6303   23.7965 H         1 UNK         0.0000 
     39 H39         7.5513   55.7529   22.9852 H         1 UNK         0.0000 
     40 H40         8.1592   56.2779   20.6900 H         1 UNK         0.0000 
     41 H41         6.8145   55.4031   18.8087 H         1 UNK         0.0000 
     42 H42         4.8982   53.9502   19.2347 H         1 UNK         0.0000 
     43 H43         4.1615   51.6967   19.6246 H         1 UNK         0.0000 
@<TRIPOS>BOND
     1    1    2 1    
     2    1   28 1    
     3    1   29 1    
     4    1   30 1    
     5    2    3 1    
     6    2    4 1    
     7    2   14 1    
     8    4    9 ar   
     9    4    5 ar   
    10    5    6 ar   
    11    5   31 1    
    12    6    7 ar   
    13    6   32 1    
    14    7    8 ar   
    15    7   10 1    
    16    8    9 ar   
    17    8   33 1    
    18    9   34 1    
    19   10   11 2    
    20   10   12 2    
    21   10   13 1    
    22   13   35 1    
    23   13   36 1    
    24   14   15 am   BACKBONE|DICT|INTERRES
    25   14   37 1    
    26   15   16 2    
    27   15   17 am   BACKBONE|DICT|INTERRES
    28   17   18 1    
    29   17   38 1    
    30   18   23 ar   
    31   18   19 ar   
    32   19   20 ar   
    33   19   39 1    
    34   20   21 ar   
    35   20   40 1    
    36   21   22 ar   
    37   21   41 1    
    38   22   23 ar   
    39   22   42 1    
    40   23   24 1    
    41   24   25 1    
    42   25   26 1    
    43   25   27 1    
    44   25   43 1    
@<TRIPOS>SUBSTRUCTURE
     1 UNK         1 GROUP             0       ****    0 ROOT    
