@<TRIPOS>MOLECULE
ZINC33252477_4188
65   68    1
SMALL
USER_CHARGES


@<TRIPOS>ATOM
      1 C1          1.1501   52.0559   29.6043 C.3       1 UNK         0.0000 
      2 C2          1.1753   53.5744   29.3459 C.3       1 UNK         0.0000 
      3 C3          2.3684   54.0810   28.4969 C.3       1 UNK         0.0000 
      4 H4          2.2427   55.1544   28.3346 H         1 UNK         0.0000 
      5 C5          3.7456   53.9431   29.2325 C.2       1 UNK         0.0000 
      6 O6          3.9042   53.6979   30.4265 O.2       1 UNK         0.0000 
      7 N7          4.7684   54.1387   28.3733 N.am      1 UNK         0.0000 
      8 C8          4.6610   54.1975   26.9810 C.ar      1 UNK         0.0000 
      9 C9          5.7428   54.5238   26.1633 C.ar      1 UNK         0.0000 
     10 C10         5.6227   54.4381   24.7675 C.ar      1 UNK         0.0000 
     11 C11         4.4093   54.0027   24.1930 C.ar      1 UNK         0.0000 
     12 C12         3.3122   53.7415   25.0237 C.ar      1 UNK         0.0000 
     13 C13         3.4434   53.8394   26.4010 C.ar      1 UNK         0.0000 
     14 O14         2.3884   53.4449   27.2003 O.3       1 UNK         0.0000 
     15 S15         4.2715   53.6201   22.4313 S.o2      1 UNK         0.0000 
     16 O16         5.4298   52.7808   22.1025 O.2       1 UNK         0.0000 
     17 O17         4.0610   54.8963   21.7502 O.2       1 UNK         0.0000 
     18 N18         2.8013   52.6321   22.2544 N.pl3     1 UNK         0.0000 
     19 C19         2.9025   51.2050   21.8721 C.3       1 UNK         0.0000 
     20 C20         1.8220   50.3861   22.6129 C.3       1 UNK         0.0000 
     21 C21         0.3724   50.9448   22.4308 C.3       1 UNK         0.0000 
     22 C22         0.3704   52.4626   22.7899 C.3       1 UNK         0.0000 
     23 C23         1.4796   53.2808   22.0834 C.3       1 UNK         0.0000 
     24 C24        -0.1828   50.7529   20.9862 C.2       1 UNK         0.0000 
     25 O25        -1.1195   51.4556   20.5978 O.2       1 UNK         0.0000 
     26 N26         0.4026   49.7944   20.2354 N.am      1 UNK         0.0000 
     27 C27         0.1497   49.3921   18.9107 C.ar      1 UNK         0.0000 
     28 C28        -1.0704   49.6294   18.2560 C.ar      1 UNK         0.0000 
     29 C29        -1.2595   49.2124   16.9396 C.ar      1 UNK         0.0000 
     30 C30        -0.2390   48.5480   16.2587 C.ar      1 UNK         0.0000 
     31 C31         0.9727   48.3014   16.9054 C.ar      1 UNK         0.0000 
     32 C32         1.1746   48.7097   18.2273 C.ar      1 UNK         0.0000 
     33 C33         2.5195   48.4050   18.8815 C.3       1 UNK         0.0000 
     34 C34        -0.4315   48.1155   14.8172 C.3       1 UNK         0.0000 
     35 C35         6.8261   54.8016   23.9137 C.3       1 UNK         0.0000 
     36 H36         0.2494   51.7695   30.1497 H         1 UNK         0.0000 
     37 H37         1.1570   51.4924   28.6700 H         1 UNK         0.0000 
     38 H38         2.0060   51.7302   30.1951 H         1 UNK         0.0000 
     39 H39         1.1356   54.1087   30.2969 H         1 UNK         0.0000 
     40 H40         0.2535   53.8469   28.8300 H         1 UNK         0.0000 
     41 H41         5.6825   54.1574   28.8007 H         1 UNK         0.0000 
     42 H42         6.6835   54.8090   26.6116 H         1 UNK         0.0000 
     43 H43         2.3711   53.3989   24.6325 H         1 UNK         0.0000 
     44 H44         3.9049   50.8390   22.0809 H         1 UNK         0.0000 
     45 H45         2.7425   51.1360   20.7955 H         1 UNK         0.0000 
     46 H46         2.0423   50.3740   23.6817 H         1 UNK         0.0000 
     47 H47         1.8710   49.3156   22.4065 H         1 UNK         0.0000 
     48 H48        -0.3676   50.4376   23.0513 H         1 UNK         0.0000 
     49 H49        -0.6208   52.8968   22.6509 H         1 UNK         0.0000 
     50 H50         0.4364   52.5510   23.8746 H         1 UNK         0.0000 
     51 H51         1.5250   54.3111   22.4395 H         1 UNK         0.0000 
     52 H52         1.2608   53.2965   21.0157 H         1 UNK         0.0000 
     53 H53         1.2244   49.3723   20.6367 H         1 UNK         0.0000 
     54 H54        -1.8885   50.1273   18.7518 H         1 UNK         0.0000 
     55 H55        -2.2027   49.4085   16.4516 H         1 UNK         0.0000 
     56 H56         1.7706   47.8012   16.3743 H         1 UNK         0.0000 
     57 H57         2.3851   47.9649   19.8696 H         1 UNK         0.0000 
     58 H58         3.1082   47.6977   18.2962 H         1 UNK         0.0000 
     59 H59         3.1008   49.3210   18.9952 H         1 UNK         0.0000 
     60 H60        -1.2423   48.6639   14.3359 H         1 UNK         0.0000 
     61 H61        -0.6397   47.0469   14.7635 H         1 UNK         0.0000 
     62 H62         0.4720   48.3136   14.2390 H         1 UNK         0.0000 
     63 H63         7.4887   55.4928   24.4355 H         1 UNK         0.0000 
     64 H64         7.3906   53.9090   23.6398 H         1 UNK         0.0000 
     65 H65         6.5203   55.3093   22.9984 H         1 UNK         0.0000 
@<TRIPOS>BOND
     1    1    2 1    
     2    1   36 1    
     3    1   37 1    
     4    1   38 1    
     5    2    3 1    
     6    2   39 1    
     7    2   40 1    
     8    3    4 1    
     9    3   14 1    
    10    3    5 1    
    11    5    6 2    
    12    5    7 am   BACKBONE|DICT|INTERRES
    13    7    8 1    
    14    7   41 1    
    15    8   13 ar   
    16    8    9 ar   
    17    9   10 ar   
    18    9   42 1    
    19   10   11 ar   
    20   10   35 1    
    21   11   12 ar   
    22   11   15 1    
    23   12   13 ar   
    24   12   43 1    
    25   13   14 1    
    26   15   16 2    
    27   15   17 2    
    28   15   18 1    
    29   18   23 1    
    30   18   19 1    
    31   19   20 1    
    32   19   44 1    
    33   19   45 1    
    34   20   21 1    
    35   20   46 1    
    36   20   47 1    
    37   21   22 1    
    38   21   24 1    
    39   21   48 1    
    40   22   23 1    
    41   22   49 1    
    42   22   50 1    
    43   23   51 1    
    44   23   52 1    
    45   24   25 2    
    46   24   26 am   BACKBONE|DICT|INTERRES
    47   26   27 1    
    48   26   53 1    
    49   27   32 ar   
    50   27   28 ar   
    51   28   29 ar   
    52   28   54 1    
    53   29   30 ar   
    54   29   55 1    
    55   30   31 ar   
    56   30   34 1    
    57   31   32 ar   
    58   31   56 1    
    59   32   33 1    
    60   33   57 1    
    61   33   58 1    
    62   33   59 1    
    63   34   60 1    
    64   34   61 1    
    65   34   62 1    
    66   35   63 1    
    67   35   64 1    
    68   35   65 1    
@<TRIPOS>SUBSTRUCTURE
     1 UNK         1 GROUP             0       ****    0 ROOT    
