@<TRIPOS>MOLECULE
ZINC38884774_5450
67   71    1
SMALL
USER_CHARGES


@<TRIPOS>ATOM
      1 C1          8.7293   50.0593   13.2385 C.3       1 UNK         0.0000 
      2 C2          8.1040   51.1532   14.1309 C.3       1 UNK         0.0000 
      3 H3          7.0508   50.8963   14.2441 H         1 UNK         0.0000 
      4 C4          8.7382   51.2720   15.5402 C.3       1 UNK         0.0000 
      5 C5         10.1715   51.8391   15.4802 C.3       1 UNK         0.0000 
      6 C6         10.1996   53.1794   14.7105 C.3       1 UNK         0.0000 
      7 C7          9.5294   53.0654   13.3240 C.3       1 UNK         0.0000 
      8 N8          8.1722   52.4482   13.3925 N.pl3     1 UNK         0.0000 
      9 S9          6.7561   53.5266   13.4624 S.o2      1 UNK         0.0000 
     10 O10         5.5690   52.7197   13.1527 O.2       1 UNK         0.0000 
     11 O11         7.0586   54.7310   12.6792 O.2       1 UNK         0.0000 
     12 C12         6.5954   54.0375   15.1749 C.ar      1 UNK         0.0000 
     13 C13         7.1889   55.2247   15.6077 C.ar      1 UNK         0.0000 
     14 C14         7.1009   55.5937   16.9445 C.ar      1 UNK         0.0000 
     15 C15         6.4269   54.7832   17.8728 C.ar      1 UNK         0.0000 
     16 C16         5.8235   53.5958   17.4140 C.ar      1 UNK         0.0000 
     17 C17         5.8933   53.2359   16.0742 C.ar      1 UNK         0.0000 
     18 C18         6.3996   55.1798   19.3350 C.2       1 UNK         0.0000 
     19 O19         7.1269   56.0863   19.7544 O.2       1 UNK         0.0000 
     20 N20         5.5365   54.4927   20.1184 N.am      1 UNK         0.0000 
     21 C21         5.4144   54.5155   21.5180 C.ar      1 UNK         0.0000 
     22 C22         6.4597   54.8962   22.3783 C.ar      1 UNK         0.0000 
     23 C23         6.3049   54.8802   23.7638 C.ar      1 UNK         0.0000 
     24 C24         5.0693   54.4867   24.2936 C.ar      1 UNK         0.0000 
     25 C25         4.0182   54.0969   23.4243 C.ar      1 UNK         0.0000 
     26 C26         4.1829   54.0975   22.0342 C.ar      1 UNK         0.0000 
     27 S27         2.6042   53.6960   24.3815 S.3       1 UNK         0.0000 
     28 C28         3.5551   54.0091   25.8254 C.2       1 UNK         0.0000 
     29 N29         4.7773   54.4246   25.6170 N.2       1 UNK         0.0000 
     30 N30         3.0149   53.8074   27.0732 N.pl3     1 UNK         0.0000 
     31 C31         3.7515   54.0934   28.3105 C.3       1 UNK         0.0000 
     32 C32         3.0317   55.1451   29.1652 C.3       1 UNK         0.0000 
     33 N33         1.6371   54.6125   29.5435 N.4       1 UNK         0.0000 
     34 C34         0.8513   54.3331   28.2470 C.3       1 UNK         0.0000 
     35 C35         1.6444   53.3459   27.3644 C.3       1 UNK         0.0000 
     36 C36         0.8855   55.6452   30.4184 C.3       1 UNK         0.0000 
     37 H37         8.6297   49.0780   13.7028 H         1 UNK         0.0000 
     38 H38         8.2317   50.0111   12.2702 H         1 UNK         0.0000 
     39 H39         9.7920   50.2169   13.0525 H         1 UNK         0.0000 
     40 H40         8.7055   50.3140   16.0590 H         1 UNK         0.0000 
     41 H41         8.1644   51.9628   16.1517 H         1 UNK         0.0000 
     42 H42        10.8384   51.1220   14.9997 H         1 UNK         0.0000 
     43 H43        10.5595   51.9799   16.4901 H         1 UNK         0.0000 
     44 H44        11.2281   53.5200   14.5909 H         1 UNK         0.0000 
     45 H45         9.6995   53.9505   15.2978 H         1 UNK         0.0000 
     46 H46        10.1442   52.4454   12.6703 H         1 UNK         0.0000 
     47 H47         9.4596   54.0374   12.8374 H         1 UNK         0.0000 
     48 H48         7.7270   55.8538   14.9118 H         1 UNK         0.0000 
     49 H49         7.5799   56.5121   17.2590 H         1 UNK         0.0000 
     50 H50         5.3129   52.9131   18.0807 H         1 UNK         0.0000 
     51 H51         5.4380   52.3096   15.7485 H         1 UNK         0.0000 
     52 H52         4.8932   53.8862   19.6348 H         1 UNK         0.0000 
     53 H53         7.4218   55.1923   21.9841 H         1 UNK         0.0000 
     54 H54         7.1225   55.1698   24.4054 H         1 UNK         0.0000 
     55 H55         3.3677   53.8085   21.3841 H         1 UNK         0.0000 
     56 H56         4.7610   54.4501   28.1028 H         1 UNK         0.0000 
     57 H57         3.8894   53.1456   28.8358 H         1 UNK         0.0000 
     58 H58         3.5862   55.2962   30.0816 H         1 UNK         0.0000 
     59 H59         2.8963   56.0968   28.6508 H         1 UNK         0.0000 
     60 H60        -0.1065   53.9055   28.5500 H         1 UNK         0.0000 
     61 H61         0.7042   55.2944   27.7472 H         1 UNK         0.0000 
     62 H62         1.7473   52.3732   27.8479 H         1 UNK         0.0000 
     63 H63         1.0781   53.1533   26.4543 H         1 UNK         0.0000 
     64 H64         0.7091   56.5444   29.8252 H         1 UNK         0.0000 
     65 H65        -0.0509   55.1846   30.7356 H         1 UNK         0.0000 
     66 H66         1.5047   55.8820   31.2819 H         1 UNK         0.0000 
     67 H67         1.7374   53.7439   30.0547 H         1 UNK         0.0000 
@<TRIPOS>BOND
     1    1    2 1    
     2    1   37 1    
     3    1   38 1    
     4    1   39 1    
     5    2    3 1    
     6    2    8 1    
     7    2    4 1    
     8    4    5 1    
     9    4   40 1    
    10    4   41 1    
    11    5    6 1    
    12    5   42 1    
    13    5   43 1    
    14    6    7 1    
    15    6   44 1    
    16    6   45 1    
    17    7    8 1    
    18    7   46 1    
    19    7   47 1    
    20    8    9 1    
    21    9   10 2    
    22    9   11 2    
    23    9   12 1    
    24   12   17 ar   
    25   12   13 ar   
    26   13   14 ar   
    27   13   48 1    
    28   14   15 ar   
    29   14   49 1    
    30   15   16 ar   
    31   15   18 1    
    32   16   17 ar   
    33   16   50 1    
    34   17   51 1    
    35   18   19 2    
    36   18   20 am   BACKBONE|DICT|INTERRES
    37   20   21 1    
    38   20   52 1    
    39   21   26 ar   
    40   21   22 ar   
    41   22   23 ar   
    42   22   53 1    
    43   23   24 ar   
    44   23   54 1    
    45   24   29 1    
    46   24   25 ar   
    47   25   26 ar   
    48   25   27 1    
    49   26   55 1    
    50   27   28 1    
    51   28   29 2    
    52   28   30 1    
    53   30   35 1    
    54   30   31 1    
    55   31   32 1    
    56   31   56 1    
    57   31   57 1    
    58   32   33 1    
    59   32   58 1    
    60   32   59 1    
    61   33   34 1    
    62   33   36 1    
    63   33   67 1    
    64   34   35 1    
    65   34   60 1    
    66   34   61 1    
    67   35   62 1    
    68   35   63 1    
    69   36   64 1    
    70   36   65 1    
    71   36   66 1    
@<TRIPOS>SUBSTRUCTURE
     1 UNK         1 GROUP             0       ****    0 ROOT    
