ZINC03011834_5222
                    3D
 Schrodinger Suite 2024-2.
 51 54  0  0  1  0            999 V2000
    9.3975   57.7573   16.4608 C   0  0  0  0  0  0
    8.5951   57.2203   17.6321 C   0  0  0  0  0  0
    9.1045   56.1840   18.4154 C   0  0  0  0  0  0
    8.3653   55.6960   19.4881 C   0  0  0  0  0  0
    7.1134   56.2430   19.7882 C   0  0  0  0  0  0
    6.5999   57.2669   18.9853 C   0  0  0  0  0  0
    7.3392   57.7594   17.9142 C   0  0  0  0  0  0
    6.2943   55.7485   20.9801 C   0  0  1  0  0  0
    5.7216   56.6273   21.2806 H   0  0  0  0  0  0
    5.3099   54.6201   20.5895 C   0  0  0  0  0  0
    4.3476   54.1963   21.7383 C   0  0  2  0  0  0
    3.5188   54.9028   21.7665 H   0  0  0  0  0  0
    5.0655   54.3306   23.0191 N   0  0  0  0  0  0
    6.3193   54.8782   23.2044 C   0  0  0  0  0  0
    6.5537   54.8061   24.5597 C   0  0  0  0  0  0
    5.3772   54.3095   25.1458 C   0  0  0  0  0  0
    4.4790   54.0788   24.2022 N   0  0  0  0  0  0
    5.1870   54.0971   26.5702 C   0  0  0  0  0  0
    6.0512   54.4464   27.3762 O   0  0  0  0  0  0
    4.0179   53.4902   26.8858 N   0  0  0  0  0  0
    3.4996   53.0582   28.1275 C   0  0  0  0  0  0
    4.3043   52.9466   29.2737 C   0  0  0  0  0  0
    3.7709   52.5142   30.4842 C   0  0  0  0  0  0
    2.4231   52.2015   30.5763 C   0  0  0  0  0  0
    1.6138   52.2812   29.4511 C   0  0  0  0  0  0
    2.1333   52.6904   28.2145 C   0  0  0  0  0  0
    1.1566   52.7581   27.0301 C   0  0  0  0  0  0
   -0.0787   53.0124   27.4635 F   0  0  0  0  0  0
    1.5043   53.6962   26.1465 F   0  0  0  0  0  0
    1.1044   51.5902   26.3998 F   0  0  0  0  0  0
    1.7574   51.6974   32.0817 Cl  0  0  0  0  0  0
    7.0814   55.3142   22.1407 N   0  0  0  0  0  0
    3.7219   52.7959   21.5195 C   0  0  0  0  0  0
    3.1743   52.6974   20.3085 F   0  0  0  0  0  0
    4.6399   51.8327   21.6142 F   0  0  0  0  0  0
    2.7603   52.5328   22.4059 F   0  0  0  0  0  0
   10.2418   57.1127   16.2141 H   0  0  0  0  0  0
    8.7673   57.8236   15.5723 H   0  0  0  0  0  0
    9.7661   58.7598   16.6806 H   0  0  0  0  0  0
   10.0762   55.7600   18.2046 H   0  0  0  0  0  0
    8.7801   54.9029   20.0924 H   0  0  0  0  0  0
    5.6289   57.6921   19.1912 H   0  0  0  0  0  0
    6.9362   58.5610   17.3095 H   0  0  0  0  0  0
    5.8884   53.7600   20.2481 H   0  0  0  0  0  0
    4.7188   54.9092   19.7185 H   0  0  0  0  0  0
    7.4626   55.0954   25.0621 H   0  0  0  0  0  0
    3.4012   53.3298   26.1026 H   0  0  0  0  0  0
    5.3574   53.1743   29.2467 H   0  0  0  0  0  0
    4.3973   52.4325   31.3600 H   0  0  0  0  0  0
    0.5716   52.0077   29.5470 H   0  0  0  0  0  0
    7.8012   55.9881   22.3619 H   0  0  0  0  0  0
  1  2  1  0  0  0
  1 37  1  0  0  0
  1 38  1  0  0  0
  1 39  1  0  0  0
  2  7  2  0  0  0
  2  3  1  0  0  0
  3  4  2  0  0  0
  3 40  1  0  0  0
  4  5  1  0  0  0
  4 41  1  0  0  0
  5  6  2  0  0  0
  5  8  1  0  0  0
  6  7  1  0  0  0
  6 42  1  0  0  0
  7 43  1  0  0  0
  8  9  1  0  0  0
  8 32  1  0  0  0
  8 10  1  0  0  0
 10 11  1  0  0  0
 10 44  1  0  0  0
 10 45  1  0  0  0
 11 12  1  0  0  0
 11 13  1  0  0  0
 11 33  1  0  0  0
 13 17  1  0  0  0
 13 14  1  0  0  0
 14 15  2  0  0  0
 14 32  1  0  0  0
 15 16  1  0  0  0
 15 46  1  0  0  0
 16 17  2  0  0  0
 16 18  1  0  0  0
 18 19  2  0  0  0
 18 20  1  0  0  0
 20 21  1  0  0  0
 20 47  1  0  0  0
 21 26  2  0  0  0
 21 22  1  0  0  0
 22 23  2  0  0  0
 22 48  1  0  0  0
 23 24  1  0  0  0
 23 49  1  0  0  0
 24 25  2  0  0  0
 24 31  1  0  0  0
 25 26  1  0  0  0
 25 50  1  0  0  0
 26 27  1  0  0  0
 27 28  1  0  0  0
 27 29  1  0  0  0
 27 30  1  0  0  0
 32 51  1  0  0  0
 33 34  1  0  0  0
 33 35  1  0  0  0
 33 36  1  0  0  0
M  END
> <i_i_glide_confnum>
11

> <i_i_glide_lignum>
5223

> <i_i_glide_posenum>
219

> <i_i_glide_rotatable_bonds>
6

> <i_m_Source_File_Index>
5008

> <b_m_subgroup_collapsed>
0

> <r_i_docking_score>
-5.5214

> <r_i_glide_ecoul>
-1.08411

> <r_i_glide_eff_state_penalty>
0

> <r_i_glide_einternal>
3.43011

> <r_i_glide_emodel>
-57.5472

> <r_i_glide_energy>
-45.5382

> <r_i_glide_erotb>
0.323292

> <r_i_glide_esite>
-0.00540561

> <r_i_glide_evdw>
-44.4541

> <r_i_glide_gscore>
-5.5214

> <r_i_glide_hbond>
0

> <r_i_glide_ligand_efficiency>
-0.162394

> <r_i_glide_ligand_efficiency_ln>
-1.21983

> <r_i_glide_ligand_efficiency_sa>
-0.526094

> <r_i_glide_lipo>
-2.52007

> <r_i_glide_metal>
0

> <r_i_glide_rewards>
-0.933894

> <s_i_glide_gridfile>
wee1_glide-grid

> <s_m_Source_File>
wee1_decoys_glide_SP.sdf

> <s_m_Source_Path>
/Users/zhangxujun/Desktop

> <s_m_entry_id>
5283

> <s_m_entry_name>
wee1_decoys_glide_SP.5008

> <s_m_subgroup_title>
wee1_decoys_glide_SP

> <s_m_subgroupid>
wee1_decoys_glide_SP


$$$$
