@<TRIPOS>MOLECULE
ZINC12914489_4288
53   56    1
SMALL
USER_CHARGES


@<TRIPOS>ATOM
      1 C1          4.8639   53.9326   17.4348 C.3       1 UNK         0.0000 
      2 C2          4.0246   53.3202   18.5499 C.ar      1 UNK         0.0000 
      3 C3          3.0932   52.3362   18.2122 C.ar      1 UNK         0.0000 
      4 C4          2.3350   51.7066   19.1959 C.ar      1 UNK         0.0000 
      5 C5          2.4783   52.0846   20.5288 C.ar      1 UNK         0.0000 
      6 C6          3.4011   53.0765   20.8888 C.ar      1 UNK         0.0000 
      7 C7          4.1949   53.6938   19.8970 C.ar      1 UNK         0.0000 
      8 C8          5.2144   54.7826   20.2536 C.3       1 UNK         0.0000 
      9 N9          3.5839   53.4409   22.2312 N.am      1 UNK         0.0000 
     10 C10         2.6837   53.4786   23.2368 C.2       1 UNK         0.0000 
     11 O11         1.4808   53.2312   23.1257 O.2       1 UNK         0.0000 
     12 C12         3.3239   53.9121   24.5651 C.3       1 UNK         0.0000 
     13 N13         2.4583   53.9010   25.7619 N.3       1 UNK         0.0000 
     14 C14         2.0386   52.5723   26.2264 C.3       1 UNK         0.0000 
     15 C15         0.8503   52.6410   27.2123 C.3       1 UNK         0.0000 
     16 C16         1.1581   53.6779   28.2746 C.2       1 UNK         0.0000 
     17 C17         2.1302   54.6659   28.1098 C.2       1 UNK         0.0000 
     18 C18         2.1483   55.5619   29.1890 C.2       1 UNK         0.0000 
     19 C19         1.2058   55.2560   30.1594 C.2       1 UNK         0.0000 
     20 S20         0.3036   53.8271   29.7761 S.3       1 UNK         0.0000 
     21 C21         3.0519   54.6792   26.8835 C.3       1 UNK         0.0000 
     22 C22         4.5018   54.3135   27.1783 C.2       1 UNK         0.0000 
     23 C23         5.0289   53.4802   28.1591 C.2       1 UNK         0.0000 
     24 C24         6.4202   53.4539   28.1780 C.2       1 UNK         0.0000 
     25 C25         6.9894   54.2534   27.2221 C.2       1 UNK         0.0000 
     26 S26         5.8111   54.9875   26.2280 S.3       1 UNK         0.0000 
     27 S27         1.2364   50.3764   18.7413 S.o2      1 UNK         0.0000 
     28 O28         0.4009   50.0564   19.9043 O.2       1 UNK         0.0000 
     29 O29         0.6364   50.7233   17.4487 O.2       1 UNK         0.0000 
     30 N30         2.3043   49.0277   18.4817 N.pl3     1 UNK         0.0000 
     31 H31         4.5681   54.9654   17.2563 H         1 UNK         0.0000 
     32 H32         5.9202   53.9293   17.7067 H         1 UNK         0.0000 
     33 H33         4.7764   53.3759   16.5014 H         1 UNK         0.0000 
     34 H34         2.9898   52.0219   17.1832 H         1 UNK         0.0000 
     35 H35         1.8948   51.5817   21.2853 H         1 UNK         0.0000 
     36 H36         5.0302   55.2559   21.2169 H         1 UNK         0.0000 
     37 H37         6.2264   54.3773   20.2435 H         1 UNK         0.0000 
     38 H38         5.1774   55.5931   19.5255 H         1 UNK         0.0000 
     39 H39         4.4968   53.8162   22.4355 H         1 UNK         0.0000 
     40 H40         3.6581   54.9353   24.3904 H         1 UNK         0.0000 
     41 H41         4.2065   53.2958   24.7316 H         1 UNK         0.0000 
     42 H42         1.7291   51.9479   25.3877 H         1 UNK         0.0000 
     43 H43         2.8873   52.0967   26.7047 H         1 UNK         0.0000 
     44 H44        -0.0601   52.8799   26.6624 H         1 UNK         0.0000 
     45 H45         0.6668   51.6538   27.6377 H         1 UNK         0.0000 
     46 H46         2.8229   56.4029   29.2611 H         1 UNK         0.0000 
     47 H47         1.0163   55.7870   31.0817 H         1 UNK         0.0000 
     48 H48         3.1043   55.6967   26.5259 H         1 UNK         0.0000 
     49 H49         4.4163   52.9295   28.8571 H         1 UNK         0.0000 
     50 H50         7.0072   52.8984   28.8821 H         1 UNK         0.0000 
     51 H51         8.0301   54.4533   27.0692 H         1 UNK         0.0000 
     52 H52         2.9840   49.2022   17.7167 H         1 UNK         0.0000 
     53 H53         2.7833   48.7352   19.3345 H         1 UNK         0.0000 
@<TRIPOS>BOND
     1    1    2 1    
     2    1   31 1    
     3    1   32 1    
     4    1   33 1    
     5    2    7 ar   
     6    2    3 ar   
     7    3    4 ar   
     8    3   34 1    
     9    4    5 ar   
    10    4   27 1    
    11    5    6 ar   
    12    5   35 1    
    13    6    7 ar   
    14    6    9 1    
    15    7    8 1    
    16    8   36 1    
    17    8   37 1    
    18    8   38 1    
    19    9   10 am   BACKBONE|DICT|INTERRES
    20    9   39 1    
    21   10   11 2    
    22   10   12 1    
    23   12   13 1    
    24   12   40 1    
    25   12   41 1    
    26   13   21 1    
    27   13   14 1    
    28   14   15 1    
    29   14   42 1    
    30   14   43 1    
    31   15   16 1    
    32   15   44 1    
    33   15   45 1    
    34   16   20 1    
    35   16   17 2    
    36   17   18 1    
    37   17   21 1    
    38   18   19 2    
    39   18   46 1    
    40   19   20 1    
    41   19   47 1    
    42   21   22 1    
    43   21   48 1    
    44   22   26 1    
    45   22   23 2    
    46   23   24 1    
    47   23   49 1    
    48   24   25 2    
    49   24   50 1    
    50   25   26 1    
    51   25   51 1    
    52   27   28 2    
    53   27   29 2    
    54   27   30 1    
    55   30   52 1    
    56   30   53 1    
@<TRIPOS>SUBSTRUCTURE
     1 UNK         1 GROUP             0       ****    0 ROOT    
