@<TRIPOS>MOLECULE
ZINC39946296_1111
62   66    1
SMALL
USER_CHARGES


@<TRIPOS>ATOM
      1 C1          0.5973   51.5148   22.0042 C.2       1 UNK         0.0000 
      2 C2          1.8592   50.7899   22.0348 C.2       1 UNK         0.0000 
      3 C3          2.5867   50.5686   20.9093 C.2       1 UNK         0.0000 
      4 C4          2.1404   51.0338   19.6669 C.2       1 UNK         0.0000 
      5 N5          2.7044   50.9287   18.4844 N.pl3     1 UNK         0.0000 
      6 C6          1.8634   51.5533   17.4526 C.3       1 UNK         0.0000 
      7 C7          0.7108   52.0735   18.2929 C.2       1 UNK         0.0000 
      8 C8          0.9284   51.7292   19.5794 C.2       1 UNK         0.0000 
      9 C9          0.1539   51.9620   20.8115 C.2       1 UNK         0.0000 
     10 C10        -0.4201   52.7964   17.6950 C.2       1 UNK         0.0000 
     11 O11        -1.5070   52.8973   18.2665 O.2       1 UNK         0.0000 
     12 C12        -0.2602   53.4439   16.3073 C.3       1 UNK         0.0000 
     13 O13         0.9113   54.2616   16.2291 O.3       1 UNK         0.0000 
     14 C14         0.9026   55.5826   16.5697 C.2       1 UNK         0.0000 
     15 O15        -0.1197   56.1998   16.8820 O.2       1 UNK         0.0000 
     16 C16         2.2575   56.2134   16.4798 C.ar      1 UNK         0.0000 
     17 C17         2.3803   57.6110   16.4812 C.ar      1 UNK         0.0000 
     18 C18         3.6375   58.2158   16.4648 C.ar      1 UNK         0.0000 
     19 C19         4.7901   57.4354   16.4169 C.ar      1 UNK         0.0000 
     20 C20         4.6845   56.0426   16.3771 C.ar      1 UNK         0.0000 
     21 C21         3.4262   55.4390   16.4193 C.ar      1 UNK         0.0000 
     22 S22         6.1406   55.0124   16.2130 S.o2      1 UNK         0.0000 
     23 O23         5.7370   53.8863   15.3625 O.2       1 UNK         0.0000 
     24 O24         7.2459   55.8995   15.8311 O.2       1 UNK         0.0000 
     25 N25         6.4652   54.3796   17.8373 N.pl3     1 UNK         0.0000 
     26 C26         5.6486   53.2985   18.4209 C.3       1 UNK         0.0000 
     27 C27         4.7857   53.8120   19.5966 C.3       1 UNK         0.0000 
     28 N28         5.5793   54.5744   20.5852 N.pl3     1 UNK         0.0000 
     29 C29         6.3713   55.6558   19.9597 C.3       1 UNK         0.0000 
     30 C30         7.2647   55.1330   18.8187 C.3       1 UNK         0.0000 
     31 C31         5.3984   54.4893   21.9622 C.ar      1 UNK         0.0000 
     32 C32         4.1558   54.1358   22.5098 C.ar      1 UNK         0.0000 
     33 C33         3.9801   54.0953   23.8913 C.ar      1 UNK         0.0000 
     34 C34         5.0505   54.3829   24.7352 C.ar      1 UNK         0.0000 
     35 C35         6.2980   54.7033   24.2087 C.ar      1 UNK         0.0000 
     36 C36         6.4693   54.7583   22.8275 C.ar      1 UNK         0.0000 
     37 F37         4.8760   54.3498   26.0750 F         1 UNK         0.0000 
     38 H38         0.0338   51.6818   22.9122 H         1 UNK         0.0000 
     39 H39         2.2203   50.4047   22.9794 H         1 UNK         0.0000 
     40 H40         3.5055   50.0104   20.9913 H         1 UNK         0.0000 
     41 H41         2.4651   52.3221   16.9654 H         1 UNK         0.0000 
     42 H42         1.5968   50.7762   16.7328 H         1 UNK         0.0000 
     43 H43        -0.7849   52.4967   20.7914 H         1 UNK         0.0000 
     44 H44        -0.1830   52.6582   15.5553 H         1 UNK         0.0000 
     45 H45        -1.1575   54.0115   16.0512 H         1 UNK         0.0000 
     46 H46         1.5045   58.2461   16.5006 H         1 UNK         0.0000 
     47 H47         3.7186   59.2955   16.4800 H         1 UNK         0.0000 
     48 H48         5.7558   57.9198   16.3850 H         1 UNK         0.0000 
     49 H49         3.3742   54.3604   16.3971 H         1 UNK         0.0000 
     50 H50         5.0093   52.8829   17.6425 H         1 UNK         0.0000 
     51 H51         6.3072   52.4955   18.7434 H         1 UNK         0.0000 
     52 H52         4.0754   54.5586   19.2352 H         1 UNK         0.0000 
     53 H53         4.2229   52.9980   20.0528 H         1 UNK         0.0000 
     54 H54         6.9356   56.2555   20.6730 H         1 UNK         0.0000 
     55 H55         5.5981   56.3086   19.5470 H         1 UNK         0.0000 
     56 H56         8.0760   54.5073   19.1913 H         1 UNK         0.0000 
     57 H57         7.7239   55.9776   18.3046 H         1 UNK         0.0000 
     58 H58         3.3084   53.9301   21.8722 H         1 UNK         0.0000 
     59 H59         3.0173   53.8460   24.3105 H         1 UNK         0.0000 
     60 H60         7.1293   54.9113   24.8658 H         1 UNK         0.0000 
     61 H61         7.4511   54.9990   22.4427 H         1 UNK         0.0000 
     62 H62         3.6151   50.4923   18.2823 H         1 UNK         0.0000 
@<TRIPOS>BOND
     1    1    9 2    
     2    1    2 1    
     3    1   38 1    
     4    2    3 2    
     5    2   39 1    
     6    3    4 1    
     7    3   40 1    
     8    4    8 1    
     9    4    5 2    
    10    5    6 1    
    11    5   62 1    
    12    6    7 1    
    13    6   41 1    
    14    6   42 1    
    15    7    8 2    
    16    7   10 1    
    17    8    9 1    
    18    9   43 1    
    19   10   11 2    
    20   10   12 1    
    21   12   13 1    
    22   12   44 1    
    23   12   45 1    
    24   13   14 1    
    25   14   15 2    
    26   14   16 1    
    27   16   21 ar   
    28   16   17 ar   
    29   17   18 ar   
    30   17   46 1    
    31   18   19 ar   
    32   18   47 1    
    33   19   20 ar   
    34   19   48 1    
    35   20   21 ar   
    36   20   22 1    
    37   21   49 1    
    38   22   23 2    
    39   22   24 2    
    40   22   25 1    
    41   25   30 1    
    42   25   26 1    
    43   26   27 1    
    44   26   50 1    
    45   26   51 1    
    46   27   28 1    
    47   27   52 1    
    48   27   53 1    
    49   28   29 1    
    50   28   31 1    
    51   29   30 1    
    52   29   54 1    
    53   29   55 1    
    54   30   56 1    
    55   30   57 1    
    56   31   36 ar   
    57   31   32 ar   
    58   32   33 ar   
    59   32   58 1    
    60   33   34 ar   
    61   33   59 1    
    62   34   35 ar   
    63   34   37 1    
    64   35   36 ar   
    65   35   60 1    
    66   36   61 1    
@<TRIPOS>SUBSTRUCTURE
     1 UNK         1 GROUP             0       ****    0 ROOT    
