@<TRIPOS>MOLECULE
ZINC02441272_5129
70   75    1
SMALL
USER_CHARGES


@<TRIPOS>ATOM
      1 C1          1.5454   52.2364   29.4983 C.3       1 UNK         0.0000 
      2 C2          0.1443   51.9699   28.9404 C.3       1 UNK         0.0000 
      3 O3          0.1987   51.9853   27.5204 O.3       1 UNK         0.0000 
      4 C4         -0.9158   51.7547   26.7775 C.2       1 UNK         0.0000 
      5 O5         -2.0128   51.5424   27.2961 O.2       1 UNK         0.0000 
      6 C6         -0.7147   51.7348   25.2859 C.2       1 UNK         0.0000 
      7 C7          0.4110   52.2706   24.7297 C.2       1 UNK         0.0000 
      8 O8          0.6749   52.2902   23.4076 O.3       1 UNK         0.0000 
      9 C9         -0.1678   51.7389   22.5088 C.2       1 UNK         0.0000 
     10 C10        -1.3284   51.1185   22.8459 C.2       1 UNK         0.0000 
     11 C11        -1.7835   51.0645   24.3465 C.3       1 UNK         0.0000 
     12 C12        -2.1104   49.6599   24.7780 C.ar      1 UNK         0.0000 
     13 C13        -1.3239   48.5108   24.8601 C.ar      1 UNK         0.0000 
     14 C14        -1.9023   47.3234   25.3058 C.ar      1 UNK         0.0000 
     15 C15        -3.2489   47.2924   25.6795 C.ar      1 UNK         0.0000 
     16 C16        -4.0587   48.4408   25.6083 C.ar      1 UNK         0.0000 
     17 C17        -3.4394   49.6119   25.1462 C.ar      1 UNK         0.0000 
     18 N18        -4.0503   50.8619   24.9852 N.am      1 UNK         0.0000 
     19 C19        -3.1567   51.7857   24.5160 C.2       1 UNK         0.0000 
     20 O20        -3.3516   52.9792   24.2696 O.2       1 UNK         0.0000 
     21 C21        -5.4574   51.0923   25.4339 C.3       1 UNK         0.0000 
     22 C22        -6.2088   49.7193   25.3366 C.3       1 UNK         0.0000 
     23 C23        -5.5543   48.4575   25.9990 C.3       1 UNK         0.0000 
     24 C24        -6.2452   47.2034   25.3899 C.3       1 UNK         0.0000 
     25 C25        -5.7848   48.4419   27.5372 C.ar      1 UNK         0.0000 
     26 C26        -4.7174   48.4594   28.4488 C.ar      1 UNK         0.0000 
     27 C27        -4.9412   48.4330   29.8211 C.ar      1 UNK         0.0000 
     28 C28        -6.2437   48.3845   30.3054 C.ar      1 UNK         0.0000 
     29 C29        -7.3218   48.3666   29.4232 C.ar      1 UNK         0.0000 
     30 C30        -7.0908   48.3972   28.0494 C.ar      1 UNK         0.0000 
     31 C31        -6.1935   52.0674   24.4818 C.3       1 UNK         0.0000 
     32 C32        -5.3845   51.6148   26.8871 C.3       1 UNK         0.0000 
     33 C33        -2.1665   50.5092   21.7710 C.2       1 UNK         0.0000 
     34 O34        -3.3272   50.1414   21.9458 O.2       1 UNK         0.0000 
     35 C35        -1.5443   50.4057   20.3706 C.3       1 UNK         0.0000 
     36 C36        -0.6725   51.6232   20.0338 C.3       1 UNK         0.0000 
     37 C37         0.4039   51.8846   21.1016 C.3       1 UNK         0.0000 
     38 N38         1.4793   52.8987   25.3182 N.pl3     1 UNK         0.0000 
     39 H39         1.5345   52.2204   30.5878 H         1 UNK         0.0000 
     40 H40         1.9171   53.2108   29.1819 H         1 UNK         0.0000 
     41 H41         2.2515   51.4784   29.1596 H         1 UNK         0.0000 
     42 H42        -0.2192   51.0001   29.2849 H         1 UNK         0.0000 
     43 H43        -0.5528   52.7291   29.2991 H         1 UNK         0.0000 
     44 H44        -0.2759   48.5315   24.5965 H         1 UNK         0.0000 
     45 H45        -1.2965   46.4361   25.4026 H         1 UNK         0.0000 
     46 H46        -3.6597   46.3688   26.0578 H         1 UNK         0.0000 
     47 H47        -6.3256   49.4997   24.2723 H         1 UNK         0.0000 
     48 H48        -7.2302   49.8442   25.6965 H         1 UNK         0.0000 
     49 H49        -5.9332   46.2840   25.8863 H         1 UNK         0.0000 
     50 H50        -7.3308   47.2513   25.4718 H         1 UNK         0.0000 
     51 H51        -6.0158   47.0938   24.3287 H         1 UNK         0.0000 
     52 H52        -3.6958   48.5104   28.1132 H         1 UNK         0.0000 
     53 H53        -4.0959   48.4570   30.4956 H         1 UNK         0.0000 
     54 H54        -6.4171   48.3609   31.3718 H         1 UNK         0.0000 
     55 H55        -8.3319   48.3294   29.8028 H         1 UNK         0.0000 
     56 H56        -7.9399   48.3833   27.3822 H         1 UNK         0.0000 
     57 H57        -7.2578   52.1154   24.7144 H         1 UNK         0.0000 
     58 H58        -5.8210   53.0885   24.5572 H         1 UNK         0.0000 
     59 H59        -6.1050   51.7497   23.4415 H         1 UNK         0.0000 
     60 H60        -6.3745   51.6585   27.3412 H         1 UNK         0.0000 
     61 H61        -4.7531   50.9945   27.5228 H         1 UNK         0.0000 
     62 H62        -4.9619   52.6205   26.9192 H         1 UNK         0.0000 
     63 H63        -2.3307   50.2384   19.6344 H         1 UNK         0.0000 
     64 H64        -0.9236   49.5088   20.3763 H         1 UNK         0.0000 
     65 H65        -1.3157   52.4968   19.9375 H         1 UNK         0.0000 
     66 H66        -0.2014   51.4917   19.0588 H         1 UNK         0.0000 
     67 H67         0.7908   52.8953   20.9602 H         1 UNK         0.0000 
     68 H68         1.2762   51.2387   20.9912 H         1 UNK         0.0000 
     69 H69         1.5206   52.9912   26.3235 H         1 UNK         0.0000 
     70 H70         2.2510   53.2422   24.7679 H         1 UNK         0.0000 
@<TRIPOS>BOND
     1    1    2 1    
     2    1   39 1    
     3    1   40 1    
     4    1   41 1    
     5    2    3 1    
     6    2   42 1    
     7    2   43 1    
     8    3    4 1    
     9    4    5 2    
    10    4    6 1    
    11    6   11 1    
    12    6    7 2    
    13    7    8 1    
    14    7   38 1    
    15    8    9 1    
    16    9   37 1    
    17    9   10 2    
    18   10   11 1    
    19   10   33 1    
    20   11   19 1    
    21   11   12 1    
    22   12   17 ar   
    23   12   13 ar   
    24   13   14 ar   
    25   13   44 1    
    26   14   15 ar   
    27   14   45 1    
    28   15   16 ar   
    29   15   46 1    
    30   16   23 1    
    31   16   17 ar   
    32   17   18 1    
    33   18   19 am   BACKBONE|DICT|INTERRES
    34   18   21 1    
    35   19   20 2    
    36   21   22 1    
    37   21   31 1    
    38   21   32 1    
    39   22   23 1    
    40   22   47 1    
    41   22   48 1    
    42   23   24 1    
    43   23   25 1    
    44   24   49 1    
    45   24   50 1    
    46   24   51 1    
    47   25   30 ar   
    48   25   26 ar   
    49   26   27 ar   
    50   26   52 1    
    51   27   28 ar   
    52   27   53 1    
    53   28   29 ar   
    54   28   54 1    
    55   29   30 ar   
    56   29   55 1    
    57   30   56 1    
    58   31   57 1    
    59   31   58 1    
    60   31   59 1    
    61   32   60 1    
    62   32   61 1    
    63   32   62 1    
    64   33   34 2    
    65   33   35 1    
    66   35   36 1    
    67   35   63 1    
    68   35   64 1    
    69   36   37 1    
    70   36   65 1    
    71   36   66 1    
    72   37   67 1    
    73   37   68 1    
    74   38   69 1    
    75   38   70 1    
@<TRIPOS>SUBSTRUCTURE
     1 UNK         1 GROUP             0       ****    0 ROOT    
