@<TRIPOS>MOLECULE
ZINC20371094_3120
66   69    1
SMALL
USER_CHARGES


@<TRIPOS>ATOM
      1 C1         12.5057   59.9180   18.0331 C.3       1 UNK         0.0000 
      2 C2         11.0260   59.5937   18.1879 C.2       1 UNK         0.0000 
      3 O3         10.2459   60.4966   18.4816 O.2       1 UNK         0.0000 
      4 N4         10.6997   58.3011   18.0059 N.am      1 UNK         0.0000 
      5 C5          9.4441   57.6705   18.0750 C.ar      1 UNK         0.0000 
      6 C6          8.2087   58.3339   18.1215 C.ar      1 UNK         0.0000 
      7 C7          7.0266   57.6048   18.2199 C.ar      1 UNK         0.0000 
      8 C8          7.0465   56.1960   18.2446 C.ar      1 UNK         0.0000 
      9 C9          8.2922   55.5505   18.1904 C.ar      1 UNK         0.0000 
     10 C10         9.4731   56.2783   18.0882 C.ar      1 UNK         0.0000 
     11 N11         5.8642   55.4006   18.3016 N.am      1 UNK         0.0000 
     12 C12         5.8990   53.9567   18.5931 C.3       1 UNK         0.0000 
     13 C13         4.4774   53.4256   18.5269 C.3       1 UNK         0.0000 
     14 H14         4.4462   52.4954   17.9607 H         1 UNK         0.0000 
     15 C15         3.7534   54.5287   17.7680 C.3       1 UNK         0.0000 
     16 C16         4.6351   55.7754   17.8325 C.2       1 UNK         0.0000 
     17 O17         4.2494   56.8857   17.4654 O.2       1 UNK         0.0000 
     18 C18         3.7795   53.1292   19.8757 C.2       1 UNK         0.0000 
     19 O19         2.8174   52.3635   19.8493 O.2       1 UNK         0.0000 
     20 N20         4.2319   53.7363   20.9993 N.am      1 UNK         0.0000 
     21 C21         3.6990   53.6874   22.3105 C.ar      1 UNK         0.0000 
     22 C22         2.3792   53.2983   22.5881 C.ar      1 UNK         0.0000 
     23 C23         1.8832   53.2664   23.8979 C.ar      1 UNK         0.0000 
     24 C24         2.7168   53.6748   24.9484 C.ar      1 UNK         0.0000 
     25 C25         4.0283   54.0960   24.6783 C.ar      1 UNK         0.0000 
     26 C26         4.5309   54.0967   23.3644 C.ar      1 UNK         0.0000 
     27 O27         5.8176   54.4970   23.0429 O.3       1 UNK         0.0000 
     28 C28         6.6294   55.1195   24.0337 C.3       1 UNK         0.0000 
     29 N29         2.1684   53.5730   26.2423 N.am      1 UNK         0.0000 
     30 C30         2.5739   54.0968   27.4179 C.2       1 UNK         0.0000 
     31 O31         3.5536   54.8280   27.5625 O.2       1 UNK         0.0000 
     32 C32         1.6819   53.7657   28.5926 C.ar      1 UNK         0.0000 
     33 C33         1.0272   52.5256   28.6801 C.ar      1 UNK         0.0000 
     34 C34         0.2302   52.2286   29.7809 C.ar      1 UNK         0.0000 
     35 C35         0.0907   53.1559   30.8087 C.ar      1 UNK         0.0000 
     36 C36         0.7045   54.4014   30.7212 C.ar      1 UNK         0.0000 
     37 C37         1.5060   54.7034   29.6216 C.ar      1 UNK         0.0000 
     38 O38         0.6006   52.8480   24.2184 O.3       1 UNK         0.0000 
     39 C39        -0.1976   52.2092   23.2277 C.3       1 UNK         0.0000 
     40 H40        13.1222   59.1845   18.5589 H         1 UNK         0.0000 
     41 H41        12.7324   60.9059   18.4420 H         1 UNK         0.0000 
     42 H42        12.7833   59.9130   16.9769 H         1 UNK         0.0000 
     43 H43        11.4699   57.6703   17.8519 H         1 UNK         0.0000 
     44 H44         8.1329   59.4108   18.0829 H         1 UNK         0.0000 
     45 H45         6.1039   58.1629   18.2673 H         1 UNK         0.0000 
     46 H46         8.3745   54.4750   18.2023 H         1 UNK         0.0000 
     47 H47        10.4118   55.7448   18.0544 H         1 UNK         0.0000 
     48 H48         6.4681   53.4712   17.7977 H         1 UNK         0.0000 
     49 H49         6.4308   53.6867   19.5037 H         1 UNK         0.0000 
     50 H50         2.7879   54.7971   18.1995 H         1 UNK         0.0000 
     51 H51         3.5502   54.2455   16.7364 H         1 UNK         0.0000 
     52 H52         5.0784   54.2793   20.9211 H         1 UNK         0.0000 
     53 H53         1.7173   53.0340   21.7815 H         1 UNK         0.0000 
     54 H54         4.6712   54.3826   25.4923 H         1 UNK         0.0000 
     55 H55         7.5043   55.5495   23.5487 H         1 UNK         0.0000 
     56 H56         6.1096   55.9378   24.5352 H         1 UNK         0.0000 
     57 H57         6.9716   54.3986   24.7778 H         1 UNK         0.0000 
     58 H58         1.2915   53.0714   26.2621 H         1 UNK         0.0000 
     59 H59         1.1377   51.7750   27.9117 H         1 UNK         0.0000 
     60 H60        -0.2761   51.2780   29.8474 H         1 UNK         0.0000 
     61 H61        -0.4969   52.9004   31.6820 H         1 UNK         0.0000 
     62 H62         0.5843   55.1232   31.5158 H         1 UNK         0.0000 
     63 H63         1.9928   55.6693   29.5733 H         1 UNK         0.0000 
     64 H64        -1.1241   51.8633   23.6840 H         1 UNK         0.0000 
     65 H65        -0.4642   52.8963   22.4246 H         1 UNK         0.0000 
     66 H66         0.3060   51.3407   22.8019 H         1 UNK         0.0000 
@<TRIPOS>BOND
     1    1    2 1    
     2    1   40 1    
     3    1   41 1    
     4    1   42 1    
     5    2    3 2    
     6    2    4 am   BACKBONE|DICT|INTERRES
     7    4    5 1    
     8    4   43 1    
     9    5   10 ar   
    10    5    6 ar   
    11    6    7 ar   
    12    6   44 1    
    13    7    8 ar   
    14    7   45 1    
    15    8    9 ar   
    16    8   11 1    
    17    9   10 ar   
    18    9   46 1    
    19   10   47 1    
    20   11   16 am   BACKBONE|DICT|INTERRES
    21   11   12 1    
    22   12   13 1    
    23   12   48 1    
    24   12   49 1    
    25   13   14 1    
    26   13   15 1    
    27   13   18 1    
    28   15   16 1    
    29   15   50 1    
    30   15   51 1    
    31   16   17 2    
    32   18   19 2    
    33   18   20 am   BACKBONE|DICT|INTERRES
    34   20   21 1    
    35   20   52 1    
    36   21   26 ar   
    37   21   22 ar   
    38   22   23 ar   
    39   22   53 1    
    40   23   24 ar   
    41   23   38 1    
    42   24   25 ar   
    43   24   29 1    
    44   25   26 ar   
    45   25   54 1    
    46   26   27 1    
    47   27   28 1    
    48   28   55 1    
    49   28   56 1    
    50   28   57 1    
    51   29   30 am   BACKBONE|DICT|INTERRES
    52   29   58 1    
    53   30   31 2    
    54   30   32 1    
    55   32   37 ar   
    56   32   33 ar   
    57   33   34 ar   
    58   33   59 1    
    59   34   35 ar   
    60   34   60 1    
    61   35   36 ar   
    62   35   61 1    
    63   36   37 ar   
    64   36   62 1    
    65   37   63 1    
    66   38   39 1    
    67   39   64 1    
    68   39   65 1    
    69   39   66 1    
@<TRIPOS>SUBSTRUCTURE
     1 UNK         1 GROUP             0       ****    0 ROOT    
