@<TRIPOS>MOLECULE
ZINC64558249_1012
62   65    1
SMALL
USER_CHARGES


@<TRIPOS>ATOM
      1 C1          5.2589   54.9140   24.7500 C.3       1 UNK         0.0000 
      2 C2          3.9903   54.1560   24.3821 C.ar      1 UNK         0.0000 
      3 C3          3.6792   53.8358   23.0563 C.ar      1 UNK         0.0000 
      4 C4          2.5907   53.0022   22.7740 C.ar      1 UNK         0.0000 
      5 C5          1.8125   52.4863   23.8175 C.ar      1 UNK         0.0000 
      6 C6          2.0825   52.8971   25.1199 C.ar      1 UNK         0.0000 
      7 C7          3.1564   53.7261   25.4077 C.ar      1 UNK         0.0000 
      8 S8          0.6256   51.1474   23.5112 S.o2      1 UNK         0.0000 
      9 O9          1.1023   49.9887   24.2707 O.2       1 UNK         0.0000 
     10 O10         0.4904   51.0438   22.0539 O.2       1 UNK         0.0000 
     11 C11        -0.9886   51.5938   24.2126 C.2       1 UNK         0.0000 
     12 C12        -2.0226   52.1107   23.5612 C.2       1 UNK         0.0000 
     13 C13        -3.2100   52.1961   24.3959 C.2       1 UNK         0.0000 
     14 O14        -4.2935   52.6947   24.0813 O.2       1 UNK         0.0000 
     15 N15        -2.8958   51.5929   25.5871 N.am      1 UNK         0.0000 
     16 C16        -1.4830   51.1468   25.5595 C.3       1 UNK         0.0000 
     17 H17        -1.4736   50.0563   25.6144 H         1 UNK         0.0000 
     18 C18        -0.6250   51.6371   26.7305 C.ar      1 UNK         0.0000 
     19 C19         0.3632   50.8129   27.2632 C.ar      1 UNK         0.0000 
     20 C20         1.2255   51.2947   28.2414 C.ar      1 UNK         0.0000 
     21 C21         1.0836   52.5843   28.7519 C.ar      1 UNK         0.0000 
     22 C22         0.0275   53.3734   28.2872 C.ar      1 UNK         0.0000 
     23 C23        -0.8244   52.8951   27.2896 C.ar      1 UNK         0.0000 
     24 C24         2.0567   53.1226   29.7513 C.2       1 UNK         0.0000 
     25 O25         2.1020   54.3109   30.0801 O.2       1 UNK         0.0000 
     26 O26         2.8698   52.1613   30.2709 O.3       1 UNK         0.0000 
     27 C27         3.8381   52.4690   31.2587 C.3       1 UNK         0.0000 
     28 C28        -3.7875   51.3786   26.6951 C.ar      1 UNK         0.0000 
     29 C29        -5.0754   51.9414   26.7956 C.ar      1 UNK         0.0000 
     30 C30        -5.8767   51.7075   27.9125 C.ar      1 UNK         0.0000 
     31 C31        -5.4119   50.9240   28.9704 C.ar      1 UNK         0.0000 
     32 C32        -4.1468   50.3439   28.8762 C.ar      1 UNK         0.0000 
     33 C33        -3.3583   50.5696   27.7551 C.ar      1 UNK         0.0000 
     34 C34        -6.3005   50.7127   30.2000 C.3       1 UNK         0.0000 
     35 C35        -7.2965   49.5590   29.9830 C.3       1 UNK         0.0000 
     36 C36        -5.5119   50.5373   31.5160 C.3       1 UNK         0.0000 
     37 O37        -2.0927   52.4962   22.3364 O.co2     1 UNK         0.0000 
     38 H38         5.8082   55.2868   23.8935 H         1 UNK         0.0000 
     39 H39         5.0484   55.7694   25.3915 H         1 UNK         0.0000 
     40 H40         5.9211   54.2588   25.3151 H         1 UNK         0.0000 
     41 H41         4.3077   54.1796   22.2485 H         1 UNK         0.0000 
     42 H42         2.4034   52.7044   21.7529 H         1 UNK         0.0000 
     43 H43         1.5206   52.5245   25.9397 H         1 UNK         0.0000 
     44 H44         3.3775   53.9750   26.4358 H         1 UNK         0.0000 
     45 H45         0.5047   49.8148   26.8704 H         1 UNK         0.0000 
     46 H46         2.0139   50.6348   28.5732 H         1 UNK         0.0000 
     47 H47        -0.1200   54.3726   28.6703 H         1 UNK         0.0000 
     48 H48        -1.6321   53.5086   26.9141 H         1 UNK         0.0000 
     49 H49         4.6208   51.7117   31.2651 H         1 UNK         0.0000 
     50 H50         4.3056   53.4345   31.0689 H         1 UNK         0.0000 
     51 H51         3.3769   52.4960   32.2452 H         1 UNK         0.0000 
     52 H52        -5.4922   52.5788   26.0353 H         1 UNK         0.0000 
     53 H53        -6.8590   52.1534   27.9581 H         1 UNK         0.0000 
     54 H54        -3.7528   49.7118   29.6600 H         1 UNK         0.0000 
     55 H55        -2.3918   50.0969   27.7346 H         1 UNK         0.0000 
     56 H56        -6.8836   51.6289   30.3221 H         1 UNK         0.0000 
     57 H57        -7.9033   49.7172   29.0893 H         1 UNK         0.0000 
     58 H58        -7.9782   49.4617   30.8289 H         1 UNK         0.0000 
     59 H59        -6.7777   48.6059   29.8684 H         1 UNK         0.0000 
     60 H60        -4.7342   51.2944   31.6138 H         1 UNK         0.0000 
     61 H61        -6.1645   50.6234   32.3833 H         1 UNK         0.0000 
     62 H62        -5.0253   49.5643   31.5733 H         1 UNK         0.0000 
@<TRIPOS>BOND
     1    1    2 1    
     2    1   38 1    
     3    1   39 1    
     4    1   40 1    
     5    2    7 ar   
     6    2    3 ar   
     7    3    4 ar   
     8    3   41 1    
     9    4    5 ar   
    10    4   42 1    
    11    5    6 ar   
    12    5    8 1    
    13    6    7 ar   
    14    6   43 1    
    15    7   44 1    
    16    8    9 2    
    17    8   10 2    
    18    8   11 1    
    19   11   16 1    
    20   11   12 2    
    21   12   13 1    
    22   12   37 1    
    23   13   14 2    
    24   13   15 am   BACKBONE|DICT|INTERRES
    25   15   16 1    
    26   15   28 1    
    27   16   17 1    
    28   16   18 1    
    29   18   23 ar   
    30   18   19 ar   
    31   19   20 ar   
    32   19   45 1    
    33   20   21 ar   
    34   20   46 1    
    35   21   22 ar   
    36   21   24 1    
    37   22   23 ar   
    38   22   47 1    
    39   23   48 1    
    40   24   25 2    
    41   24   26 1    
    42   26   27 1    
    43   27   49 1    
    44   27   50 1    
    45   27   51 1    
    46   28   33 ar   
    47   28   29 ar   
    48   29   30 ar   
    49   29   52 1    
    50   30   31 ar   
    51   30   53 1    
    52   31   32 ar   
    53   31   34 1    
    54   32   33 ar   
    55   32   54 1    
    56   33   55 1    
    57   34   35 1    
    58   34   36 1    
    59   34   56 1    
    60   35   57 1    
    61   35   58 1    
    62   35   59 1    
    63   36   60 1    
    64   36   61 1    
    65   36   62 1    
@<TRIPOS>SUBSTRUCTURE
     1 UNK         1 GROUP             0       ****    0 ROOT    
