@<TRIPOS>MOLECULE
ZINC24769769_1376
55   58    1
SMALL
USER_CHARGES


@<TRIPOS>ATOM
      1 C1          8.6511   53.9298   17.8773 C.3       1 UNK         0.0000 
      2 C2          7.9751   54.8164   18.9404 C.3       1 UNK         0.0000 
      3 H3          8.3909   54.5097   19.9034 H         1 UNK         0.0000 
      4 C4          8.4498   56.2892   18.7655 C.3       1 UNK         0.0000 
      5 C5          7.7644   57.0049   17.5881 C.3       1 UNK         0.0000 
      6 C6          6.2358   56.9649   17.7285 C.3       1 UNK         0.0000 
      7 C7          5.7198   55.5223   17.9197 C.3       1 UNK         0.0000 
      8 C8          6.4082   54.6935   19.0537 C.3       1 UNK         0.0000 
      9 C9          5.8945   55.1796   20.4096 C.2       1 UNK         0.0000 
     10 O10         6.1333   56.2720   20.9258 O.2       1 UNK         0.0000 
     11 N11         5.0544   54.2147   20.8459 N.am      1 UNK         0.0000 
     12 C12         5.1045   53.0692   20.1260 C.2       1 UNK         0.0000 
     13 O13         4.7189   51.9580   20.4817 O.2       1 UNK         0.0000 
     14 N14         5.9030   53.3388   19.0834 N.am      1 UNK         0.0000 
     15 C15         4.1960   54.3208   22.0445 C.3       1 UNK         0.0000 
     16 C16         4.9577   54.0970   23.3657 C.2       1 UNK         0.0000 
     17 O17         6.1502   53.7865   23.3812 O.2       1 UNK         0.0000 
     18 N18         4.1773   54.2395   24.4584 N.am      1 UNK         0.0000 
     19 C19         4.4961   54.0969   25.8181 C.ar      1 UNK         0.0000 
     20 C20         5.8004   54.0977   26.3349 C.ar      1 UNK         0.0000 
     21 C21         6.0076   53.9266   27.7017 C.ar      1 UNK         0.0000 
     22 C22         4.9216   53.7474   28.5566 C.ar      1 UNK         0.0000 
     23 C23         3.6071   53.7480   28.0668 C.ar      1 UNK         0.0000 
     24 C24         3.4117   53.9494   26.6925 C.ar      1 UNK         0.0000 
     25 N25         2.4866   53.5700   28.9200 N.am      1 UNK         0.0000 
     26 C26         1.1458   54.0815   28.6003 C.3       1 UNK         0.0000 
     27 C27         0.3420   53.9099   29.8684 C.3       1 UNK         0.0000 
     28 C28         1.0329   52.7669   30.5649 C.3       1 UNK         0.0000 
     29 C29         2.4598   52.7566   30.0197 C.2       1 UNK         0.0000 
     30 O30         3.3751   52.1083   30.5276 O.2       1 UNK         0.0000 
     31 H31         8.3080   54.1736   16.8702 H         1 UNK         0.0000 
     32 H32         9.7380   54.0354   17.8992 H         1 UNK         0.0000 
     33 H33         8.4326   52.8827   18.0564 H         1 UNK         0.0000 
     34 H34         8.2538   56.8519   19.6786 H         1 UNK         0.0000 
     35 H35         9.5359   56.3250   18.6522 H         1 UNK         0.0000 
     36 H36         8.1068   58.0390   17.5332 H         1 UNK         0.0000 
     37 H37         8.0611   56.5381   16.6478 H         1 UNK         0.0000 
     38 H38         5.9320   57.5857   18.5716 H         1 UNK         0.0000 
     39 H39         5.7726   57.4115   16.8496 H         1 UNK         0.0000 
     40 H40         5.7814   54.9611   16.9858 H         1 UNK         0.0000 
     41 H41         4.6366   55.5311   18.0647 H         1 UNK         0.0000 
     42 H42         5.8904   52.7655   18.2501 H         1 UNK         0.0000 
     43 H43         3.3759   53.6011   21.9838 H         1 UNK         0.0000 
     44 H44         3.7225   55.2976   22.0820 H         1 UNK         0.0000 
     45 H45         3.2012   54.4074   24.2751 H         1 UNK         0.0000 
     46 H46         6.6614   54.2267   25.6966 H         1 UNK         0.0000 
     47 H47         7.0097   53.9286   28.1044 H         1 UNK         0.0000 
     48 H48         5.1031   53.6285   29.6115 H         1 UNK         0.0000 
     49 H49         2.4119   53.9510   26.2877 H         1 UNK         0.0000 
     50 H50         1.1879   55.1215   28.2765 H         1 UNK         0.0000 
     51 H51         0.7224   53.4991   27.7796 H         1 UNK         0.0000 
     52 H52        -0.7158   53.7289   29.6796 H         1 UNK         0.0000 
     53 H53         0.4128   54.8130   30.4792 H         1 UNK         0.0000 
     54 H54         0.5721   51.8176   30.2936 H         1 UNK         0.0000 
     55 H55         1.0032   52.8540   31.6522 H         1 UNK         0.0000 
@<TRIPOS>BOND
     1    1    2 1    
     2    1   31 1    
     3    1   32 1    
     4    1   33 1    
     5    2    3 1    
     6    2    8 1    
     7    2    4 1    
     8    4    5 1    
     9    4   34 1    
    10    4   35 1    
    11    5    6 1    
    12    5   36 1    
    13    5   37 1    
    14    6    7 1    
    15    6   38 1    
    16    6   39 1    
    17    7    8 1    
    18    7   40 1    
    19    7   41 1    
    20    8   14 1    
    21    8    9 1    
    22    9   10 2    
    23    9   11 am   BACKBONE|DICT|INTERRES
    24   11   12 am   BACKBONE|DICT|INTERRES
    25   11   15 1    
    26   12   13 2    
    27   12   14 am   BACKBONE|DICT|INTERRES
    28   14   42 1    
    29   15   16 1    
    30   15   43 1    
    31   15   44 1    
    32   16   17 2    
    33   16   18 am   BACKBONE|DICT|INTERRES
    34   18   19 1    
    35   18   45 1    
    36   19   24 ar   
    37   19   20 ar   
    38   20   21 ar   
    39   20   46 1    
    40   21   22 ar   
    41   21   47 1    
    42   22   23 ar   
    43   22   48 1    
    44   23   24 ar   
    45   23   25 1    
    46   24   49 1    
    47   25   29 am   BACKBONE|DICT|INTERRES
    48   25   26 1    
    49   26   27 1    
    50   26   50 1    
    51   26   51 1    
    52   27   28 1    
    53   27   52 1    
    54   27   53 1    
    55   28   29 1    
    56   28   54 1    
    57   28   55 1    
    58   29   30 2    
@<TRIPOS>SUBSTRUCTURE
     1 UNK         1 GROUP             0       ****    0 ROOT    
