ZINC13241638_5786
                    3D
 Schrodinger Suite 2024-2.
 57 60  0  0  1  0            999 V2000
   -2.4219   51.8492   25.8511 C   0  0  0  0  0  0
   -3.0894   50.4823   25.9707 C   0  0  0  0  0  0
   -4.2932   50.4038   26.6710 C   0  0  0  0  0  0
   -4.9238   49.1826   26.8580 C   0  0  0  0  0  0
   -4.3521   48.0227   26.3497 C   0  0  0  0  0  0
   -3.1465   48.0431   25.6238 C   0  0  0  0  0  0
   -2.5192   49.3068   25.4238 C   0  0  0  0  0  0
   -1.3017   49.4062   24.7292 N   0  0  0  0  0  0
   -1.1817   49.8593   23.4668 C   0  0  0  0  0  0
   -2.1275   50.2646   22.7858 O   0  0  0  0  0  0
    0.2314   49.8504   22.8778 C   0  0  0  0  0  0
    0.6995   51.4483   22.1259 S   0  0  0  0  0  0
    1.3425   52.2851   23.5433 C   0  0  0  0  0  0
    0.9681   52.0694   24.7804 N   0  0  0  0  0  0
    1.7234   52.8966   25.6021 N   0  0  0  0  0  0
    2.5474   53.5637   24.8321 C   0  0  0  0  0  0
    2.3155   53.2612   23.5062 N   0  0  0  0  0  0
    2.9790   53.8187   22.3351 C   0  0  0  0  0  0
    4.3193   53.1116   22.0720 C   0  0  0  0  0  0
    5.1044   53.7871   20.9628 C   0  0  0  0  0  0
    5.0384   53.2951   19.6566 C   0  0  0  0  0  0
    5.7782   53.9030   18.6475 C   0  0  0  0  0  0
    6.5717   55.0100   18.9431 C   0  0  0  0  0  0
    6.6393   55.5096   20.2425 C   0  0  0  0  0  0
    5.9047   54.8965   21.2554 C   0  0  0  0  0  0
    3.5770   54.5845   25.3050 C   0  0  0  0  0  0
    4.1209   54.3403   26.6968 C   0  0  0  0  0  0
    5.4288   54.0481   27.0795 C   0  0  0  0  0  0
    5.6161   53.9258   28.4572 C   0  0  0  0  0  0
    4.4475   54.1331   29.1681 C   0  0  0  0  0  0
    3.1211   54.4966   28.1220 S   0  0  0  0  0  0
   -2.6052   46.7279   25.0988 C   0  0  0  0  0  0
   -3.2965   45.6970   25.2815 O   0  0  0  0  0  0
   -2.2443   52.1102   24.8064 H   0  0  0  0  0  0
   -3.0279   52.6483   26.2873 H   0  0  0  0  0  0
   -1.4552   51.8373   26.3584 H   0  0  0  0  0  0
   -4.7417   51.2939   27.0907 H   0  0  0  0  0  0
   -5.8480   49.1285   27.4117 H   0  0  0  0  0  0
   -4.8664   47.0909   26.5353 H   0  0  0  0  0  0
   -0.5241   48.9114   25.1418 H   0  0  0  0  0  0
    0.9762   49.5423   23.6099 H   0  0  0  0  0  0
    0.2437   49.0937   22.0946 H   0  0  0  0  0  0
    2.3133   53.6967   21.4793 H   0  0  0  0  0  0
    3.1081   54.8904   22.4957 H   0  0  0  0  0  0
    4.9416   53.0915   22.9668 H   0  0  0  0  0  0
    4.1455   52.0652   21.8096 H   0  0  0  0  0  0
    4.4334   52.4296   19.4195 H   0  0  0  0  0  0
    5.7366   53.5143   17.6402 H   0  0  0  0  0  0
    7.1440   55.4821   18.1567 H   0  0  0  0  0  0
    7.2681   56.3593   20.4608 H   0  0  0  0  0  0
    5.9647   55.2809   22.2646 H   0  0  0  0  0  0
    4.4090   54.6424   24.6062 H   0  0  0  0  0  0
    3.1271   55.5697   25.2790 H   0  0  0  0  0  0
    6.2315   53.9164   26.3683 H   0  0  0  0  0  0
    6.5728   53.7014   28.9073 H   0  0  0  0  0  0
    4.3068   54.0994   30.2351 H   0  0  0  0  0  0
   -1.5157   46.6882   24.4820 O   0  5  0  0  0  0
  1  2  1  0  0  0
  1 34  1  0  0  0
  1 35  1  0  0  0
  1 36  1  0  0  0
  2  7  2  0  0  0
  2  3  1  0  0  0
  3  4  2  0  0  0
  3 37  1  0  0  0
  4  5  1  0  0  0
  4 38  1  0  0  0
  5  6  2  0  0  0
  5 39  1  0  0  0
  6  7  1  0  0  0
  6 32  1  0  0  0
  7  8  1  0  0  0
  8  9  1  0  0  0
  8 40  1  0  0  0
  9 10  2  0  0  0
  9 11  1  0  0  0
 11 12  1  0  0  0
 11 41  1  0  0  0
 11 42  1  0  0  0
 12 13  1  0  0  0
 13 17  1  0  0  0
 13 14  2  0  0  0
 14 15  1  0  0  0
 15 16  2  0  0  0
 16 17  1  0  0  0
 16 26  1  0  0  0
 17 18  1  0  0  0
 18 19  1  0  0  0
 18 43  1  0  0  0
 18 44  1  0  0  0
 19 20  1  0  0  0
 19 45  1  0  0  0
 19 46  1  0  0  0
 20 25  2  0  0  0
 20 21  1  0  0  0
 21 22  2  0  0  0
 21 47  1  0  0  0
 22 23  1  0  0  0
 22 48  1  0  0  0
 23 24  2  0  0  0
 23 49  1  0  0  0
 24 25  1  0  0  0
 24 50  1  0  0  0
 25 51  1  0  0  0
 26 27  1  0  0  0
 26 52  1  0  0  0
 26 53  1  0  0  0
 27 31  1  0  0  0
 27 28  2  0  0  0
 28 29  1  0  0  0
 28 54  1  0  0  0
 29 30  2  0  0  0
 29 55  1  0  0  0
 30 31  1  0  0  0
 30 56  1  0  0  0
 32 33  2  0  0  0
 32 57  1  0  0  0
M  CHG  1  57  -1
M  END
> <i_i_glide_confnum>
365

> <i_i_glide_lignum>
5787

> <i_i_glide_posenum>
52

> <i_i_glide_rotatable_bonds>
11

> <i_m_Source_File_Index>
5071

> <b_m_subgroup_collapsed>
0

> <r_i_docking_score>
-5.42666

> <r_i_glide_ecoul>
-4.55988

> <r_i_glide_eff_state_penalty>
0

> <r_i_glide_einternal>
6.50677

> <r_i_glide_emodel>
-63.6176

> <r_i_glide_energy>
-46.125

> <r_i_glide_erotb>
0.842393

> <r_i_glide_esite>
-0.118286

> <r_i_glide_evdw>
-41.5651

> <r_i_glide_gscore>
-5.42666

> <r_i_glide_hbond>
-0.18439

> <r_i_glide_ligand_efficiency>
-0.159608

> <r_i_glide_ligand_efficiency_ln>
-1.1989

> <r_i_glide_ligand_efficiency_sa>
-0.517067

> <r_i_glide_lipo>
-2.35491

> <r_i_glide_metal>
0

> <r_i_glide_rewards>
-0.849227

> <s_i_glide_gridfile>
wee1_glide-grid

> <s_m_Source_File>
wee1_decoys_glide_SP.sdf

> <s_m_Source_Path>
/Users/zhangxujun/Desktop

> <s_m_entry_id>
5346

> <s_m_entry_name>
wee1_decoys_glide_SP.5071

> <s_m_subgroup_title>
wee1_decoys_glide_SP

> <s_m_subgroupid>
wee1_decoys_glide_SP


$$$$
