@<TRIPOS>MOLECULE
ZINC01422403_5504
66   70    1
SMALL
USER_CHARGES


@<TRIPOS>ATOM
      1 C1          1.0765   55.0352   29.9899 C.3       1 UNK         0.0000 
      2 O2          1.2003   54.4157   28.7198 O.3       1 UNK         0.0000 
      3 C3          1.6630   53.1447   28.6162 C.2       1 UNK         0.0000 
      4 O4          1.9801   52.4164   29.5598 O.2       1 UNK         0.0000 
      5 C5          1.8493   52.6710   27.1547 C.3       1 UNK         0.0000 
      6 H6          2.3307   51.6993   27.2058 H         1 UNK         0.0000 
      7 C7          2.7292   53.6611   26.3369 C.3       1 UNK         0.0000 
      8 H8          2.2512   54.6233   26.3655 H         1 UNK         0.0000 
      9 C9          2.8063   53.2900   24.8529 C.3       1 UNK         0.0000 
     10 C10         1.5430   52.7672   24.1828 C.2       1 UNK         0.0000 
     11 C11         0.4798   52.3496   24.9298 C.2       1 UNK         0.0000 
     12 C12         0.4879   52.4335   26.4262 C.2       1 UNK         0.0000 
     13 O13        -0.5867   52.4764   27.0321 O.2       1 UNK         0.0000 
     14 C14        -0.8315   51.8404   24.2591 C.3       1 UNK         0.0000 
     15 H15        -1.5767   52.5862   24.5434 H         1 UNK         0.0000 
     16 C16        -0.7084   51.8588   22.7128 C.2       1 UNK         0.0000 
     17 C17         0.3888   52.3334   22.0682 C.2       1 UNK         0.0000 
     18 N18         1.5405   52.7376   22.7669 N.pl3     1 UNK         0.0000 
     19 C19         2.7671   52.9075   22.0397 C.ar      1 UNK         0.0000 
     20 C20         3.4140   54.1517   21.9673 C.ar      1 UNK         0.0000 
     21 C21         4.5631   54.3322   21.2021 C.ar      1 UNK         0.0000 
     22 C22         5.0310   53.2851   20.4223 C.ar      1 UNK         0.0000 
     23 C23         4.3820   52.0574   20.4426 C.ar      1 UNK         0.0000 
     24 C24         3.2896   51.8488   21.2819 C.ar      1 UNK         0.0000 
     25 N25         0.4507   52.4877   20.6908 N.pl3     1 UNK         0.0000 
     26 C26        -1.8704   51.3756   21.9319 C.2       1 UNK         0.0000 
     27 O27        -2.4935   52.0962   21.1505 O.2       1 UNK         0.0000 
     28 O28        -2.1009   50.0554   22.0855 O.3       1 UNK         0.0000 
     29 C29        -3.1775   49.4203   21.4121 C.3       1 UNK         0.0000 
     30 C30        -1.4047   50.5320   24.8352 C.ar      1 UNK         0.0000 
     31 C31        -0.5924   49.3930   24.8883 C.ar      1 UNK         0.0000 
     32 C32        -1.1250   48.1675   25.2826 C.ar      1 UNK         0.0000 
     33 C33        -2.4636   48.0691   25.6602 C.ar      1 UNK         0.0000 
     34 C34        -3.2735   49.2036   25.6384 C.ar      1 UNK         0.0000 
     35 C35        -2.7533   50.4281   25.2170 C.ar      1 UNK         0.0000 
     36 F36        -3.5727   51.5038   25.1591 F         1 UNK         0.0000 
     37 C37         4.1725   53.9789   26.7899 C.ar      1 UNK         0.0000 
     38 C38         4.8964   54.9590   26.0894 C.ar      1 UNK         0.0000 
     39 C39         6.2327   55.2068   26.3693 C.ar      1 UNK         0.0000 
     40 C40         6.8561   54.4907   27.3811 C.ar      1 UNK         0.0000 
     41 C41         6.1522   53.5372   28.1031 C.ar      1 UNK         0.0000 
     42 C42         4.8165   53.2799   27.8138 C.ar      1 UNK         0.0000 
     43 H43         0.7042   56.0527   29.8739 H         1 UNK         0.0000 
     44 H44         0.3864   54.4871   30.6332 H         1 UNK         0.0000 
     45 H45         2.0476   55.0906   30.4831 H         1 UNK         0.0000 
     46 H46         3.5051   52.4970   24.6957 H         1 UNK         0.0000 
     47 H47         3.1447   54.1893   24.3669 H         1 UNK         0.0000 
     48 H48         3.0009   55.0102   22.4707 H         1 UNK         0.0000 
     49 H49         5.0484   55.2961   21.1606 H         1 UNK         0.0000 
     50 H50         5.8757   53.4359   19.7656 H         1 UNK         0.0000 
     51 H51         4.6983   51.2978   19.7446 H         1 UNK         0.0000 
     52 H52         2.7923   50.8892   21.2741 H         1 UNK         0.0000 
     53 H53        -0.3263   52.2152   20.1070 H         1 UNK         0.0000 
     54 H54         1.1849   53.0416   20.2687 H         1 UNK         0.0000 
     55 H55        -3.2159   48.3663   21.6890 H         1 UNK         0.0000 
     56 H56        -4.1321   49.8760   21.6839 H         1 UNK         0.0000 
     57 H57        -3.0554   49.4845   20.3296 H         1 UNK         0.0000 
     58 H58         0.4442   49.4479   24.5876 H         1 UNK         0.0000 
     59 H59        -0.4885   47.2979   25.3066 H         1 UNK         0.0000 
     60 H60        -2.8622   47.1246   25.9976 H         1 UNK         0.0000 
     61 H61        -4.3071   49.1352   25.9403 H         1 UNK         0.0000 
     62 H62         4.4318   55.5490   25.3166 H         1 UNK         0.0000 
     63 H63         6.7577   55.9685   25.8142 H         1 UNK         0.0000 
     64 H64         7.8869   54.6859   27.6427 H         1 UNK         0.0000 
     65 H65         6.6507   52.9914   28.8818 H         1 UNK         0.0000 
     66 H66         4.3162   52.4972   28.3616 H         1 UNK         0.0000 
@<TRIPOS>BOND
     1    1    2 1    
     2    1   43 1    
     3    1   44 1    
     4    1   45 1    
     5    2    3 1    
     6    3    4 2    
     7    3    5 1    
     8    5    6 1    
     9    5   12 1    
    10    5    7 1    
    11    7    8 1    
    12    7    9 1    
    13    7   37 1    
    14    9   10 1    
    15    9   46 1    
    16    9   47 1    
    17   10   18 1    
    18   10   11 2    
    19   11   12 1    
    20   11   14 1    
    21   12   13 2    
    22   14   15 1    
    23   14   16 1    
    24   14   30 1    
    25   16   17 2    
    26   16   26 1    
    27   17   18 1    
    28   17   25 1    
    29   18   19 1    
    30   19   24 ar   
    31   19   20 ar   
    32   20   21 ar   
    33   20   48 1    
    34   21   22 ar   
    35   21   49 1    
    36   22   23 ar   
    37   22   50 1    
    38   23   24 ar   
    39   23   51 1    
    40   24   52 1    
    41   25   53 1    
    42   25   54 1    
    43   26   27 2    
    44   26   28 1    
    45   28   29 1    
    46   29   55 1    
    47   29   56 1    
    48   29   57 1    
    49   30   35 ar   
    50   30   31 ar   
    51   31   32 ar   
    52   31   58 1    
    53   32   33 ar   
    54   32   59 1    
    55   33   34 ar   
    56   33   60 1    
    57   34   35 ar   
    58   34   61 1    
    59   35   36 1    
    60   37   42 ar   
    61   37   38 ar   
    62   38   39 ar   
    63   38   62 1    
    64   39   40 ar   
    65   39   63 1    
    66   40   41 ar   
    67   40   64 1    
    68   41   42 ar   
    69   41   65 1    
    70   42   66 1    
@<TRIPOS>SUBSTRUCTURE
     1 UNK         1 GROUP             0       ****    0 ROOT    
