@<TRIPOS>MOLECULE
ZINC66790219_4609
53   55    1
SMALL
USER_CHARGES


@<TRIPOS>ATOM
      1 C1          3.9047   52.2504   29.6965 C.3       1 UNK         0.0000 
      2 C2          4.0188   53.1744   28.4790 C.3       1 UNK         0.0000 
      3 H3          3.5184   52.7446   27.6102 H         1 UNK         0.0000 
      4 C4          3.8507   54.6431   28.7413 C.3       1 UNK         0.0000 
      5 C5          5.2153   54.1156   28.3089 C.3       1 UNK         0.0000 
      6 H6          6.0263   54.0945   29.0358 H         1 UNK         0.0000 
      7 C7          5.6540   54.4869   26.8748 C.2       1 UNK         0.0000 
      8 O8          6.7037   55.1111   26.7276 O.2       1 UNK         0.0000 
      9 N9          4.8524   54.0968   25.8638 N.am      1 UNK         0.0000 
     10 C10         4.9554   54.2460   24.4646 C.ar      1 UNK         0.0000 
     11 C11         6.1576   54.6427   23.8503 C.ar      1 UNK         0.0000 
     12 C12         6.2429   54.7682   22.4697 C.ar      1 UNK         0.0000 
     13 C13         5.1324   54.4961   21.6788 C.ar      1 UNK         0.0000 
     14 C14         3.9395   54.0761   22.2655 C.ar      1 UNK         0.0000 
     15 C15         3.8252   53.9270   23.6603 C.ar      1 UNK         0.0000 
     16 C16         2.5333   53.3656   24.2521 C.2       1 UNK         0.0000 
     17 O17         2.1623   53.6970   25.3839 O.2       1 UNK         0.0000 
     18 N18         1.9008   52.4250   23.5066 N.am      1 UNK         0.0000 
     19 N19         0.8324   51.6845   24.0418 N.am      1 UNK         0.0000 
     20 C20        -0.4201   52.1846   24.1130 C.2       1 UNK         0.0000 
     21 O21        -0.7430   53.2966   23.6935 O.2       1 UNK         0.0000 
     22 C22        -1.4695   51.2522   24.7468 C.3       1 UNK         0.0000 
     23 C23        -2.9615   51.6182   24.4952 C.3       1 UNK         0.0000 
     24 C24        -3.8782   50.3958   24.7392 C.3       1 UNK         0.0000 
     25 C25        -5.3500   50.7148   24.4028 C.3       1 UNK         0.0000 
     26 C26        -5.8620   51.9296   25.2085 C.3       1 UNK         0.0000 
     27 C27        -4.9271   53.1533   25.0877 C.3       1 UNK         0.0000 
     28 C28        -3.4611   52.7809   25.3897 C.3       1 UNK         0.0000 
     29 F29         5.2131   54.6351   20.3359 F         1 UNK         0.0000 
     30 H30         4.3040   52.7035   30.6032 H         1 UNK         0.0000 
     31 H31         2.8637   51.9956   29.8906 H         1 UNK         0.0000 
     32 H32         4.4445   51.3195   29.5238 H         1 UNK         0.0000 
     33 H33         3.7327   54.9962   29.7637 H         1 UNK         0.0000 
     34 H34         3.2444   55.2304   28.0498 H         1 UNK         0.0000 
     35 H35         3.9762   53.6789   26.1449 H         1 UNK         0.0000 
     36 H36         7.0502   54.8535   24.4176 H         1 UNK         0.0000 
     37 H37         7.1669   55.0840   22.0109 H         1 UNK         0.0000 
     38 H38         3.1051   53.8649   21.6108 H         1 UNK         0.0000 
     39 H39         1.9734   52.3472   22.5015 H         1 UNK         0.0000 
     40 H40         1.1126   50.7890   24.4190 H         1 UNK         0.0000 
     41 H41        -1.2808   51.1833   25.8198 H         1 UNK         0.0000 
     42 H42        -1.2821   50.2496   24.3559 H         1 UNK         0.0000 
     43 H43        -3.0898   51.9105   23.4489 H         1 UNK         0.0000 
     44 H44        -3.7806   50.0540   25.7727 H         1 UNK         0.0000 
     45 H45        -3.5430   49.5519   24.1337 H         1 UNK         0.0000 
     46 H46        -5.9768   49.8445   24.6078 H         1 UNK         0.0000 
     47 H47        -5.4474   50.9221   23.3354 H         1 UNK         0.0000 
     48 H48        -5.9493   51.6491   26.2601 H         1 UNK         0.0000 
     49 H49        -6.8678   52.1984   24.8817 H         1 UNK         0.0000 
     50 H50        -5.2574   53.9412   25.7690 H         1 UNK         0.0000 
     51 H51        -5.0011   53.5731   24.0828 H         1 UNK         0.0000 
     52 H52        -2.8360   53.6584   25.2486 H         1 UNK         0.0000 
     53 H53        -3.3415   52.5209   26.4432 H         1 UNK         0.0000 
@<TRIPOS>BOND
     1    1    2 1    
     2    1   30 1    
     3    1   31 1    
     4    1   32 1    
     5    2    3 1    
     6    2    5 1    
     7    2    4 1    
     8    4    5 1    
     9    4   33 1    
    10    4   34 1    
    11    5    6 1    
    12    5    7 1    
    13    7    8 2    
    14    7    9 am   BACKBONE|DICT|INTERRES
    15    9   10 1    
    16    9   35 1    
    17   10   15 ar   
    18   10   11 ar   
    19   11   12 ar   
    20   11   36 1    
    21   12   13 ar   
    22   12   37 1    
    23   13   14 ar   
    24   13   29 1    
    25   14   15 ar   
    26   14   38 1    
    27   15   16 1    
    28   16   17 2    
    29   16   18 am   BACKBONE|DICT|INTERRES
    30   18   19 1    
    31   18   39 1    
    32   19   20 am   BACKBONE|DICT|INTERRES
    33   19   40 1    
    34   20   21 2    
    35   20   22 1    
    36   22   23 1    
    37   22   41 1    
    38   22   42 1    
    39   23   28 1    
    40   23   24 1    
    41   23   43 1    
    42   24   25 1    
    43   24   44 1    
    44   24   45 1    
    45   25   26 1    
    46   25   46 1    
    47   25   47 1    
    48   26   27 1    
    49   26   48 1    
    50   26   49 1    
    51   27   28 1    
    52   27   50 1    
    53   27   51 1    
    54   28   52 1    
    55   28   53 1    
@<TRIPOS>SUBSTRUCTURE
     1 UNK         1 GROUP             0       ****    0 ROOT    
