ZINC39665262_638
                    3D
 Schrodinger Suite 2024-2.
 72 75  0  0  1  0            999 V2000
    1.0631   51.9093   26.2138 C   0  0  0  0  0  0
    1.7013   52.4574   24.9197 C   0  0  0  0  0  0
    2.5167   53.7866   25.0091 C   0  0  1  0  0  0
    1.7705   54.5664   24.8822 H   0  0  0  0  0  0
    3.1431   54.0113   26.4243 C   0  0  0  0  0  0
    4.4823   53.6963   26.7133 C   0  0  0  0  0  0
    5.0112   53.8996   27.9841 C   0  0  0  0  0  0
    4.1999   54.4049   28.9948 C   0  0  0  0  0  0
    2.8637   54.7012   28.7443 C   0  0  0  0  0  0
    2.3416   54.4938   27.4696 C   0  0  0  0  0  0
    3.5083   54.1162   23.8258 C   0  0  0  0  0  0
    4.4313   54.8958   24.0824 O   0  0  0  0  0  0
    3.3902   53.6259   22.5540 N   0  0  0  0  0  0
    4.3910   53.9622   21.5251 C   0  0  0  0  0  0
    3.7066   53.5951   20.1889 C   0  0  2  0  0  0
    3.1094   54.4266   19.8245 H   0  0  0  0  0  0
    2.7681   52.4181   20.5571 C   0  0  0  0  0  0
    2.2763   52.8815   21.9519 C   0  0  0  0  0  0
    1.6411   52.1992   19.5153 C   0  0  0  0  0  0
    0.6146   51.1567   20.0010 C   0  0  0  0  0  0
    1.3564   49.8165   20.2257 N   0  3  0  0  0  0
    2.5746   49.9114   21.1727 C   0  0  0  0  0  0
    3.4935   51.0359   20.6491 C   0  0  0  0  0  0
    4.7659   53.2968   19.0996 C   0  0  0  0  0  0
    5.8968   52.9125   19.3900 O   0  0  0  0  0  0
    4.3988   53.5391   17.8287 N   0  0  0  0  0  0
    5.2073   53.1769   16.6599 C   0  0  0  0  0  0
    6.2117   54.2522   16.1537 C   0  0  1  0  0  0
    5.5925   54.9943   15.6467 H   0  0  0  0  0  0
    6.9916   55.0723   17.2083 C   0  0  0  0  0  0
    7.0582   53.7450   15.1118 O   0  0  0  0  0  0
    8.0091   52.7553   15.3094 C   0  0  0  0  0  0
    8.7129   52.3561   14.1707 C   0  0  0  0  0  0
    9.6897   51.3667   14.2436 C   0  0  0  0  0  0
    9.9698   50.7667   15.4689 C   0  0  0  0  0  0
    9.2844   51.1546   16.6168 C   0  0  0  0  0  0
    8.3049   52.1413   16.5383 C   0  0  0  0  0  0
    0.5302   50.9763   26.0211 H   0  0  0  0  0  0
    1.8093   51.6981   26.9821 H   0  0  0  0  0  0
    0.3397   52.6085   26.6312 H   0  0  0  0  0  0
    0.8639   52.6155   24.2379 H   0  0  0  0  0  0
    2.3072   51.6674   24.4842 H   0  0  0  0  0  0
    5.1297   53.2968   25.9476 H   0  0  0  0  0  0
    6.0469   53.6657   28.1836 H   0  0  0  0  0  0
    4.6140   54.5657   29.9788 H   0  0  0  0  0  0
    2.2334   55.0910   29.5296 H   0  0  0  0  0  0
    1.3034   54.7259   27.2902 H   0  0  0  0  0  0
    4.6858   55.0129   21.5234 H   0  0  0  0  0  0
    5.2401   53.3020   21.7106 H   0  0  0  0  0  0
    1.8452   52.0617   22.5072 H   0  0  0  0  0  0
    1.4677   53.5985   21.8046 H   0  0  0  0  0  0
    1.1115   53.1436   19.3519 H   0  0  0  0  0  0
    2.0500   51.9341   18.5380 H   0  0  0  0  0  0
    0.1325   51.4210   20.9430 H   0  0  0  0  0  0
   -0.1543   50.9568   19.2509 H   0  0  0  0  0  0
    0.7112   49.1160   20.5650 H   0  0  0  0  0  0
    2.1995   50.0602   22.1828 H   0  0  0  0  0  0
    3.0561   48.9334   21.1404 H   0  0  0  0  0  0
    3.9044   50.7498   19.6819 H   0  0  0  0  0  0
    4.3484   51.1105   21.3220 H   0  0  0  0  0  0
    3.4803   53.9162   17.6509 H   0  0  0  0  0  0
    5.6973   52.2189   16.8479 H   0  0  0  0  0  0
    4.5171   52.9508   15.8463 H   0  0  0  0  0  0
    6.3136   55.5710   17.9005 H   0  0  0  0  0  0
    7.6803   54.4787   17.8060 H   0  0  0  0  0  0
    7.5789   55.8520   16.7225 H   0  0  0  0  0  0
    8.4933   52.8202   13.2204 H   0  0  0  0  0  0
   10.2254   51.0624   13.3544 H   0  0  0  0  0  0
   10.7264   49.9978   15.5275 H   0  0  0  0  0  0
    9.5049   50.6864   17.5656 H   0  0  0  0  0  0
    7.7830   52.3965   17.4443 H   0  0  0  0  0  0
    1.6898   49.4888   19.3277 H   0  0  0  0  0  0
  1  2  1  0  0  0
  1 38  1  0  0  0
  1 39  1  0  0  0
  1 40  1  0  0  0
  2  3  1  0  0  0
  2 41  1  0  0  0
  2 42  1  0  0  0
  3  4  1  0  0  0
  3  5  1  0  0  0
  3 11  1  0  0  0
  5 10  2  0  0  0
  5  6  1  0  0  0
  6  7  2  0  0  0
  6 43  1  0  0  0
  7  8  1  0  0  0
  7 44  1  0  0  0
  8  9  2  0  0  0
  8 45  1  0  0  0
  9 10  1  0  0  0
  9 46  1  0  0  0
 10 47  1  0  0  0
 11 12  2  0  0  0
 11 13  1  0  0  0
 13 18  1  0  0  0
 13 14  1  0  0  0
 14 15  1  0  0  0
 14 48  1  0  0  0
 14 49  1  0  0  0
 15 16  1  0  0  0
 15 17  1  0  0  0
 15 24  1  0  0  0
 17 23  1  0  0  0
 17 18  1  0  0  0
 17 19  1  0  0  0
 18 50  1  0  0  0
 18 51  1  0  0  0
 19 20  1  0  0  0
 19 52  1  0  0  0
 19 53  1  0  0  0
 20 21  1  0  0  0
 20 54  1  0  0  0
 20 55  1  0  0  0
 21 22  1  0  0  0
 21 56  1  0  0  0
 21 72  1  0  0  0
 22 23  1  0  0  0
 22 57  1  0  0  0
 22 58  1  0  0  0
 23 59  1  0  0  0
 23 60  1  0  0  0
 24 25  2  0  0  0
 24 26  1  0  0  0
 26 27  1  0  0  0
 26 61  1  0  0  0
 27 28  1  0  0  0
 27 62  1  0  0  0
 27 63  1  0  0  0
 28 29  1  0  0  0
 28 30  1  0  0  0
 28 31  1  0  0  0
 30 64  1  0  0  0
 30 65  1  0  0  0
 30 66  1  0  0  0
 31 32  1  0  0  0
 32 37  2  0  0  0
 32 33  1  0  0  0
 33 34  2  0  0  0
 33 67  1  0  0  0
 34 35  1  0  0  0
 34 68  1  0  0  0
 35 36  2  0  0  0
 35 69  1  0  0  0
 36 37  1  0  0  0
 36 70  1  0  0  0
 37 71  1  0  0  0
M  CHG  1  21   1
M  END
> <i_i_glide_confnum>
380

> <i_i_glide_lignum>
639

> <i_i_glide_posenum>
199

> <i_i_glide_rotatable_bonds>
10

> <i_m_Source_File_Index>
5235

> <b_m_subgroup_collapsed>
0

> <r_i_docking_score>
-4.58644

> <r_i_glide_ecoul>
-4.11824

> <r_i_glide_eff_state_penalty>
0

> <r_i_glide_einternal>
7.99517

> <r_i_glide_emodel>
-41.4159

> <r_i_glide_energy>
-32.842

> <r_i_glide_erotb>
0.747141

> <r_i_glide_esite>
-0.117159

> <r_i_glide_evdw>
-28.7237

> <r_i_glide_gscore>
-4.58644

> <r_i_glide_hbond>
0

> <r_i_glide_ligand_efficiency>
-0.134895

> <r_i_glide_ligand_efficiency_ln>
-1.01327

> <r_i_glide_ligand_efficiency_sa>
-0.437009

> <r_i_glide_lipo>
-2.38553

> <r_i_glide_metal>
0

> <r_i_glide_rewards>
-0.776976

> <s_i_glide_gridfile>
wee1_glide-grid

> <s_m_Source_File>
wee1_decoys_glide_SP.sdf

> <s_m_Source_Path>
/Users/zhangxujun/Desktop

> <s_m_entry_id>
5510

> <s_m_entry_name>
wee1_decoys_glide_SP.5235

> <s_m_subgroup_title>
wee1_decoys_glide_SP

> <s_m_subgroupid>
wee1_decoys_glide_SP


$$$$
