ZINC08835235_4472
                    3D
 Schrodinger Suite 2024-2.
 52 55  0  0  1  0            999 V2000
    0.1046   49.2209   24.7602 C   0  0  0  0  0  0
    0.0761   49.7179   26.0609 C   0  0  0  0  0  0
    0.3044   51.0736   26.2976 C   0  0  0  0  0  0
    0.5271   51.9395   25.2156 C   0  0  0  0  0  0
    0.5724   51.4376   23.9179 C   0  0  0  0  0  0
    0.3636   50.0763   23.6856 C   0  0  0  0  0  0
    0.4126   49.5367   22.2982 C   0  0  0  0  0  0
   -0.2443   48.4967   21.6554 C   0  0  0  0  0  0
    0.2444   48.4536   20.3492 C   0  0  0  0  0  0
    1.1921   49.4607   20.2368 C   0  0  0  0  0  0
    1.2795   50.1198   21.4243 O   0  0  0  0  0  0
    2.1106   49.9404   19.1310 C   0  0  0  0  0  0
    1.9044   49.2228   17.9300 O   0  0  0  0  0  0
    0.3121   51.5121   27.6396 N   0  0  0  0  0  0
    1.1096   52.4416   28.2490 C   0  0  0  0  0  0
    0.7408   52.8590   29.8248 S   0  0  0  0  0  0
    2.1547   52.8982   27.4876 N   0  0  0  0  0  0
    3.1892   53.7392   27.7093 C   0  0  0  0  0  0
    3.4774   54.2836   28.7786 O   0  0  0  0  0  0
    3.9294   53.9429   26.4865 C   0  0  0  0  0  0
    5.0430   54.6943   26.3992 C   0  0  0  0  0  0
    5.7690   54.9457   25.1713 C   0  0  0  0  0  0
    6.8929   55.6967   24.8823 C   0  0  0  0  0  0
    7.1044   55.6221   23.5073 C   0  0  0  0  0  0
    6.0768   54.8605   22.9791 C   0  0  0  0  0  0
    5.2971   54.4239   24.0058 O   0  0  0  0  0  0
    5.6460   54.4967   21.5944 C   0  0  0  0  0  0
    4.9340   53.3006   21.4253 C   0  0  0  0  0  0
    4.5009   52.8995   20.1629 C   0  0  0  0  0  0
    4.7597   53.6969   19.0515 C   0  0  0  0  0  0
    5.4617   54.8899   19.2035 C   0  0  0  0  0  0
    5.9043   55.2967   20.4636 C   0  0  0  0  0  0
    6.7044   56.8277   20.5710 Cl  0  0  0  0  0  0
    4.1989   53.2172   17.4920 Cl  0  0  0  0  0  0
   -0.0501   48.1639   24.5991 H   0  0  0  0  0  0
   -0.0956   49.0352   26.8817 H   0  0  0  0  0  0
    0.6645   53.0002   25.3653 H   0  0  0  0  0  0
    0.7586   52.1092   23.0919 H   0  0  0  0  0  0
   -0.9903   47.8459   22.0870 H   0  0  0  0  0  0
   -0.0429   47.7650   19.5681 H   0  0  0  0  0  0
    1.9855   51.0097   18.9576 H   0  0  0  0  0  0
    3.1511   49.8570   19.4440 H   0  0  0  0  0  0
    2.7404   49.2785   17.4156 H   0  0  0  0  0  0
   -0.3602   51.0485   28.2358 H   0  0  0  0  0  0
    2.1700   52.4981   26.5624 H   0  0  0  0  0  0
    3.5477   53.4633   25.5940 H   0  0  0  0  0  0
    5.4593   55.1768   27.2741 H   0  0  0  0  0  0
    7.4763   56.2686   25.5824 H   0  0  0  0  0  0
    7.9019   56.0967   22.9534 H   0  0  0  0  0  0
    4.7198   52.6662   22.2729 H   0  0  0  0  0  0
    3.9645   51.9712   20.0440 H   0  0  0  0  0  0
    5.6501   55.5104   18.3394 H   0  0  0  0  0  0
  1  6  2  0  0  0
  1  2  1  0  0  0
  1 35  1  0  0  0
  2  3  2  0  0  0
  2 36  1  0  0  0
  3  4  1  0  0  0
  3 14  1  0  0  0
  4  5  2  0  0  0
  4 37  1  0  0  0
  5  6  1  0  0  0
  5 38  1  0  0  0
  6  7  1  0  0  0
  7 11  1  0  0  0
  7  8  2  0  0  0
  8  9  1  0  0  0
  8 39  1  0  0  0
  9 10  2  0  0  0
  9 40  1  0  0  0
 10 11  1  0  0  0
 10 12  1  0  0  0
 12 13  1  0  0  0
 12 41  1  0  0  0
 12 42  1  0  0  0
 13 43  1  0  0  0
 14 15  1  0  0  0
 14 44  1  0  0  0
 15 16  2  0  0  0
 15 17  1  0  0  0
 17 18  1  0  0  0
 17 45  1  0  0  0
 18 19  2  0  0  0
 18 20  1  0  0  0
 20 21  2  0  0  0
 20 46  1  0  0  0
 21 22  1  0  0  0
 21 47  1  0  0  0
 22 26  1  0  0  0
 22 23  2  0  0  0
 23 24  1  0  0  0
 23 48  1  0  0  0
 24 25  2  0  0  0
 24 49  1  0  0  0
 25 26  1  0  0  0
 25 27  1  0  0  0
 27 32  2  0  0  0
 27 28  1  0  0  0
 28 29  2  0  0  0
 28 50  1  0  0  0
 29 30  1  0  0  0
 29 51  1  0  0  0
 30 31  2  0  0  0
 30 34  1  0  0  0
 31 32  1  0  0  0
 31 52  1  0  0  0
 32 33  1  0  0  0
M  END
> <i_i_glide_confnum>
175

> <i_i_glide_lignum>
4473

> <i_i_glide_posenum>
317

> <i_i_glide_rotatable_bonds>
10

> <i_m_Source_File_Index>
2803

> <b_m_subgroup_collapsed>
0

> <r_i_docking_score>
-5.36792

> <r_i_glide_ecoul>
-7.48813

> <r_i_glide_eff_state_penalty>
0

> <r_i_glide_einternal>
6.55241

> <r_i_glide_emodel>
-67.3259

> <r_i_glide_energy>
-52.0388

> <r_i_glide_erotb>
0.700197

> <r_i_glide_esite>
-0.0156838

> <r_i_glide_evdw>
-44.5506

> <r_i_glide_gscore>
-5.36792

> <r_i_glide_hbond>
-0.16

> <r_i_glide_ligand_efficiency>
-0.15788

> <r_i_glide_ligand_efficiency_ln>
-1.18592

> <r_i_glide_ligand_efficiency_sa>
-0.51147

> <r_i_glide_lipo>
-1.85956

> <r_i_glide_metal>
0

> <r_i_glide_rewards>
-0.682129

> <s_i_glide_gridfile>
wee1_glide-grid

> <s_m_Source_File>
wee1_decoys_glide_SP.sdf

> <s_m_Source_Path>
/Users/zhangxujun/Desktop

> <s_m_entry_id>
3078

> <s_m_entry_name>
wee1_decoys_glide_SP.2803

> <s_m_subgroup_title>
wee1_decoys_glide_SP

> <s_m_subgroupid>
wee1_decoys_glide_SP


$$$$
