@<TRIPOS>MOLECULE
ZINC63655786_2175
55   59    1
SMALL
USER_CHARGES


@<TRIPOS>ATOM
      1 C1          6.4873   54.4980   22.4818 C.2       1 UNK         0.0000 
      2 C2          6.5720   54.9034   23.8752 C.2       1 UNK         0.0000 
      3 C3          5.5184   54.7883   24.7227 C.2       1 UNK         0.0000 
      4 C4          4.3081   54.2595   24.2627 C.2       1 UNK         0.0000 
      5 N5          3.1885   54.0967   24.9037 N.pl3     1 UNK         0.0000 
      6 C6          2.1836   53.4818   24.0333 C.3       1 UNK         0.0000 
      7 C7          2.9530   53.2967   22.7456 C.2       1 UNK         0.0000 
      8 C8          4.1816   53.8170   22.9423 C.2       1 UNK         0.0000 
      9 C9          5.3299   53.9638   22.0385 C.2       1 UNK         0.0000 
     10 C10         2.3069   52.6604   21.5267 C.3       1 UNK         0.0000 
     11 C11         2.0155   51.1398   21.6278 C.3       1 UNK         0.0000 
     12 N12         1.2019   50.6951   22.7702 N.am      1 UNK         0.0000 
     13 C13        -0.0705   51.0686   23.0166 C.2       1 UNK         0.0000 
     14 O14        -0.6649   51.8633   22.2847 O.2       1 UNK         0.0000 
     15 C15        -0.7958   50.4383   24.2406 C.3       1 UNK         0.0000 
     16 H16        -0.8560   49.4036   23.9030 H         1 UNK         0.0000 
     17 C17        -2.2239   50.9804   24.4814 C.3       1 UNK         0.0000 
     18 C18        -2.1858   52.3503   25.1767 C.3       1 UNK         0.0000 
     19 C19        -1.3383   52.2928   26.4626 C.3       1 UNK         0.0000 
     20 N20         0.0167   51.7679   26.2122 N.3       1 UNK         0.0000 
     21 C21         0.0633   50.4561   25.5412 C.3       1 UNK         0.0000 
     22 C22         0.9646   51.9064   27.3260 C.3       1 UNK         0.0000 
     23 H23         1.8512   51.2967   27.1639 H         1 UNK         0.0000 
     24 N24         0.4333   51.5396   28.6307 N.pl3     1 UNK         0.0000 
     25 C25         0.4211   52.5690   29.5663 C.ar      1 UNK         0.0000 
     26 C26        -0.0658   52.5439   30.8712 C.ar      1 UNK         0.0000 
     27 C27         0.0409   53.6966   31.6543 C.ar      1 UNK         0.0000 
     28 C28         0.6079   54.8423   31.0875 C.ar      1 UNK         0.0000 
     29 N29         1.1056   54.8838   29.8274 N.ar      1 UNK         0.0000 
     30 C30         0.9991   53.7417   29.1078 C.ar      1 UNK         0.0000 
     31 S31         1.6322   53.5889   27.5037 S.3       1 UNK         0.0000 
     32 H32         7.3338   54.6347   21.8238 H         1 UNK         0.0000 
     33 H33         7.4973   55.3187   24.2430 H         1 UNK         0.0000 
     34 H34         5.6324   55.1096   25.7472 H         1 UNK         0.0000 
     35 H35         1.8756   52.5501   24.5038 H         1 UNK         0.0000 
     36 H36         1.3306   54.1586   23.9517 H         1 UNK         0.0000 
     37 H37         5.2735   53.6680   20.9989 H         1 UNK         0.0000 
     38 H38         1.3862   53.2017   21.3096 H         1 UNK         0.0000 
     39 H39         2.9455   52.8371   20.6614 H         1 UNK         0.0000 
     40 H40         1.5553   50.7888   20.7014 H         1 UNK         0.0000 
     41 H41         2.9666   50.6114   21.7068 H         1 UNK         0.0000 
     42 H42         1.6243   50.0042   23.3737 H         1 UNK         0.0000 
     43 H43        -2.8153   50.9734   23.5630 H         1 UNK         0.0000 
     44 H44        -2.7729   50.2468   25.0757 H         1 UNK         0.0000 
     45 H45        -1.8075   53.1275   24.5109 H         1 UNK         0.0000 
     46 H46        -3.1999   52.6585   25.4286 H         1 UNK         0.0000 
     47 H47        -1.2602   53.2960   26.8813 H         1 UNK         0.0000 
     48 H48        -1.8285   51.6904   27.2291 H         1 UNK         0.0000 
     49 H49        -0.2897   49.7114   26.2581 H         1 UNK         0.0000 
     50 H50         1.1039   50.2239   25.3182 H         1 UNK         0.0000 
     51 H51         0.0874   50.5995   28.7689 H         1 UNK         0.0000 
     52 H52        -0.5059   51.6470   31.2816 H         1 UNK         0.0000 
     53 H53        -0.3257   53.6966   32.6719 H         1 UNK         0.0000 
     54 H54         0.7054   55.7472   31.6663 H         1 UNK         0.0000 
     55 H55         3.0215   54.3321   25.8793 H         1 UNK         0.0000 
@<TRIPOS>BOND
     1    1    9 2    
     2    1    2 1    
     3    1   32 1    
     4    2    3 2    
     5    2   33 1    
     6    3    4 1    
     7    3   34 1    
     8    4    8 1    
     9    4    5 2    
    10    5    6 1    
    11    5   55 1    
    12    6    7 1    
    13    6   35 1    
    14    6   36 1    
    15    7    8 2    
    16    7   10 1    
    17    8    9 1    
    18    9   37 1    
    19   10   11 1    
    20   10   38 1    
    21   10   39 1    
    22   11   12 1    
    23   11   40 1    
    24   11   41 1    
    25   12   13 am   BACKBONE|DICT|INTERRES
    26   12   42 1    
    27   13   14 2    
    28   13   15 1    
    29   15   16 1    
    30   15   21 1    
    31   15   17 1    
    32   17   18 1    
    33   17   43 1    
    34   17   44 1    
    35   18   19 1    
    36   18   45 1    
    37   18   46 1    
    38   19   20 1    
    39   19   47 1    
    40   19   48 1    
    41   20   21 1    
    42   20   22 1    
    43   21   49 1    
    44   21   50 1    
    45   22   23 1    
    46   22   31 1    
    47   22   24 1    
    48   24   25 1    
    49   24   51 1    
    50   25   30 ar   
    51   25   26 ar   
    52   26   27 ar   
    53   26   52 1    
    54   27   28 ar   
    55   27   53 1    
    56   28   29 ar   
    57   28   54 1    
    58   29   30 ar   
    59   30   31 1    
@<TRIPOS>SUBSTRUCTURE
     1 UNK         1 GROUP             0       ****    0 ROOT    
